2be0_lig
 OpenBabel11021811423D
libRbt.so/2013.1/901 2013/11/27
 52 56  0  0  0  0  0  0  0  0999 V2000
   44.8207    7.4114   -7.3548 C   0  0  2  0  0  0  0  0  0  0  0  0
   45.7531    6.4646   -7.8209 O   0  0  0  0  0  0  0  0  0  0  0  0
   49.4178    4.5025   -6.3750 C   0  0  2  0  0  0  0  0  0  0  0  0
   50.6850    4.2947   -5.6196 N   0  0  0  0  0  0  0  0  0  0  0  0
   44.7407    4.0974   -5.2837 C   0  0  2  0  0  0  0  0  0  0  0  0
   43.4962    4.5219   -5.8765 O   0  0  0  0  0  0  0  0  0  0  0  0
   42.9858    5.4426   -1.1401 C   0  0  1  0  0  0  0  0  0  0  0  0
   40.7141   -1.5984   -5.6582 C   0  0  0  0  0  0  0  0  0  0  0  0
   43.4844    7.3650   -8.2020 C   0  0  2  0  0  0  0  0  0  0  0  0
   42.9530    6.0004   -8.2149 N   0  0  0  0  0  0  0  0  0  0  0  0
   49.5356    5.8422   -7.2349 C   0  0  0  0  0  0  0  0  0  0  0  0
   44.4408    3.7673   -3.8128 C   0  0  2  0  0  0  0  0  0  0  0  0
   43.9616    2.3512   -3.8631 O   0  0  0  0  0  0  0  0  0  0  0  0
   42.1743    4.7213    0.0692 C   0  0  2  0  0  0  0  0  0  0  0  0
   40.7056    4.8188   -0.2126 N   0  0  0  0  0  0  0  0  0  0  0  0
   39.8440   -2.7342   -5.7451 C   0  0  0  0  0  0  0  0  0  0  0  0
   38.8841   -2.8066   -6.7884 N   0  0  0  0  0  0  0  0  0  0  0  0
   43.7645    7.9118   -9.6780 C   0  0  1  0  0  0  0  0  0  0  0  0
   42.5575    7.8549  -10.4223 O   0  0  0  0  0  0  0  0  0  0  0  0
   48.1575    6.1145   -8.0695 C   0  0  2  0  0  0  0  0  0  0  0  0
   48.2515    7.3163   -8.8493 N   0  0  0  0  0  0  0  0  0  0  0  0
   43.4433    4.9028   -3.5151 C   0  0  2  0  0  0  0  0  0  0  0  0
   42.6326    4.7621   -2.3578 O   0  0  0  0  0  0  0  0  0  0  0  0
   42.5369    5.4573    1.3943 C   0  0  1  0  0  0  0  0  0  0  0  0
   43.9873    5.2833    1.5767 O   0  0  0  0  0  0  0  0  0  0  0  0
   38.7327   -1.7904   -7.7745 C   0  0  0  0  0  0  0  0  0  0  0  0
   44.3119    9.3649   -9.5721 C   0  0  2  0  0  0  0  0  0  0  0  0
   44.5955    9.9266  -10.9150 O   0  0  0  0  0  0  0  0  0  0  0  0
   46.9358    6.2263   -7.0673 C   0  0  2  0  0  0  0  0  0  0  0  0
   42.6397    5.0270   -4.8315 C   0  0  1  0  0  0  0  0  0  0  0  0
   42.1431    7.0315    1.2820 C   0  0  2  0  0  0  0  0  0  0  0  0
   40.6947    7.2131    1.0990 O   0  0  0  0  0  0  0  0  0  0  0  0
   39.5653   -0.6447   -7.7404 C   0  0  0  0  0  0  0  0  0  0  0  0
   45.6420    9.3905   -8.7249 C   0  0  2  0  0  0  0  0  0  0  0  0
   45.3009    8.8271   -7.4283 O   0  0  0  0  0  0  0  0  0  0  0  0
   46.8714    4.8942   -6.2426 C   0  0  2  0  0  0  0  0  0  0  0  0
   45.7461    5.0993   -5.3971 O   0  0  0  0  0  0  0  0  0  0  0  0
   42.3168    6.4784   -5.1825 C   0  0  0  0  0  0  0  0  0  0  0  0
   41.5103    7.1613   -4.2527 O   0  0  0  0  0  0  0  0  0  0  0  0
   42.9248    7.6883    0.0529 C   0  0  1  0  0  0  0  0  0  0  0  0
   42.5811    6.9150   -1.2035 O   0  0  0  0  0  0  0  0  0  0  0  0
   40.5826   -0.5211   -6.6707 C   0  0  0  0  0  0  0  0  0  0  0  0
   46.0981   10.7874   -8.6419 C   0  0  0  0  0  0  0  0  0  0  0  0
   47.3945   10.8144   -8.3086 O   0  0  0  0  0  0  0  0  0  0  0  0
   48.2119    4.6771   -5.4218 C   0  0  1  0  0  0  0  0  0  0  0  0
   48.1433    3.4884   -4.7051 O   0  0  0  0  0  0  0  0  0  0  0  0
   43.5430    1.4830   -2.7373 C   0  0  0  0  0  0  0  0  0  0  0  0
   42.5027    9.1814   -0.0115 C   0  0  0  0  0  0  0  0  0  0  0  0
   41.1474    9.3054   -0.4875 N   0  0  0  0  0  0  0  0  0  0  0  0
   43.4366    0.0548   -3.2818 C   0  0  0  0  0  0  0  0  0  0  0  0
   42.1516   -0.0959   -4.0387 N   0  0  0  0  0  0  0  0  0  0  0  0
   41.7916   -1.5438   -4.4681 C   0  0  0  0  0  0  0  0  0  0  0  0
  1  2  1  6  0  0  0
  1  9  1  0  0  0  0
  1 35  1  0  0  0  0
  3  4  1  1  0  0  0
  3 11  1  0  0  0  0
  3 45  1  0  0  0  0
  5  6  1  0  0  0  0
  5 12  1  0  0  0  0
  5 37  1  1  0  0  0
  6 30  1  0  0  0  0
  7 14  1  0  0  0  0
  7 41  1  0  0  0  0
  7 23  1  6  0  0  0
  8 16  2  0  0  0  0
  8 42  1  0  0  0  0
  9 10  1  6  0  0  0
  9 18  1  0  0  0  0
 11 20  1  0  0  0  0
 12 13  1  6  0  0  0
 12 22  1  0  0  0  0
 13 47  1  0  0  0  0
 14 15  1  6  0  0  0
 14 24  1  0  0  0  0
 16 17  1  0  0  0  0
 17 26  2  0  0  0  0
 18 19  1  6  0  0  0
 18 27  1  0  0  0  0
 20 21  1  1  0  0  0
 20 29  1  0  0  0  0
 22 23  1  1  0  0  0
 22 30  1  0  0  0  0
 24 25  1  6  0  0  0
 24 31  1  0  0  0  0
 26 33  1  0  0  0  0
 27 28  1  6  0  0  0
 27 34  1  0  0  0  0
 29  2  1  6  0  0  0
 29 36  1  0  0  0  0
 30 38  1  6  0  0  0
 31 32  1  6  0  0  0
 31 40  1  0  0  0  0
 33 42  2  0  0  0  0
 34 35  1  0  0  0  0
 34 43  1  1  0  0  0
 36 37  1  1  0  0  0
 36 45  1  0  0  0  0
 38 39  1  0  0  0  0
 40 41  1  0  0  0  0
 40 48  1  6  0  0  0
 43 44  1  0  0  0  0
 45 46  1  6  0  0  0
 47 50  1  0  0  0  0
 48 49  1  0  0  0  0
 50 51  1  0  0  0  0
 51 52  1  0  0  0  0
 52  8  1  0  0  0  0
M  END
>  <CHROM.1>
-171.09018095,-111.52579840,-162.24233759,178.98009144,-167.98991854,99.32669319
-137.72428709,-178.42349370,-160.98034434,131.36860656,-72.16237187,-78.41182351
-170.98709649,-160.73080093,-151.35389950,43.89479287,5.09025975,-5.02349166
-0.04503041,-1.02907569,-2.26356852

>  <Name>
2be0_lig

>  <RI>
0

>  <Rbt.Current_Directory>
/home/itssahil/PROJECTS/Mol_Feturizer/New_Systems/rnas/2be0

>  <Rbt.Executable>
rbdock ($Id: //depot/dev/client3/rdock/2013.1/src/exe/rbdock.cxx#4 $)

>  <Rbt.Library>
libRbt.so (2013.1, Build901 2013/11/27)

>  <Rbt.Parameter_File>
/export/apps/rDock/src/rDock_2013.1_src/data/scripts/dock_solv.prm

>  <Rbt.Receptor>
prm/pocket_docking_2.prm

>  <SCORE>
-19.9183

>  <SCORE.INTER>
-12.4927

>  <SCORE.INTER.CONST>
1

>  <SCORE.INTER.POLAR>
-0.959166

>  <SCORE.INTER.ROT>
15

>  <SCORE.INTER.SOLV>
14.8943

>  <SCORE.INTER.VDW>
-23.696

>  <SCORE.INTER.norm>
-0.240244

>  <SCORE.INTRA>
-7.51601

>  <SCORE.INTRA.DIHEDRAL>
-16.4407

>  <SCORE.INTRA.DIHEDRAL.0>
47.8724

>  <SCORE.INTRA.POLAR>
0

>  <SCORE.INTRA.POLAR.0>
0

>  <SCORE.INTRA.REPUL>
0

>  <SCORE.INTRA.REPUL.0>
0

>  <SCORE.INTRA.SOLV>
2.19225

>  <SCORE.INTRA.SOLV.lig_0>
-115.677

>  <SCORE.INTRA.VDW>
-0.391799

>  <SCORE.INTRA.VDW.0>
-7.4833

>  <SCORE.INTRA.norm>
-0.144539

>  <SCORE.RESTR>
0.0904065

>  <SCORE.RESTR.CAVITY>
0.0904065

>  <SCORE.RESTR.norm>
0.00173859

>  <SCORE.SYSTEM>
0

>  <SCORE.SYSTEM.CONST>
0

>  <SCORE.SYSTEM.DIHEDRAL>
0

>  <SCORE.SYSTEM.SOLV>
0

>  <SCORE.SYSTEM.norm>
0

>  <SCORE.heavy>
52

>  <SCORE.norm>
-0.383044

>  <RMSD>
0.864

$$$$
2be0_lig
 OpenBabel11021811423D
libRbt.so/2013.1/901 2013/11/27
 52 56  0  0  0  0  0  0  0  0999 V2000
   44.7939    7.6342   -7.0131 C   0  0  2  0  0  0  0  0  0  0  0  0
   45.6073    6.5359   -7.3521 O   0  0  0  0  0  0  0  0  0  0  0  0
   49.5505    4.8818   -6.3102 C   0  0  2  0  0  0  0  0  0  0  0  0
   50.9212    4.7991   -5.7323 N   0  0  0  0  0  0  0  0  0  0  0  0
   44.7450    4.7584   -4.9921 C   0  0  2  0  0  0  0  0  0  0  0  0
   43.7481    5.6947   -5.4504 O   0  0  0  0  0  0  0  0  0  0  0  0
   42.8311    6.2495   -0.8514 C   0  0  1  0  0  0  0  0  0  0  0  0
   40.1998   -0.2939   -5.9732 C   0  0  0  0  0  0  0  0  0  0  0  0
   43.4519    7.6344   -7.8526 C   0  0  2  0  0  0  0  0  0  0  0  0
   42.7685    6.3488   -7.6946 N   0  0  0  0  0  0  0  0  0  0  0  0
   49.4654    6.1515   -7.2739 C   0  0  0  0  0  0  0  0  0  0  0  0
   44.2468    4.2034   -3.6481 C   0  0  2  0  0  0  0  0  0  0  0  0
   43.3470    3.0770   -4.0470 O   0  0  0  0  0  0  0  0  0  0  0  0
   43.2074    5.3516    0.4500 C   0  0  2  0  0  0  0  0  0  0  0  0
   42.1408    4.3171    0.6445 N   0  0  0  0  0  0  0  0  0  0  0  0
   39.6074    0.1942   -7.1839 C   0  0  0  0  0  0  0  0  0  0  0  0
   38.8848   -0.6954   -8.0216 N   0  0  0  0  0  0  0  0  0  0  0  0
   43.7765    7.9550   -9.3848 C   0  0  1  0  0  0  0  0  0  0  0  0
   42.5629    7.9429  -10.1204 O   0  0  0  0  0  0  0  0  0  0  0  0
   47.9700    6.2865   -7.9186 C   0  0  2  0  0  0  0  0  0  0  0  0
   47.8808    7.4243   -8.7898 N   0  0  0  0  0  0  0  0  0  0  0  0
   43.6432    5.4967   -3.0684 C   0  0  2  0  0  0  0  0  0  0  0  0
   42.7459    5.3568   -1.9767 O   0  0  0  0  0  0  0  0  0  0  0  0
   43.2898    6.3043    1.6807 C   0  0  1  0  0  0  0  0  0  0  0  0
   44.3713    7.2596    1.3886 O   0  0  0  0  0  0  0  0  0  0  0  0
   38.7132   -2.0767   -7.7206 C   0  0  0  0  0  0  0  0  0  0  0  0
   44.4869    9.3376   -9.4617 C   0  0  2  0  0  0  0  0  0  0  0  0
   44.8181    9.6892  -10.8638 O   0  0  0  0  0  0  0  0  0  0  0  0
   46.8961    6.4185   -6.7616 C   0  0  2  0  0  0  0  0  0  0  0  0
   43.0215    6.1870   -4.3057 C   0  0  1  0  0  0  0  0  0  0  0  0
   41.8695    7.0696    1.8880 C   0  0  2  0  0  0  0  0  0  0  0  0
   40.7837    6.1209    2.1800 O   0  0  0  0  0  0  0  0  0  0  0  0
   39.2752   -2.6159   -6.5372 C   0  0  0  0  0  0  0  0  0  0  0  0
   45.8203    9.3177   -8.6196 C   0  0  2  0  0  0  0  0  0  0  0  0
   45.4313    8.9651   -7.2634 O   0  0  0  0  0  0  0  0  0  0  0  0
   47.0288    5.1561   -5.8409 C   0  0  2  0  0  0  0  0  0  0  0  0
   46.0224    5.3731   -4.8592 O   0  0  0  0  0  0  0  0  0  0  0  0
   43.2044    7.7036   -4.2803 C   0  0  0  0  0  0  0  0  0  0  0  0
   42.7107    8.3540   -3.1338 O   0  0  0  0  0  0  0  0  0  0  0  0
   41.5157    7.8993    0.5692 C   0  0  1  0  0  0  0  0  0  0  0  0
   41.4924    6.9450   -0.6070 O   0  0  0  0  0  0  0  0  0  0  0  0
   40.0394   -1.7289   -5.6297 C   0  0  0  0  0  0  0  0  0  0  0  0
   46.4333   10.6525   -8.7124 C   0  0  0  0  0  0  0  0  0  0  0  0
   47.7411   10.5629   -8.4397 O   0  0  0  0  0  0  0  0  0  0  0  0
   48.4815    5.0731   -5.2084 C   0  0  1  0  0  0  0  0  0  0  0  0
   48.5862    3.9445   -4.4041 O   0  0  0  0  0  0  0  0  0  0  0  0
   42.5496    2.1850   -3.1725 C   0  0  0  0  0  0  0  0  0  0  0  0
   40.1509    8.5962    0.8203 C   0  0  0  0  0  0  0  0  0  0  0  0
   39.6871    9.2503   -0.3779 N   0  0  0  0  0  0  0  0  0  0  0  0
   43.0270    0.7522   -3.4308 C   0  0  0  0  0  0  0  0  0  0  0  0
   42.4543    0.2614   -4.7261 N   0  0  0  0  0  0  0  0  0  0  0  0
   41.0105    0.7355   -5.0440 C   0  0  0  0  0  0  0  0  0  0  0  0
  1  2  1  6  0  0  0
  1  9  1  0  0  0  0
  1 35  1  0  0  0  0
  3  4  1  1  0  0  0
  3 11  1  0  0  0  0
  3 45  1  0  0  0  0
  5  6  1  0  0  0  0
  5 12  1  0  0  0  0
  5 37  1  1  0  0  0
  6 30  1  0  0  0  0
  7 14  1  0  0  0  0
  7 41  1  0  0  0  0
  7 23  1  6  0  0  0
  8 16  2  0  0  0  0
  8 42  1  0  0  0  0
  9 10  1  6  0  0  0
  9 18  1  0  0  0  0
 11 20  1  0  0  0  0
 12 13  1  6  0  0  0
 12 22  1  0  0  0  0
 13 47  1  0  0  0  0
 14 15  1  1  0  0  0
 14 24  1  0  0  0  0
 16 17  1  0  0  0  0
 17 26  2  0  0  0  0
 18 19  1  6  0  0  0
 18 27  1  0  0  0  0
 20 21  1  6  0  0  0
 20 29  1  0  0  0  0
 22 23  1  1  0  0  0
 22 30  1  0  0  0  0
 24 25  1  6  0  0  0
 24 31  1  0  0  0  0
 26 33  1  0  0  0  0
 27 28  1  6  0  0  0
 27 34  1  0  0  0  0
 29  2  1  6  0  0  0
 29 36  1  0  0  0  0
 30 38  1  1  0  0  0
 31 32  1  6  0  0  0
 31 40  1  0  0  0  0
 33 42  2  0  0  0  0
 34 35  1  0  0  0  0
 34 43  1  1  0  0  0
 36 37  1  1  0  0  0
 36 45  1  0  0  0  0
 38 39  1  0  0  0  0
 40 41  1  0  0  0  0
 40 48  1  1  0  0  0
 43 44  1  0  0  0  0
 45 46  1  1  0  0  0
 47 50  1  0  0  0  0
 48 49  1  0  0  0  0
 50 51  1  0  0  0  0
 51 52  1  0  0  0  0
 52  8  1  0  0  0  0
M  END
>  <CHROM.1>
175.90005662,-103.13480701,-116.96832873,-178.37731467,-120.31241813,137.04241370
-125.22112196,-172.10848567,-158.18315940,97.13926294,-173.73856284,-76.80290560
-36.37421156,-152.09468289,-125.88716100,43.85403304,5.48410327,-4.80208363
-0.24027011,0.92186164,0.96824607

>  <Name>
2be0_lig

>  <RI>
0

>  <Rbt.Current_Directory>
/home/itssahil/PROJECTS/Mol_Feturizer/New_Systems/rnas/2be0

>  <Rbt.Executable>
rbdock ($Id: //depot/dev/client3/rdock/2013.1/src/exe/rbdock.cxx#4 $)

>  <Rbt.Library>
libRbt.so (2013.1, Build901 2013/11/27)

>  <Rbt.Parameter_File>
/export/apps/rDock/src/rDock_2013.1_src/data/scripts/dock_solv.prm

>  <Rbt.Receptor>
prm/pocket_docking_2.prm

>  <SCORE>
-10.182

>  <SCORE.INTER>
-12.07

>  <SCORE.INTER.CONST>
1

>  <SCORE.INTER.POLAR>
-0.959166

>  <SCORE.INTER.ROT>
15

>  <SCORE.INTER.SOLV>
18.3546

>  <SCORE.INTER.VDW>
-24.5677

>  <SCORE.INTER.norm>
-0.232116

>  <SCORE.INTRA>
1.83996

>  <SCORE.INTRA.DIHEDRAL>
-4.69146

>  <SCORE.INTRA.DIHEDRAL.0>
47.8724

>  <SCORE.INTRA.POLAR>
0

>  <SCORE.INTRA.POLAR.0>
0

>  <SCORE.INTRA.REPUL>
0

>  <SCORE.INTRA.REPUL.0>
0

>  <SCORE.INTRA.SOLV>
2.76632

>  <SCORE.INTRA.SOLV.lig_0>
-115.677

>  <SCORE.INTRA.VDW>
2.80253

>  <SCORE.INTRA.VDW.0>
-7.4833

>  <SCORE.INTRA.norm>
0.0353839

>  <SCORE.RESTR>
0.0480918

>  <SCORE.RESTR.CAVITY>
0.0480918

>  <SCORE.RESTR.norm>
0.000924842

>  <SCORE.SYSTEM>
0

>  <SCORE.SYSTEM.CONST>
0

>  <SCORE.SYSTEM.DIHEDRAL>
0

>  <SCORE.SYSTEM.SOLV>
0

>  <SCORE.SYSTEM.norm>
0

>  <SCORE.heavy>
52

>  <SCORE.norm>
-0.195807

>  <RMSD>
0.892

$$$$
2be0_lig
 OpenBabel11021811423D
libRbt.so/2013.1/901 2013/11/27
 52 56  0  0  0  0  0  0  0  0999 V2000
   44.6625    7.4959   -7.3417 C   0  0  2  0  0  0  0  0  0  0  0  0
   45.7096    6.7128   -7.8643 O   0  0  0  0  0  0  0  0  0  0  0  0
   49.0944    4.5015   -6.1252 C   0  0  2  0  0  0  0  0  0  0  0  0
   50.2991    4.2199   -5.2952 N   0  0  0  0  0  0  0  0  0  0  0  0
   44.3652    4.5992   -5.2358 C   0  0  2  0  0  0  0  0  0  0  0  0
   43.0978    5.2668   -5.4039 O   0  0  0  0  0  0  0  0  0  0  0  0
   43.2949    5.5611   -0.6670 C   0  0  1  0  0  0  0  0  0  0  0  0
   40.8355   -1.4898   -4.8543 C   0  0  0  0  0  0  0  0  0  0  0  0
   43.3004    7.2080   -8.0951 C   0  0  2  0  0  0  0  0  0  0  0  0
   43.0098    5.7731   -8.0626 N   0  0  0  0  0  0  0  0  0  0  0  0
   49.3822    5.7700   -7.0507 C   0  0  0  0  0  0  0  0  0  0  0  0
   44.3434    3.9515   -3.8421 C   0  0  2  0  0  0  0  0  0  0  0  0
   43.6638    2.6399   -4.0768 O   0  0  0  0  0  0  0  0  0  0  0  0
   42.7824    4.7449    0.6416 C   0  0  2  0  0  0  0  0  0  0  0  0
   41.3246    4.4393    0.4767 N   0  0  0  0  0  0  0  0  0  0  0  0
   39.9271   -0.3809   -4.8637 C   0  0  0  0  0  0  0  0  0  0  0  0
   39.2589   -0.0294   -6.0658 N   0  0  0  0  0  0  0  0  0  0  0  0
   43.3845    7.7676   -9.5903 C   0  0  1  0  0  0  0  0  0  0  0  0
   42.1582    7.4932  -10.2498 O   0  0  0  0  0  0  0  0  0  0  0  0
   48.0771    6.1215   -7.9689 C   0  0  2  0  0  0  0  0  0  0  0  0
   48.3240    7.2599   -8.8081 N   0  0  0  0  0  0  0  0  0  0  0  0
   43.6091    5.0675   -3.0752 C   0  0  2  0  0  0  0  0  0  0  0  0
   43.0540    4.7257   -1.8136 O   0  0  0  0  0  0  0  0  0  0  0  0
   43.0247    5.6441    1.8913 C   0  0  1  0  0  0  0  0  0  0  0  0
   44.4786    5.8642    1.9629 O   0  0  0  0  0  0  0  0  0  0  0  0
   39.4461   -0.7313   -7.2907 C   0  0  0  0  0  0  0  0  0  0  0  0
   43.6819    9.2942   -9.5317 C   0  0  2  0  0  0  0  0  0  0  0  0
   43.7758    9.8714  -10.8945 O   0  0  0  0  0  0  0  0  0  0  0  0
   46.8274    6.4088   -7.0388 C   0  0  2  0  0  0  0  0  0  0  0  0
   42.5684    5.5800   -4.0991 C   0  0  1  0  0  0  0  0  0  0  0  0
   42.2245    7.0509    1.7280 C   0  0  2  0  0  0  0  0  0  0  0  0
   40.7706    6.8386    1.6554 O   0  0  0  0  0  0  0  0  0  0  0  0
   40.3308   -1.8366   -7.3422 C   0  0  0  0  0  0  0  0  0  0  0  0
   45.0414    9.5605   -8.7777 C   0  0  2  0  0  0  0  0  0  0  0  0
   44.8882    8.9710   -7.4572 O   0  0  0  0  0  0  0  0  0  0  0  0
   46.5952    5.1407   -6.1460 C   0  0  2  0  0  0  0  0  0  0  0  0
   45.4576    5.5023   -5.3723 O   0  0  0  0  0  0  0  0  0  0  0  0
   42.3923    7.0965   -4.0419 C   0  0  0  0  0  0  0  0  0  0  0  0
   41.6941    7.5833   -2.9208 O   0  0  0  0  0  0  0  0  0  0  0  0
   42.7239    7.7957    0.4057 C   0  0  1  0  0  0  0  0  0  0  0  0
   42.5141    6.8705   -0.7752 O   0  0  0  0  0  0  0  0  0  0  0  0
   41.0532   -2.2431   -6.1145 C   0  0  0  0  0  0  0  0  0  0  0  0
   45.2570   11.0158   -8.7354 C   0  0  0  0  0  0  0  0  0  0  0  0
   46.5159   11.2694   -8.3563 O   0  0  0  0  0  0  0  0  0  0  0  0
   47.8688    4.8469   -5.2466 C   0  0  1  0  0  0  0  0  0  0  0  0
   47.6513    3.7152   -4.4696 O   0  0  0  0  0  0  0  0  0  0  0  0
   43.2590    1.6236   -3.0770 C   0  0  0  0  0  0  0  0  0  0  0  0
   41.9210    9.1205    0.2967 C   0  0  0  0  0  0  0  0  0  0  0  0
   40.5409    8.8525   -0.0230 N   0  0  0  0  0  0  0  0  0  0  0  0
   42.7565    0.4009   -3.8516 C   0  0  0  0  0  0  0  0  0  0  0  0
   42.3936   -0.6867   -2.8861 N   0  0  0  0  0  0  0  0  0  0  0  0
   41.5765   -1.8658   -3.4796 C   0  0  0  0  0  0  0  0  0  0  0  0
  1  2  1  6  0  0  0
  1  9  1  0  0  0  0
  1 35  1  0  0  0  0
  3  4  1  1  0  0  0
  3 11  1  0  0  0  0
  3 45  1  0  0  0  0
  5  6  1  0  0  0  0
  5 12  1  0  0  0  0
  5 37  1  1  0  0  0
  6 30  1  0  0  0  0
  7 14  1  0  0  0  0
  7 41  1  0  0  0  0
  7 23  1  6  0  0  0
  8 16  2  0  0  0  0
  8 42  1  0  0  0  0
  9 10  1  6  0  0  0
  9 18  1  0  0  0  0
 11 20  1  0  0  0  0
 12 13  1  6  0  0  0
 12 22  1  0  0  0  0
 13 47  1  0  0  0  0
 14 15  1  6  0  0  0
 14 24  1  0  0  0  0
 16 17  1  0  0  0  0
 17 26  2  0  0  0  0
 18 19  1  1  0  0  0
 18 27  1  0  0  0  0
 20 21  1  1  0  0  0
 20 29  1  0  0  0  0
 22 23  1  1  0  0  0
 22 30  1  0  0  0  0
 24 25  1  6  0  0  0
 24 31  1  0  0  0  0
 26 33  1  0  0  0  0
 27 28  1  6  0  0  0
 27 34  1  0  0  0  0
 29  2  1  6  0  0  0
 29 36  1  0  0  0  0
 30 38  1  6  0  0  0
 31 32  1  6  0  0  0
 31 40  1  0  0  0  0
 33 42  2  0  0  0  0
 34 35  1  0  0  0  0
 34 43  1  1  0  0  0
 36 37  1  1  0  0  0
 36 45  1  0  0  0  0
 38 39  1  0  0  0  0
 40 41  1  0  0  0  0
 40 48  1  6  0  0  0
 43 44  1  0  0  0  0
 45 46  1  1  0  0  0
 47 50  1  0  0  0  0
 48 49  1  0  0  0  0
 50 51  1  0  0  0  0
 51 52  1  0  0  0  0
 52  8  1  0  0  0  0
M  END
>  <CHROM.1>
-154.90300434,-135.33333748,-168.94776786,-174.58784778,-173.42222034,131.39063052
-155.03799914,170.68290325,-167.32151326,132.51094936,-70.01114427,177.32776868
166.87553163,-20.11271714,-57.03613454,43.78601026,5.23631188,-4.70823187
0.12395848,-1.12163715,-2.29502204

>  <Name>
2be0_lig

>  <RI>
0

>  <Rbt.Current_Directory>
/home/itssahil/PROJECTS/Mol_Feturizer/New_Systems/rnas/2be0

>  <Rbt.Executable>
rbdock ($Id: //depot/dev/client3/rdock/2013.1/src/exe/rbdock.cxx#4 $)

>  <Rbt.Library>
libRbt.so (2013.1, Build901 2013/11/27)

>  <Rbt.Parameter_File>
/export/apps/rDock/src/rDock_2013.1_src/data/scripts/dock_solv.prm

>  <Rbt.Receptor>
prm/pocket_docking_2.prm

>  <SCORE>
-19.9518

>  <SCORE.INTER>
-13.0041

>  <SCORE.INTER.CONST>
1

>  <SCORE.INTER.POLAR>
-0.912784

>  <SCORE.INTER.ROT>
15

>  <SCORE.INTER.SOLV>
18.4678

>  <SCORE.INTER.VDW>
-25.3827

>  <SCORE.INTER.norm>
-0.250079

>  <SCORE.INTRA>
-7.03094

>  <SCORE.INTRA.DIHEDRAL>
-19.0222

>  <SCORE.INTRA.DIHEDRAL.0>
47.8724

>  <SCORE.INTRA.POLAR>
0

>  <SCORE.INTRA.POLAR.0>
0

>  <SCORE.INTRA.REPUL>
0

>  <SCORE.INTRA.REPUL.0>
0

>  <SCORE.INTRA.SOLV>
1.57277

>  <SCORE.INTRA.SOLV.lig_0>
-115.677

>  <SCORE.INTRA.VDW>
1.6938

>  <SCORE.INTRA.VDW.0>
-7.4833

>  <SCORE.INTRA.norm>
-0.13521

>  <SCORE.RESTR>
0.0832949

>  <SCORE.RESTR.CAVITY>
0.0832949

>  <SCORE.RESTR.norm>
0.00160183

>  <SCORE.SYSTEM>
0

>  <SCORE.SYSTEM.CONST>
0

>  <SCORE.SYSTEM.DIHEDRAL>
0

>  <SCORE.SYSTEM.SOLV>
0

>  <SCORE.SYSTEM.norm>
0

>  <SCORE.heavy>
52

>  <SCORE.norm>
-0.383688

>  <RMSD>
0.927

$$$$
2be0_lig
 OpenBabel11021811423D
libRbt.so/2013.1/901 2013/11/27
 52 56  0  0  0  0  0  0  0  0999 V2000
   44.9004    7.5361   -7.5530 C   0  0  2  0  0  0  0  0  0  0  0  0
   45.9050    6.6895   -8.0598 O   0  0  0  0  0  0  0  0  0  0  0  0
   49.3830    4.5426   -6.4273 C   0  0  2  0  0  0  0  0  0  0  0  0
   50.6016    4.2739   -5.6134 N   0  0  0  0  0  0  0  0  0  0  0  0
   44.8044    4.3217   -5.2775 C   0  0  2  0  0  0  0  0  0  0  0  0
   43.4366    4.7788   -5.2986 O   0  0  0  0  0  0  0  0  0  0  0  0
   43.8167    5.5689   -0.7374 C   0  0  1  0  0  0  0  0  0  0  0  0
   40.1200   -1.0269   -5.0298 C   0  0  0  0  0  0  0  0  0  0  0  0
   43.5961    7.4777   -8.4480 C   0  0  2  0  0  0  0  0  0  0  0  0
   43.1535    6.0888   -8.5887 N   0  0  0  0  0  0  0  0  0  0  0  0
   49.6158    5.8606   -7.2974 C   0  0  0  0  0  0  0  0  0  0  0  0
   45.0720    3.7901   -3.8604 C   0  0  2  0  0  0  0  0  0  0  0  0
   44.5825    2.3778   -3.9186 O   0  0  0  0  0  0  0  0  0  0  0  0
   43.4948    4.8577    0.6880 C   0  0  2  0  0  0  0  0  0  0  0  0
   42.2379    4.0532    0.5505 N   0  0  0  0  0  0  0  0  0  0  0  0
   41.0648   -1.1167   -6.1041 C   0  0  0  0  0  0  0  0  0  0  0  0
   40.8175   -2.0020   -7.1859 N   0  0  0  0  0  0  0  0  0  0  0  0
   43.8854    8.1597   -9.8646 C   0  0  1  0  0  0  0  0  0  0  0  0
   42.7076    8.0903  -10.6534 O   0  0  0  0  0  0  0  0  0  0  0  0
   48.2938    6.1988   -8.1962 C   0  0  2  0  0  0  0  0  0  0  0  0
   48.4912    7.3816   -8.9857 N   0  0  0  0  0  0  0  0  0  0  0  0
   44.2804    4.8421   -3.0608 C   0  0  2  0  0  0  0  0  0  0  0  0
   43.9604    4.5226   -1.7147 O   0  0  0  0  0  0  0  0  0  0  0  0
   43.3228    5.9807    1.7549 C   0  0  1  0  0  0  0  0  0  0  0  0
   44.6119    6.6892    1.8165 O   0  0  0  0  0  0  0  0  0  0  0  0
   39.6583   -2.8255   -7.2643 C   0  0  0  0  0  0  0  0  0  0  0  0
   44.3355    9.6300   -9.6237 C   0  0  2  0  0  0  0  0  0  0  0  0
   44.6233   10.3161  -10.9065 O   0  0  0  0  0  0  0  0  0  0  0  0
   47.0376    6.3952   -7.2512 C   0  0  2  0  0  0  0  0  0  0  0  0
   43.0442    5.1123   -3.9512 C   0  0  1  0  0  0  0  0  0  0  0  0
   42.1205    6.9849    1.3167 C   0  0  2  0  0  0  0  0  0  0  0  0
   40.8289    6.2835    1.2526 O   0  0  0  0  0  0  0  0  0  0  0  0
   38.6888   -2.7789   -6.2324 C   0  0  0  0  0  0  0  0  0  0  0  0
   45.6349    9.6674   -8.7305 C   0  0  2  0  0  0  0  0  0  0  0  0
   45.2913    8.9797   -7.4960 O   0  0  0  0  0  0  0  0  0  0  0  0
   46.8602    5.0812   -6.4139 C   0  0  2  0  0  0  0  0  0  0  0  0
   45.7124    5.3629   -5.6222 O   0  0  0  0  0  0  0  0  0  0  0  0
   42.6404    6.5857   -3.9563 C   0  0  0  0  0  0  0  0  0  0  0  0
   43.5377    7.4574   -4.6015 O   0  0  0  0  0  0  0  0  0  0  0  0
   42.4547    7.6234   -0.1093 C   0  0  1  0  0  0  0  0  0  0  0  0
   42.6601    6.4987   -1.1030 O   0  0  0  0  0  0  0  0  0  0  0  0
   38.9007   -1.8716   -5.0808 C   0  0  0  0  0  0  0  0  0  0  0  0
   45.9982   11.0780   -8.5201 C   0  0  0  0  0  0  0  0  0  0  0  0
   45.0425   11.6827   -7.8033 O   0  0  0  0  0  0  0  0  0  0  0  0
   48.1484    4.8000   -5.5313 C   0  0  1  0  0  0  0  0  0  0  0  0
   47.9798    3.6279   -4.8038 O   0  0  0  0  0  0  0  0  0  0  0  0
   43.2764    1.8782   -4.4093 C   0  0  0  0  0  0  0  0  0  0  0  0
   41.2723    8.5598   -0.4790 C   0  0  0  0  0  0  0  0  0  0  0  0
   41.0098    9.4915    0.5895 N   0  0  0  0  0  0  0  0  0  0  0  0
   42.4802    1.4137   -3.1855 C   0  0  0  0  0  0  0  0  0  0  0  0
   41.9292    0.0431   -3.4396 N   0  0  0  0  0  0  0  0  0  0  0  0
   40.4250   -0.0157   -3.8194 C   0  0  0  0  0  0  0  0  0  0  0  0
  1  2  1  6  0  0  0
  1  9  1  0  0  0  0
  1 35  1  0  0  0  0
  3  4  1  1  0  0  0
  3 11  1  0  0  0  0
  3 45  1  0  0  0  0
  5  6  1  0  0  0  0
  5 12  1  0  0  0  0
  5 37  1  1  0  0  0
  6 30  1  0  0  0  0
  7 14  1  0  0  0  0
  7 41  1  0  0  0  0
  7 23  1  6  0  0  0
  8 16  2  0  0  0  0
  8 42  1  0  0  0  0
  9 10  1  6  0  0  0
  9 18  1  0  0  0  0
 11 20  1  0  0  0  0
 12 13  1  6  0  0  0
 12 22  1  0  0  0  0
 13 47  1  0  0  0  0
 14 15  1  6  0  0  0
 14 24  1  0  0  0  0
 16 17  1  0  0  0  0
 17 26  2  0  0  0  0
 18 19  1  6  0  0  0
 18 27  1  0  0  0  0
 20 21  1  1  0  0  0
 20 29  1  0  0  0  0
 22 23  1  1  0  0  0
 22 30  1  0  0  0  0
 24 25  1  6  0  0  0
 24 31  1  0  0  0  0
 26 33  1  0  0  0  0
 27 28  1  6  0  0  0
 27 34  1  0  0  0  0
 29  2  1  6  0  0  0
 29 36  1  0  0  0  0
 30 38  1  6  0  0  0
 31 32  1  6  0  0  0
 31 40  1  0  0  0  0
 33 42  2  0  0  0  0
 34 35  1  0  0  0  0
 34 43  1  1  0  0  0
 36 37  1  1  0  0  0
 36 45  1  0  0  0  0
 38 39  1  0  0  0  0
 40 41  1  0  0  0  0
 40 48  1  6  0  0  0
 43 44  1  0  0  0  0
 45 46  1  6  0  0  0
 47 50  1  0  0  0  0
 48 49  1  0  0  0  0
 50 51  1  0  0  0  0
 51 52  1  0  0  0  0
 52  8  1  0  0  0  0
M  END
>  <CHROM.1>
-167.12244664,-142.13902652,-178.46202664,-50.36431791,-108.82155451,150.78716690
-147.73731358,-47.44158777,65.19473994,146.49122509,52.48454324,-130.91365686
-101.92453617,136.69280171,-37.49551520,44.01789484,5.22082786,-4.88531593
0.06635261,-1.07626583,-2.20554164

>  <Name>
2be0_lig

>  <RI>
0

>  <Rbt.Current_Directory>
/home/itssahil/PROJECTS/Mol_Feturizer/New_Systems/rnas/2be0

>  <Rbt.Executable>
rbdock ($Id: //depot/dev/client3/rdock/2013.1/src/exe/rbdock.cxx#4 $)

>  <Rbt.Library>
libRbt.so (2013.1, Build901 2013/11/27)

>  <Rbt.Parameter_File>
/export/apps/rDock/src/rDock_2013.1_src/data/scripts/dock_solv.prm

>  <Rbt.Receptor>
prm/pocket_docking_2.prm

>  <SCORE>
-17.7865

>  <SCORE.INTER>
-12.1634

>  <SCORE.INTER.CONST>
1

>  <SCORE.INTER.POLAR>
-0.984963

>  <SCORE.INTER.ROT>
15

>  <SCORE.INTER.SOLV>
20.3025

>  <SCORE.INTER.VDW>
-25.1932

>  <SCORE.INTER.norm>
-0.233912

>  <SCORE.INTRA>
-6.45906

>  <SCORE.INTRA.DIHEDRAL>
-14.2353

>  <SCORE.INTRA.DIHEDRAL.0>
47.8724

>  <SCORE.INTRA.POLAR>
0

>  <SCORE.INTRA.POLAR.0>
0

>  <SCORE.INTRA.REPUL>
0

>  <SCORE.INTRA.REPUL.0>
0

>  <SCORE.INTRA.SOLV>
-0.593782

>  <SCORE.INTRA.SOLV.lig_0>
-115.677

>  <SCORE.INTRA.VDW>
0.955501

>  <SCORE.INTRA.VDW.0>
-7.4833

>  <SCORE.INTRA.norm>
-0.124213

>  <SCORE.RESTR>
0.835962

>  <SCORE.RESTR.CAVITY>
0.835962

>  <SCORE.RESTR.norm>
0.0160762

>  <SCORE.SYSTEM>
0

>  <SCORE.SYSTEM.CONST>
0

>  <SCORE.SYSTEM.DIHEDRAL>
0

>  <SCORE.SYSTEM.SOLV>
0

>  <SCORE.SYSTEM.norm>
0

>  <SCORE.heavy>
52

>  <SCORE.norm>
-0.342049

>  <RMSD>
1.142

$$$$
2be0_lig
 OpenBabel11021811423D
libRbt.so/2013.1/901 2013/11/27
 52 56  0  0  0  0  0  0  0  0999 V2000
   44.5476    7.5080   -7.4102 C   0  0  2  0  0  0  0  0  0  0  0  0
   45.5333    6.5676   -7.7663 O   0  0  0  0  0  0  0  0  0  0  0  0
   48.1802    3.8773   -5.5020 C   0  0  2  0  0  0  0  0  0  0  0  0
   49.1792    3.4254   -4.4934 N   0  0  0  0  0  0  0  0  0  0  0  0
   43.7502    4.6954   -4.6601 C   0  0  2  0  0  0  0  0  0  0  0  0
   42.4153    5.2292   -4.7755 O   0  0  0  0  0  0  0  0  0  0  0  0
   42.4988    7.2061   -0.7796 C   0  0  1  0  0  0  0  0  0  0  0  0
   40.3728   -0.2916   -5.6705 C   0  0  0  0  0  0  0  0  0  0  0  0
   43.3088    7.4402   -8.3934 C   0  0  2  0  0  0  0  0  0  0  0  0
   42.7954    6.0700   -8.4497 N   0  0  0  0  0  0  0  0  0  0  0  0
   48.8206    5.0414   -6.3868 C   0  0  0  0  0  0  0  0  0  0  0  0
   44.0566    4.5897   -3.1576 C   0  0  2  0  0  0  0  0  0  0  0  0
   43.4752    3.2658   -2.7745 O   0  0  0  0  0  0  0  0  0  0  0  0
   42.4866    7.0795    0.8406 C   0  0  2  0  0  0  0  0  0  0  0  0
   41.7105    5.8552    1.2209 N   0  0  0  0  0  0  0  0  0  0  0  0
   40.5192   -1.3401   -4.7040 C   0  0  0  0  0  0  0  0  0  0  0  0
   39.8288   -2.5668   -4.8872 N   0  0  0  0  0  0  0  0  0  0  0  0
   43.7381    7.9781   -9.8364 C   0  0  1  0  0  0  0  0  0  0  0  0
   42.6172    7.9020  -10.7035 O   0  0  0  0  0  0  0  0  0  0  0  0
   47.7493    5.5759   -7.4988 C   0  0  2  0  0  0  0  0  0  0  0  0
   48.3143    6.6223   -8.3033 N   0  0  0  0  0  0  0  0  0  0  0  0
   43.3768    5.8893   -2.6866 C   0  0  2  0  0  0  0  0  0  0  0  0
   43.1076    6.0095   -1.2975 O   0  0  0  0  0  0  0  0  0  0  0  0
   41.8169    8.3639    1.4156 C   0  0  1  0  0  0  0  0  0  0  0  0
   42.6656    9.4918    0.9973 O   0  0  0  0  0  0  0  0  0  0  0  0
   38.9785   -2.8190   -6.0014 C   0  0  0  0  0  0  0  0  0  0  0  0
   44.2568    9.4377   -9.6868 C   0  0  2  0  0  0  0  0  0  0  0  0
   44.6753    9.9915  -10.9972 O   0  0  0  0  0  0  0  0  0  0  0  0
   46.4446    6.1084   -6.7753 C   0  0  2  0  0  0  0  0  0  0  0  0
   42.1158    5.9769   -3.5789 C   0  0  1  0  0  0  0  0  0  0  0  0
   40.3074    8.5148    0.8286 C   0  0  2  0  0  0  0  0  0  0  0  0
   39.4533    7.3907    1.2424 O   0  0  0  0  0  0  0  0  0  0  0  0
   38.7960   -1.8205   -6.9897 C   0  0  0  0  0  0  0  0  0  0  0  0
   45.4895    9.4847   -8.7040 C   0  0  2  0  0  0  0  0  0  0  0  0
   45.0188    8.9282   -7.4456 O   0  0  0  0  0  0  0  0  0  0  0  0
   45.8631    4.9339   -5.9142 C   0  0  2  0  0  0  0  0  0  0  0  0
   44.7039    5.5143   -5.3288 O   0  0  0  0  0  0  0  0  0  0  0  0
   41.8076    7.4088   -4.0134 C   0  0  0  0  0  0  0  0  0  0  0  0
   40.7083    7.5554   -4.8802 O   0  0  0  0  0  0  0  0  0  0  0  0
   40.3625    8.5868   -0.7666 C   0  0  1  0  0  0  0  0  0  0  0  0
   41.0613    7.3446   -1.2797 O   0  0  0  0  0  0  0  0  0  0  0  0
   39.4940   -0.5221   -6.8441 C   0  0  0  0  0  0  0  0  0  0  0  0
   45.9204   10.8870   -8.5862 C   0  0  0  0  0  0  0  0  0  0  0  0
   44.9954   11.5830   -7.9133 O   0  0  0  0  0  0  0  0  0  0  0  0
   46.9167    4.4608   -4.8263 C   0  0  1  0  0  0  0  0  0  0  0  0
   46.3909    3.4137   -4.0789 O   0  0  0  0  0  0  0  0  0  0  0  0
   42.6177    2.3701   -3.5861 C   0  0  0  0  0  0  0  0  0  0  0  0
   38.8990    8.7185   -1.2688 C   0  0  0  0  0  0  0  0  0  0  0  0
   38.1787    7.4867   -1.0617 N   0  0  0  0  0  0  0  0  0  0  0  0
   43.5351    1.6259   -4.5617 C   0  0  0  0  0  0  0  0  0  0  0  0
   42.7037    0.9367   -5.6011 N   0  0  0  0  0  0  0  0  0  0  0  0
   41.1670    1.0853   -5.4383 C   0  0  0  0  0  0  0  0  0  0  0  0
  1  2  1  6  0  0  0
  1  9  1  0  0  0  0
  1 35  1  0  0  0  0
  3  4  1  1  0  0  0
  3 11  1  0  0  0  0
  3 45  1  0  0  0  0
  5  6  1  0  0  0  0
  5 12  1  0  0  0  0
  5 37  1  6  0  0  0
  6 30  1  0  0  0  0
  7 14  1  0  0  0  0
  7 41  1  0  0  0  0
  7 23  1  6  0  0  0
  8 16  2  0  0  0  0
  8 42  1  0  0  0  0
  9 10  1  6  0  0  0
  9 18  1  0  0  0  0
 11 20  1  0  0  0  0
 12 13  1  1  0  0  0
 12 22  1  0  0  0  0
 13 47  1  0  0  0  0
 14 15  1  6  0  0  0
 14 24  1  0  0  0  0
 16 17  1  0  0  0  0
 17 26  2  0  0  0  0
 18 19  1  6  0  0  0
 18 27  1  0  0  0  0
 20 21  1  1  0  0  0
 20 29  1  0  0  0  0
 22 23  1  1  0  0  0
 22 30  1  0  0  0  0
 24 25  1  6  0  0  0
 24 31  1  0  0  0  0
 26 33  1  0  0  0  0
 27 28  1  6  0  0  0
 27 34  1  0  0  0  0
 29  2  1  6  0  0  0
 29 36  1  0  0  0  0
 30 38  1  6  0  0  0
 31 32  1  6  0  0  0
 31 40  1  0  0  0  0
 33 42  2  0  0  0  0
 34 35  1  0  0  0  0
 34 43  1  1  0  0  0
 36 37  1  1  0  0  0
 36 45  1  0  0  0  0
 38 39  1  0  0  0  0
 40 41  1  0  0  0  0
 40 48  1  6  0  0  0
 43 44  1  0  0  0  0
 45 46  1  1  0  0  0
 47 50  1  0  0  0  0
 48 49  1  0  0  0  0
 50 51  1  0  0  0  0
 51 52  1  0  0  0  0
 52  8  1  0  0  0  0
M  END
>  <CHROM.1>
-156.03971614,-148.75469557,-173.83431045,-8.94789079,78.52576898,178.75758975
-156.93699523,60.87052963,69.54482519,168.45884624,-70.22979166,-167.71712259
-1.83432275,-136.23492405,69.08972553,43.23665440,5.58736534,-4.79772344
0.15209239,0.98447412,0.46957916

>  <Name>
2be0_lig

>  <RI>
0

>  <Rbt.Current_Directory>
/home/itssahil/PROJECTS/Mol_Feturizer/New_Systems/rnas/2be0

>  <Rbt.Executable>
rbdock ($Id: //depot/dev/client3/rdock/2013.1/src/exe/rbdock.cxx#4 $)

>  <Rbt.Library>
libRbt.so (2013.1, Build901 2013/11/27)

>  <Rbt.Parameter_File>
/export/apps/rDock/src/rDock_2013.1_src/data/scripts/dock_solv.prm

>  <Rbt.Receptor>
prm/pocket_docking_2.prm

>  <SCORE>
-10.7988

>  <SCORE.INTER>
-8.04449

>  <SCORE.INTER.CONST>
1

>  <SCORE.INTER.POLAR>
-0.961455

>  <SCORE.INTER.ROT>
15

>  <SCORE.INTER.SOLV>
19.8216

>  <SCORE.INTER.VDW>
-22.3653

>  <SCORE.INTER.norm>
-0.154702

>  <SCORE.INTRA>
-4.19726

>  <SCORE.INTRA.DIHEDRAL>
-26.1841

>  <SCORE.INTRA.DIHEDRAL.0>
47.8724

>  <SCORE.INTRA.POLAR>
0

>  <SCORE.INTRA.POLAR.0>
0

>  <SCORE.INTRA.REPUL>
0

>  <SCORE.INTRA.REPUL.0>
0

>  <SCORE.INTRA.SOLV>
-0.19018

>  <SCORE.INTRA.SOLV.lig_0>
-115.677

>  <SCORE.INTRA.VDW>
8.98987

>  <SCORE.INTRA.VDW.0>
-7.4833

>  <SCORE.INTRA.norm>
-0.0807166

>  <SCORE.RESTR>
1.44294

>  <SCORE.RESTR.CAVITY>
1.44294

>  <SCORE.RESTR.norm>
0.0277489

>  <SCORE.SYSTEM>
0

>  <SCORE.SYSTEM.CONST>
0

>  <SCORE.SYSTEM.DIHEDRAL>
0

>  <SCORE.SYSTEM.SOLV>
0

>  <SCORE.SYSTEM.norm>
0

>  <SCORE.heavy>
52

>  <SCORE.norm>
-0.207669

>  <RMSD>
1.338

$$$$
2be0_lig
 OpenBabel11021811423D
libRbt.so/2013.1/901 2013/11/27
 52 56  0  0  0  0  0  0  0  0999 V2000
   44.7687    7.7324   -7.6787 C   0  0  2  0  0  0  0  0  0  0  0  0
   45.7840    6.8607   -8.1172 O   0  0  0  0  0  0  0  0  0  0  0  0
   48.2146    3.8951   -5.9565 C   0  0  2  0  0  0  0  0  0  0  0  0
   49.1994    3.3357   -4.9887 N   0  0  0  0  0  0  0  0  0  0  0  0
   43.7377    5.2234   -5.3132 C   0  0  2  0  0  0  0  0  0  0  0  0
   42.6787    6.1501   -4.9967 O   0  0  0  0  0  0  0  0  0  0  0  0
   43.4401    5.8116   -0.5571 C   0  0  1  0  0  0  0  0  0  0  0  0
   39.9535    0.0838   -7.2351 C   0  0  0  0  0  0  0  0  0  0  0  0
   43.5415    7.7319   -8.6785 C   0  0  2  0  0  0  0  0  0  0  0  0
   43.0675    6.3611   -8.8806 N   0  0  0  0  0  0  0  0  0  0  0  0
   48.9404    4.9845   -6.8701 C   0  0  0  0  0  0  0  0  0  0  0  0
   43.9189    4.3207   -4.0824 C   0  0  2  0  0  0  0  0  0  0  0  0
   42.8962    3.2476   -4.2824 O   0  0  0  0  0  0  0  0  0  0  0  0
   43.3049    4.9186    0.7940 C   0  0  2  0  0  0  0  0  0  0  0  0
   42.0318    4.1311    0.7240 N   0  0  0  0  0  0  0  0  0  0  0  0
   38.8867   -0.8692   -7.3278 C   0  0  0  0  0  0  0  0  0  0  0  0
   39.1856   -2.2421   -7.5294 N   0  0  0  0  0  0  0  0  0  0  0  0
   43.9684    8.4262  -10.0538 C   0  0  1  0  0  0  0  0  0  0  0  0
   42.8581    8.4089  -10.9375 O   0  0  0  0  0  0  0  0  0  0  0  0
   47.8885    5.6340   -7.9385 C   0  0  2  0  0  0  0  0  0  0  0  0
   48.5299    6.6145   -8.7683 N   0  0  0  0  0  0  0  0  0  0  0  0
   43.7130    5.3787   -2.9819 C   0  0  2  0  0  0  0  0  0  0  0  0
   43.4389    4.9024   -1.6725 O   0  0  0  0  0  0  0  0  0  0  0  0
   43.2910    5.8920    2.0112 C   0  0  1  0  0  0  0  0  0  0  0  0
   44.5847    6.5943    1.9898 O   0  0  0  0  0  0  0  0  0  0  0  0
   40.5158   -2.7365   -7.6491 C   0  0  0  0  0  0  0  0  0  0  0  0
   44.4442    9.8765   -9.7496 C   0  0  2  0  0  0  0  0  0  0  0  0
   44.8587   10.5729  -10.9915 O   0  0  0  0  0  0  0  0  0  0  0  0
   46.6801    6.3036   -7.1633 C   0  0  2  0  0  0  0  0  0  0  0  0
   42.6036    6.2875   -3.5628 C   0  0  1  0  0  0  0  0  0  0  0  0
   42.0523    6.9372    1.8736 C   0  0  2  0  0  0  0  0  0  0  0  0
   40.7558    6.2421    1.8938 O   0  0  0  0  0  0  0  0  0  0  0  0
   41.6111   -1.8420   -7.5643 C   0  0  0  0  0  0  0  0  0  0  0  0
   45.6660    9.8561   -8.7524 C   0  0  2  0  0  0  0  0  0  0  0  0
   45.1998    9.1610   -7.5632 O   0  0  0  0  0  0  0  0  0  0  0  0
   46.0107    5.1974   -6.2759 C   0  0  2  0  0  0  0  0  0  0  0  0
   44.9464    5.8991   -5.6448 O   0  0  0  0  0  0  0  0  0  0  0  0
   42.8332    7.7639   -3.2438 C   0  0  0  0  0  0  0  0  0  0  0  0
   41.7794    8.6297   -3.5917 O   0  0  0  0  0  0  0  0  0  0  0  0
   42.1988    7.7581    0.5107 C   0  0  1  0  0  0  0  0  0  0  0  0
   42.2556    6.7738   -0.6393 O   0  0  0  0  0  0  0  0  0  0  0  0
   41.3520   -0.3986   -7.3554 C   0  0  0  0  0  0  0  0  0  0  0  0
   46.0559   11.2503   -8.4869 C   0  0  0  0  0  0  0  0  0  0  0  0
   47.3913   11.3421   -8.4570 O   0  0  0  0  0  0  0  0  0  0  0  0
   47.0507    4.6109   -5.2310 C   0  0  1  0  0  0  0  0  0  0  0  0
   46.4457    3.6256   -4.4598 O   0  0  0  0  0  0  0  0  0  0  0  0
   41.6087    3.3305   -5.0116 C   0  0  0  0  0  0  0  0  0  0  0  0
   40.9882    8.7273    0.4288 C   0  0  0  0  0  0  0  0  0  0  0  0
   39.7537    7.9896    0.3258 N   0  0  0  0  0  0  0  0  0  0  0  0
   40.8829    1.9975   -4.8028 C   0  0  0  0  0  0  0  0  0  0  0  0
   39.5600    2.0341   -5.5065 N   0  0  0  0  0  0  0  0  0  0  0  0
   39.5858    1.6305   -7.0054 C   0  0  0  0  0  0  0  0  0  0  0  0
  1  2  1  6  0  0  0
  1  9  1  0  0  0  0
  1 35  1  0  0  0  0
  3  4  1  1  0  0  0
  3 11  1  0  0  0  0
  3 45  1  0  0  0  0
  5  6  1  0  0  0  0
  5 12  1  0  0  0  0
  5 37  1  1  0  0  0
  6 30  1  0  0  0  0
  7 14  1  0  0  0  0
  7 41  1  0  0  0  0
  7 23  1  6  0  0  0
  8 16  2  0  0  0  0
  8 42  1  0  0  0  0
  9 10  1  6  0  0  0
  9 18  1  0  0  0  0
 11 20  1  0  0  0  0
 12 13  1  1  0  0  0
 12 22  1  0  0  0  0
 13 47  1  0  0  0  0
 14 15  1  6  0  0  0
 14 24  1  0  0  0  0
 16 17  1  0  0  0  0
 17 26  2  0  0  0  0
 18 19  1  6  0  0  0
 18 27  1  0  0  0  0
 20 21  1  1  0  0  0
 20 29  1  0  0  0  0
 22 23  1  1  0  0  0
 22 30  1  0  0  0  0
 24 25  1  6  0  0  0
 24 31  1  0  0  0  0
 26 33  1  0  0  0  0
 27 28  1  6  0  0  0
 27 34  1  0  0  0  0
 29  2  1  6  0  0  0
 29 36  1  0  0  0  0
 30 38  1  6  0  0  0
 31 32  1  6  0  0  0
 31 40  1  0  0  0  0
 33 42  2  0  0  0  0
 34 35  1  0  0  0  0
 34 43  1  1  0  0  0
 36 37  1  1  0  0  0
 36 45  1  0  0  0  0
 38 39  1  0  0  0  0
 40 41  1  0  0  0  0
 40 48  1  6  0  0  0
 43 44  1  0  0  0  0
 45 46  1  1  0  0  0
 47 50  1  0  0  0  0
 48 49  1  0  0  0  0
 50 51  1  0  0  0  0
 51 52  1  0  0  0  0
 52  8  1  0  0  0  0
M  END
>  <CHROM.1>
-154.63080729,-165.63350073,-172.08789251,-27.96518563,-174.69894503,170.36163163
-167.78513876,71.52169503,-139.62161171,148.35241774,-64.58221099,179.21501397
86.15057551,66.70945028,92.49243418,43.61098837,5.51746852,-5.03953550,-0.54560094
1.02783723,1.07844047

>  <Name>
2be0_lig

>  <RI>
2.10017e+07

>  <Rbt.Current_Directory>
/home/itssahil/PROJECTS/Mol_Feturizer/New_Systems/rnas/2be0

>  <Rbt.Executable>
rbdock ($Id: //depot/dev/client3/rdock/2013.1/src/exe/rbdock.cxx#4 $)

>  <Rbt.Library>
libRbt.so (2013.1, Build901 2013/11/27)

>  <Rbt.Parameter_File>
/export/apps/rDock/src/rDock_2013.1_src/data/scripts/dock_solv.prm

>  <Rbt.Receptor>
prm/pocket_docking_3.prm

>  <SCORE>
-22.4867

>  <SCORE.INTER>
-11.5064

>  <SCORE.INTER.CONST>
1

>  <SCORE.INTER.POLAR>
-0.953804

>  <SCORE.INTER.ROT>
15

>  <SCORE.INTER.SOLV>
18.9845

>  <SCORE.INTER.VDW>
-24.4198

>  <SCORE.INTER.norm>
-0.221278

>  <SCORE.INTRA>
-10.9948

>  <SCORE.INTRA.DIHEDRAL>
-28.9107

>  <SCORE.INTRA.DIHEDRAL.0>
47.8724

>  <SCORE.INTRA.POLAR>
0

>  <SCORE.INTRA.POLAR.0>
0

>  <SCORE.INTRA.REPUL>
0

>  <SCORE.INTRA.REPUL.0>
0

>  <SCORE.INTRA.SOLV>
-1.28378

>  <SCORE.INTRA.SOLV.lig_0>
-115.677

>  <SCORE.INTRA.VDW>
4.1025

>  <SCORE.INTRA.VDW.0>
-7.4833

>  <SCORE.INTRA.norm>
-0.211438

>  <SCORE.RESTR>
0.0144659

>  <SCORE.RESTR.CAVITY>
0.0144659

>  <SCORE.RESTR.norm>
0.000278191

>  <SCORE.SYSTEM>
0

>  <SCORE.SYSTEM.CONST>
0

>  <SCORE.SYSTEM.DIHEDRAL>
0

>  <SCORE.SYSTEM.SOLV>
0

>  <SCORE.SYSTEM.norm>
0

>  <SCORE.heavy>
52

>  <SCORE.norm>
-0.432437

>  <RMSD>
1.583

$$$$
2be0_lig
 OpenBabel11021811423D
libRbt.so/2013.1/901 2013/11/27
 52 56  0  0  0  0  0  0  0  0999 V2000
   44.7065    7.6596   -7.6691 C   0  0  2  0  0  0  0  0  0  0  0  0
   45.7060    6.7436   -8.0499 O   0  0  0  0  0  0  0  0  0  0  0  0
   48.6988    4.3508   -5.8846 C   0  0  2  0  0  0  0  0  0  0  0  0
   49.8023    4.0174   -4.9408 N   0  0  0  0  0  0  0  0  0  0  0  0
   43.9114    5.0562   -5.5200 C   0  0  2  0  0  0  0  0  0  0  0  0
   42.7844    5.9429   -5.6753 O   0  0  0  0  0  0  0  0  0  0  0  0
   41.9449    6.0812   -1.2677 C   0  0  1  0  0  0  0  0  0  0  0  0
   41.3053   -1.2486   -5.1902 C   0  0  0  0  0  0  0  0  0  0  0  0
   43.5311    7.6988   -8.7287 C   0  0  2  0  0  0  0  0  0  0  0  0
   43.0126    6.3462   -8.9437 N   0  0  0  0  0  0  0  0  0  0  0  0
   49.1873    5.5052   -6.8731 C   0  0  0  0  0  0  0  0  0  0  0  0
   43.6926    4.2875   -4.2071 C   0  0  2  0  0  0  0  0  0  0  0  0
   42.8237    3.1401   -4.6146 O   0  0  0  0  0  0  0  0  0  0  0  0
   43.2290    6.9777   -0.8335 C   0  0  2  0  0  0  0  0  0  0  0  0
   44.2398    6.0846   -0.1806 N   0  0  0  0  0  0  0  0  0  0  0  0
   40.5362   -0.0956   -5.5561 C   0  0  0  0  0  0  0  0  0  0  0  0
   39.6008   -0.1829   -6.6202 N   0  0  0  0  0  0  0  0  0  0  0  0
   44.0533    8.3621  -10.0863 C   0  0  1  0  0  0  0  0  0  0  0  0
   42.9882    8.3808  -11.0240 O   0  0  0  0  0  0  0  0  0  0  0  0
   47.9983    5.9109   -7.9178 C   0  0  2  0  0  0  0  0  0  0  0  0
   48.4261    6.9474   -8.8145 N   0  0  0  0  0  0  0  0  0  0  0  0
   43.1029    5.4310   -3.3600 C   0  0  2  0  0  0  0  0  0  0  0  0
   42.4180    5.0658   -2.1709 O   0  0  0  0  0  0  0  0  0  0  0  0
   42.7336    8.0747    0.1566 C   0  0  1  0  0  0  0  0  0  0  0  0
   41.7662    8.8953   -0.5905 O   0  0  0  0  0  0  0  0  0  0  0  0
   39.3801   -1.3780   -7.3624 C   0  0  0  0  0  0  0  0  0  0  0  0
   44.5720    9.7950   -9.7699 C   0  0  2  0  0  0  0  0  0  0  0  0
   45.0753   10.4621  -10.9950 O   0  0  0  0  0  0  0  0  0  0  0  0
   46.7212    6.3964   -7.1161 C   0  0  2  0  0  0  0  0  0  0  0  0
   42.2296    6.2113   -4.3712 C   0  0  1  0  0  0  0  0  0  0  0  0
   42.0384    7.3809    1.4532 C   0  0  2  0  0  0  0  0  0  0  0  0
   42.9995    6.5587    2.2047 O   0  0  0  0  0  0  0  0  0  0  0  0
   40.1103   -2.5500   -7.0457 C   0  0  0  0  0  0  0  0  0  0  0  0
   45.7412    9.7351   -8.7131 C   0  0  2  0  0  0  0  0  0  0  0  0
   45.1890    9.0708   -7.5432 O   0  0  0  0  0  0  0  0  0  0  0  0
   46.2902    5.2341   -6.1556 C   0  0  2  0  0  0  0  0  0  0  0  0
   45.1438    5.7694   -5.5056 O   0  0  0  0  0  0  0  0  0  0  0  0
   42.3014    7.7226   -4.1588 C   0  0  0  0  0  0  0  0  0  0  0  0
   43.5955    8.2759   -4.1764 O   0  0  0  0  0  0  0  0  0  0  0  0
   40.8136    6.4722    0.9767 C   0  0  1  0  0  0  0  0  0  0  0  0
   41.3300    5.4528   -0.0177 O   0  0  0  0  0  0  0  0  0  0  0  0
   41.0994   -2.5107   -5.9437 C   0  0  0  0  0  0  0  0  0  0  0  0
   46.1737   11.1150   -8.4391 C   0  0  0  0  0  0  0  0  0  0  0  0
   45.1590   11.8018   -7.8992 O   0  0  0  0  0  0  0  0  0  0  0  0
   47.4556    4.8873   -5.1363 C   0  0  1  0  0  0  0  0  0  0  0  0
   47.0623    3.8495   -4.2997 O   0  0  0  0  0  0  0  0  0  0  0  0
   42.0962    2.1853   -3.7454 C   0  0  0  0  0  0  0  0  0  0  0  0
   40.1989    5.8299    2.2499 C   0  0  0  0  0  0  0  0  0  0  0  0
   38.9859    6.5119    2.6271 N   0  0  0  0  0  0  0  0  0  0  0  0
   43.1316    1.2077   -3.1800 C   0  0  0  0  0  0  0  0  0  0  0  0
   43.3288    0.0771   -4.1440 N   0  0  0  0  0  0  0  0  0  0  0  0
   42.3553   -1.1213   -3.9813 C   0  0  0  0  0  0  0  0  0  0  0  0
  1  2  1  6  0  0  0
  1  9  1  0  0  0  0
  1 35  1  0  0  0  0
  3  4  1  1  0  0  0
  3 11  1  0  0  0  0
  3 45  1  0  0  0  0
  5  6  1  0  0  0  0
  5 12  1  0  0  0  0
  5 37  1  1  0  0  0
  6 30  1  0  0  0  0
  7 14  1  0  0  0  0
  7 41  1  0  0  0  0
  7 23  1  6  0  0  0
  8 16  2  0  0  0  0
  8 42  1  0  0  0  0
  9 10  1  6  0  0  0
  9 18  1  0  0  0  0
 11 20  1  0  0  0  0
 12 13  1  6  0  0  0
 12 22  1  0  0  0  0
 13 47  1  0  0  0  0
 14 15  1  1  0  0  0
 14 24  1  0  0  0  0
 16 17  1  0  0  0  0
 17 26  2  0  0  0  0
 18 19  1  6  0  0  0
 18 27  1  0  0  0  0
 20 21  1  6  0  0  0
 20 29  1  0  0  0  0
 22 23  1  1  0  0  0
 22 30  1  0  0  0  0
 24 25  1  6  0  0  0
 24 31  1  0  0  0  0
 26 33  1  0  0  0  0
 27 28  1  6  0  0  0
 27 34  1  0  0  0  0
 29  2  1  6  0  0  0
 29 36  1  0  0  0  0
 30 38  1  1  0  0  0
 31 32  1  6  0  0  0
 31 40  1  0  0  0  0
 33 42  2  0  0  0  0
 34 35  1  0  0  0  0
 34 43  1  1  0  0  0
 36 37  1  1  0  0  0
 36 45  1  0  0  0  0
 38 39  1  0  0  0  0
 40 41  1  0  0  0  0
 40 48  1  1  0  0  0
 43 44  1  0  0  0  0
 45 46  1  1  0  0  0
 47 50  1  0  0  0  0
 48 49  1  0  0  0  0
 50 51  1  0  0  0  0
 51 52  1  0  0  0  0
 52  8  1  0  0  0  0
M  END
>  <CHROM.1>
-169.01861941,-141.21748224,-57.08217502,-168.64936535,-75.56616667,174.43569058
-155.53174675,-61.09340236,62.56746101,125.65208624,102.54852295,-86.54645334
-87.54629227,110.34172137,-51.82755403,43.72053546,5.47152222,-4.89294080
-0.01612957,1.09708132,0.67992313

>  <Name>
2be0_lig

>  <RI>
0

>  <Rbt.Current_Directory>
/home/itssahil/PROJECTS/Mol_Feturizer/New_Systems/rnas/2be0

>  <Rbt.Executable>
rbdock ($Id: //depot/dev/client3/rdock/2013.1/src/exe/rbdock.cxx#4 $)

>  <Rbt.Library>
libRbt.so (2013.1, Build901 2013/11/27)

>  <Rbt.Parameter_File>
/export/apps/rDock/src/rDock_2013.1_src/data/scripts/dock_solv.prm

>  <Rbt.Receptor>
prm/pocket_docking_2.prm

>  <SCORE>
-19.2915

>  <SCORE.INTER>
-8.69581

>  <SCORE.INTER.CONST>
1

>  <SCORE.INTER.POLAR>
-1.051

>  <SCORE.INTER.ROT>
15

>  <SCORE.INTER.SOLV>
21.8841

>  <SCORE.INTER.VDW>
-23.1886

>  <SCORE.INTER.norm>
-0.167227

>  <SCORE.INTRA>
-10.9595

>  <SCORE.INTRA.DIHEDRAL>
-21.2219

>  <SCORE.INTRA.DIHEDRAL.0>
47.8724

>  <SCORE.INTRA.POLAR>
0

>  <SCORE.INTRA.POLAR.0>
0

>  <SCORE.INTRA.REPUL>
0

>  <SCORE.INTRA.REPUL.0>
0

>  <SCORE.INTRA.SOLV>
-1.32296

>  <SCORE.INTRA.SOLV.lig_0>
-115.677

>  <SCORE.INTRA.VDW>
0.312923

>  <SCORE.INTRA.VDW.0>
-7.4833

>  <SCORE.INTRA.norm>
-0.21076

>  <SCORE.RESTR>
0.363871

>  <SCORE.RESTR.CAVITY>
0.363871

>  <SCORE.RESTR.norm>
0.00699753

>  <SCORE.SYSTEM>
0

>  <SCORE.SYSTEM.CONST>
0

>  <SCORE.SYSTEM.DIHEDRAL>
0

>  <SCORE.SYSTEM.SOLV>
0

>  <SCORE.SYSTEM.norm>
0

>  <SCORE.heavy>
52

>  <SCORE.norm>
-0.370989

>  <RMSD>
1.586

$$$$
2be0_lig
 OpenBabel11021811423D
libRbt.so/2013.1/901 2013/11/27
 52 56  0  0  0  0  0  0  0  0999 V2000
   44.8215    7.7965   -7.7508 C   0  0  2  0  0  0  0  0  0  0  0  0
   45.7050    6.7574   -8.1009 O   0  0  0  0  0  0  0  0  0  0  0  0
   49.0570    4.5606   -6.2816 C   0  0  2  0  0  0  0  0  0  0  0  0
   50.2302    4.2774   -5.4083 N   0  0  0  0  0  0  0  0  0  0  0  0
   44.5935    4.4298   -5.0689 C   0  0  2  0  0  0  0  0  0  0  0  0
   43.5839    3.9388   -5.9746 O   0  0  0  0  0  0  0  0  0  0  0  0
   41.6281    6.6875   -2.5285 C   0  0  1  0  0  0  0  0  0  0  0  0
   41.2618   -0.5572   -3.7907 C   0  0  0  0  0  0  0  0  0  0  0  0
   43.6862    7.9747   -8.8394 C   0  0  2  0  0  0  0  0  0  0  0  0
   43.0049    6.6971   -9.0586 N   0  0  0  0  0  0  0  0  0  0  0  0
   49.3579    5.8623   -7.1553 C   0  0  0  0  0  0  0  0  0  0  0  0
   43.8587    4.9256   -3.8132 C   0  0  2  0  0  0  0  0  0  0  0  0
   43.6980    3.6869   -2.9903 O   0  0  0  0  0  0  0  0  0  0  0  0
   42.3999    5.8487   -1.3701 C   0  0  2  0  0  0  0  0  0  0  0  0
   41.5993    4.6230   -1.0502 N   0  0  0  0  0  0  0  0  0  0  0  0
   41.4837   -1.9653   -3.6392 C   0  0  0  0  0  0  0  0  0  0  0  0
   40.9545   -2.8678   -4.5986 N   0  0  0  0  0  0  0  0  0  0  0  0
   44.3206    8.5535  -10.1878 C   0  0  1  0  0  0  0  0  0  0  0  0
   43.2892    8.6985  -11.1517 O   0  0  0  0  0  0  0  0  0  0  0  0
   48.0867    6.2162   -8.1191 C   0  0  2  0  0  0  0  0  0  0  0  0
   48.3457    7.3845   -8.9124 N   0  0  0  0  0  0  0  0  0  0  0  0
   42.6295    5.5573   -4.4935 C   0  0  2  0  0  0  0  0  0  0  0  0
   41.5024    5.8222   -3.6714 O   0  0  0  0  0  0  0  0  0  0  0  0
   42.5314    6.7698   -0.1198 C   0  0  1  0  0  0  0  0  0  0  0  0
   43.3430    7.9229   -0.5429 O   0  0  0  0  0  0  0  0  0  0  0  0
   40.1970   -2.4433   -5.7273 C   0  0  0  0  0  0  0  0  0  0  0  0
   45.0097    9.9118   -9.8678 C   0  0  2  0  0  0  0  0  0  0  0  0
   45.6228   10.4979  -11.0842 O   0  0  0  0  0  0  0  0  0  0  0  0
   46.7922    6.4503   -7.2365 C   0  0  2  0  0  0  0  0  0  0  0  0
   42.3357    4.5932   -5.6675 C   0  0  1  0  0  0  0  0  0  0  0  0
   41.0574    7.2407    0.3818 C   0  0  2  0  0  0  0  0  0  0  0  0
   40.2403    6.0931    0.8059 O   0  0  0  0  0  0  0  0  0  0  0  0
   39.9463   -1.0638   -5.9302 C   0  0  0  0  0  0  0  0  0  0  0  0
   46.1364    9.7139   -8.7819 C   0  0  2  0  0  0  0  0  0  0  0  0
   45.4765    9.1361   -7.6219 O   0  0  0  0  0  0  0  0  0  0  0  0
   46.5482    5.1510   -6.3931 C   0  0  2  0  0  0  0  0  0  0  0  0
   45.3709    5.4662   -5.6596 O   0  0  0  0  0  0  0  0  0  0  0  0
   41.8964    5.3307   -6.9313 C   0  0  0  0  0  0  0  0  0  0  0  0
   41.8694    4.5560   -8.1062 O   0  0  0  0  0  0  0  0  0  0  0  0
   40.3166    8.0174   -0.8018 C   0  0  1  0  0  0  0  0  0  0  0  0
   40.2526    7.1049   -2.0092 O   0  0  0  0  0  0  0  0  0  0  0  0
   40.4763   -0.0812   -4.9566 C   0  0  0  0  0  0  0  0  0  0  0  0
   46.7343   11.0301   -8.5061 C   0  0  0  0  0  0  0  0  0  0  0  0
   47.4285   11.4378   -9.5759 O   0  0  0  0  0  0  0  0  0  0  0  0
   47.7875    4.8547   -5.4477 C   0  0  1  0  0  0  0  0  0  0  0  0
   47.5604    3.6957   -4.7152 O   0  0  0  0  0  0  0  0  0  0  0  0
   44.7451    2.7356   -2.5486 C   0  0  0  0  0  0  0  0  0  0  0  0
   38.9170    8.4309   -0.2710 C   0  0  0  0  0  0  0  0  0  0  0  0
   39.0375    9.4678    0.7235 N   0  0  0  0  0  0  0  0  0  0  0  0
   44.0349    1.5740   -1.8461 C   0  0  0  0  0  0  0  0  0  0  0  0
   43.3957    0.6869   -2.8714 N   0  0  0  0  0  0  0  0  0  0  0  0
   41.8735    0.4408   -2.6907 C   0  0  0  0  0  0  0  0  0  0  0  0
  1  2  1  6  0  0  0
  1  9  1  0  0  0  0
  1 35  1  0  0  0  0
  3  4  1  1  0  0  0
  3 11  1  0  0  0  0
  3 45  1  0  0  0  0
  5  6  1  0  0  0  0
  5 12  1  0  0  0  0
  5 37  1  6  0  0  0
  6 30  1  0  0  0  0
  7 14  1  0  0  0  0
  7 41  1  0  0  0  0
  7 23  1  6  0  0  0
  8 16  2  0  0  0  0
  8 42  1  0  0  0  0
  9 10  1  6  0  0  0
  9 18  1  0  0  0  0
 11 20  1  0  0  0  0
 12 13  1  1  0  0  0
 12 22  1  0  0  0  0
 13 47  1  0  0  0  0
 14 15  1  1  0  0  0
 14 24  1  0  0  0  0
 16 17  1  0  0  0  0
 17 26  2  0  0  0  0
 18 19  1  6  0  0  0
 18 27  1  0  0  0  0
 20 21  1  1  0  0  0
 20 29  1  0  0  0  0
 22 23  1  1  0  0  0
 22 30  1  0  0  0  0
 24 25  1  6  0  0  0
 24 31  1  0  0  0  0
 26 33  1  0  0  0  0
 27 28  1  6  0  0  0
 27 34  1  0  0  0  0
 29  2  1  6  0  0  0
 29 36  1  0  0  0  0
 30 38  1  6  0  0  0
 31 32  1  6  0  0  0
 31 40  1  0  0  0  0
 33 42  2  0  0  0  0
 34 35  1  0  0  0  0
 34 43  1  1  0  0  0
 36 37  1  1  0  0  0
 36 45  1  0  0  0  0
 38 39  1  0  0  0  0
 40 41  1  0  0  0  0
 40 48  1  1  0  0  0
 43 44  1  0  0  0  0
 45 46  1  6  0  0  0
 47 50  1  0  0  0  0
 48 49  1  0  0  0  0
 50 51  1  0  0  0  0
 51 52  1  0  0  0  0
 52  8  1  0  0  0  0
M  END
>  <CHROM.1>
-179.92031824,-89.54906713,-75.26166701,54.23423710,-174.76746715,58.52429059
-136.98759574,51.59585875,-69.08810981,161.63379049,70.16260539,75.61703845
-124.70858759,-177.99925682,77.72785073,43.78397417,5.45220989,-5.17344201
0.57437470,0.92979728,0.05460096

>  <Name>
2be0_lig

>  <RI>
0

>  <Rbt.Current_Directory>
/home/itssahil/PROJECTS/Mol_Feturizer/New_Systems/rnas/2be0

>  <Rbt.Executable>
rbdock ($Id: //depot/dev/client3/rdock/2013.1/src/exe/rbdock.cxx#4 $)

>  <Rbt.Library>
libRbt.so (2013.1, Build901 2013/11/27)

>  <Rbt.Parameter_File>
/export/apps/rDock/src/rDock_2013.1_src/data/scripts/dock_solv.prm

>  <Rbt.Receptor>
prm/pocket_docking_2.prm

>  <SCORE>
-19.0804

>  <SCORE.INTER>
-8.32109

>  <SCORE.INTER.CONST>
1

>  <SCORE.INTER.POLAR>
-0.790804

>  <SCORE.INTER.ROT>
15

>  <SCORE.INTER.SOLV>
14.3197

>  <SCORE.INTER.VDW>
-21.2846

>  <SCORE.INTER.norm>
-0.160021

>  <SCORE.INTRA>
-12.1105

>  <SCORE.INTRA.DIHEDRAL>
-31.4085

>  <SCORE.INTRA.DIHEDRAL.0>
47.8724

>  <SCORE.INTRA.POLAR>
0

>  <SCORE.INTRA.POLAR.0>
0

>  <SCORE.INTRA.REPUL>
0

>  <SCORE.INTRA.REPUL.0>
0

>  <SCORE.INTRA.SOLV>
3.15166

>  <SCORE.INTRA.SOLV.lig_0>
-115.677

>  <SCORE.INTRA.VDW>
2.0179

>  <SCORE.INTRA.VDW.0>
-7.4833

>  <SCORE.INTRA.norm>
-0.232895

>  <SCORE.RESTR>
1.35123

>  <SCORE.RESTR.CAVITY>
1.35123

>  <SCORE.RESTR.norm>
0.0259851

>  <SCORE.SYSTEM>
0

>  <SCORE.SYSTEM.CONST>
0

>  <SCORE.SYSTEM.DIHEDRAL>
0

>  <SCORE.SYSTEM.SOLV>
0

>  <SCORE.SYSTEM.norm>
0

>  <SCORE.heavy>
52

>  <SCORE.norm>
-0.366931

>  <RMSD>
1.649

$$$$
2be0_lig
 OpenBabel11021811423D
libRbt.so/2013.1/901 2013/11/27
 52 56  0  0  0  0  0  0  0  0999 V2000
   44.8565    7.7241   -7.3604 C   0  0  2  0  0  0  0  0  0  0  0  0
   45.7885    6.7810   -7.8344 O   0  0  0  0  0  0  0  0  0  0  0  0
   48.9174    4.3024   -5.9802 C   0  0  2  0  0  0  0  0  0  0  0  0
   50.0947    3.9351   -5.1445 N   0  0  0  0  0  0  0  0  0  0  0  0
   44.2745    5.0018   -5.0032 C   0  0  2  0  0  0  0  0  0  0  0  0
   43.0675    5.7438   -5.2732 O   0  0  0  0  0  0  0  0  0  0  0  0
   41.9475    6.6268   -1.2427 C   0  0  1  0  0  0  0  0  0  0  0  0
   41.5010   -1.1921   -5.6142 C   0  0  0  0  0  0  0  0  0  0  0  0
   43.4669    7.5807   -8.1048 C   0  0  2  0  0  0  0  0  0  0  0  0
   42.9869    6.2014   -7.9968 N   0  0  0  0  0  0  0  0  0  0  0  0
   49.3372    5.4625   -6.9933 C   0  0  0  0  0  0  0  0  0  0  0  0
   44.2070    4.5668   -3.5305 C   0  0  2  0  0  0  0  0  0  0  0  0
   43.4164    3.2979   -3.5767 O   0  0  0  0  0  0  0  0  0  0  0  0
   42.6368    8.0481   -0.8609 C   0  0  2  0  0  0  0  0  0  0  0  0
   43.6202    7.8228    0.2472 N   0  0  0  0  0  0  0  0  0  0  0  0
   41.4943   -2.6054   -5.3747 C   0  0  0  0  0  0  0  0  0  0  0  0
   40.5094   -3.4189   -5.9936 N   0  0  0  0  0  0  0  0  0  0  0  0
   43.6226    8.0424   -9.6274 C   0  0  1  0  0  0  0  0  0  0  0  0
   42.3695    7.8992  -10.2780 O   0  0  0  0  0  0  0  0  0  0  0  0
   48.0670    5.9052   -7.9209 C   0  0  2  0  0  0  0  0  0  0  0  0
   48.4322    6.9472   -8.8386 N   0  0  0  0  0  0  0  0  0  0  0  0
   43.5759    5.8407   -2.9373 C   0  0  2  0  0  0  0  0  0  0  0  0
   43.0024    5.7336   -1.6427 O   0  0  0  0  0  0  0  0  0  0  0  0
   41.5063    9.0227   -0.4122 C   0  0  1  0  0  0  0  0  0  0  0  0
   40.6164    9.1818   -1.5742 O   0  0  0  0  0  0  0  0  0  0  0  0
   39.5040   -2.8976   -6.8571 C   0  0  0  0  0  0  0  0  0  0  0  0
   44.1218    9.5164   -9.6494 C   0  0  2  0  0  0  0  0  0  0  0  0
   44.2897   10.0015  -11.0406 O   0  0  0  0  0  0  0  0  0  0  0  0
   46.8768    6.4015   -7.0007 C   0  0  2  0  0  0  0  0  0  0  0  0
   42.5758    6.2866   -4.0305 C   0  0  1  0  0  0  0  0  0  0  0  0
   40.7066    8.3992    0.8597 C   0  0  2  0  0  0  0  0  0  0  0  0
   41.5901    8.2370    2.0249 O   0  0  0  0  0  0  0  0  0  0  0  0
   39.4612   -1.5086   -7.1320 C   0  0  0  0  0  0  0  0  0  0  0  0
   45.5059    9.6389   -8.9033 C   0  0  2  0  0  0  0  0  0  0  0  0
   45.2775    9.1474   -7.5538 O   0  0  0  0  0  0  0  0  0  0  0  0
   46.5117    5.2329   -6.0209 C   0  0  2  0  0  0  0  0  0  0  0  0
   45.4390    5.7789   -5.2629 O   0  0  0  0  0  0  0  0  0  0  0  0
   42.5301    7.8049   -4.1943 C   0  0  0  0  0  0  0  0  0  0  0  0
   43.6196    8.5064   -3.6446 O   0  0  0  0  0  0  0  0  0  0  0  0
   40.0875    6.9828    0.4555 C   0  0  1  0  0  0  0  0  0  0  0  0
   41.2117    6.0846   -0.0179 O   0  0  0  0  0  0  0  0  0  0  0  0
   40.4667   -0.6164   -6.5097 C   0  0  0  0  0  0  0  0  0  0  0  0
   45.9145   11.0524   -8.9380 C   0  0  0  0  0  0  0  0  0  0  0  0
   47.1676   11.1660   -8.4805 O   0  0  0  0  0  0  0  0  0  0  0  0
   47.7572    4.8499   -5.1156 C   0  0  1  0  0  0  0  0  0  0  0  0
   47.4209    3.8069   -4.2608 O   0  0  0  0  0  0  0  0  0  0  0  0
   43.4639    2.1517   -2.6384 C   0  0  0  0  0  0  0  0  0  0  0  0
   39.3491    6.4334    1.7062 C   0  0  0  0  0  0  0  0  0  0  0  0
   40.2950    6.0089    2.7082 N   0  0  0  0  0  0  0  0  0  0  0  0
   42.2233    1.2939   -2.9077 C   0  0  0  0  0  0  0  0  0  0  0  0
   42.0869    1.0630   -4.3824 N   0  0  0  0  0  0  0  0  0  0  0  0
   42.6280   -0.2962   -4.9017 C   0  0  0  0  0  0  0  0  0  0  0  0
  1  2  1  6  0  0  0
  1  9  1  0  0  0  0
  1 35  1  0  0  0  0
  3  4  1  1  0  0  0
  3 11  1  0  0  0  0
  3 45  1  0  0  0  0
  5  6  1  0  0  0  0
  5 12  1  0  0  0  0
  5 37  1  1  0  0  0
  6 30  1  0  0  0  0
  7 14  1  0  0  0  0
  7 41  1  0  0  0  0
  7 23  1  1  0  0  0
  8 16  2  0  0  0  0
  8 42  1  0  0  0  0
  9 10  1  6  0  0  0
  9 18  1  0  0  0  0
 11 20  1  0  0  0  0
 12 13  1  6  0  0  0
 12 22  1  0  0  0  0
 13 47  1  0  0  0  0
 14 15  1  1  0  0  0
 14 24  1  0  0  0  0
 16 17  1  0  0  0  0
 17 26  2  0  0  0  0
 18 19  1  1  0  0  0
 18 27  1  0  0  0  0
 20 21  1  6  0  0  0
 20 29  1  0  0  0  0
 22 23  1  1  0  0  0
 22 30  1  0  0  0  0
 24 25  1  6  0  0  0
 24 31  1  0  0  0  0
 26 33  1  0  0  0  0
 27 28  1  6  0  0  0
 27 34  1  0  0  0  0
 29  2  1  6  0  0  0
 29 36  1  0  0  0  0
 30 38  1  6  0  0  0
 31 32  1  1  0  0  0
 31 40  1  0  0  0  0
 33 42  2  0  0  0  0
 34 35  1  0  0  0  0
 34 43  1  1  0  0  0
 36 37  1  1  0  0  0
 36 45  1  0  0  0  0
 38 39  1  0  0  0  0
 40 41  1  0  0  0  0
 40 48  1  1  0  0  0
 43 44  1  0  0  0  0
 45 46  1  1  0  0  0
 47 50  1  0  0  0  0
 48 49  1  0  0  0  0
 50 51  1  0  0  0  0
 51 52  1  0  0  0  0
 52  8  1  0  0  0  0
M  END
>  <CHROM.1>
-156.53901220,-132.53705377,-77.94321845,152.87464344,165.25654305,-154.02519810
-154.58121674,-98.96855211,-171.45122284,135.35068979,-72.26104078,47.79802067
98.31081648,120.14795178,-139.92056022,43.69752342,5.57054470,-4.80865494
0.20265462,1.01274038,0.47666506

>  <Name>
2be0_lig

>  <RI>
0

>  <Rbt.Current_Directory>
/home/itssahil/PROJECTS/Mol_Feturizer/New_Systems/rnas/2be0

>  <Rbt.Executable>
rbdock ($Id: //depot/dev/client3/rdock/2013.1/src/exe/rbdock.cxx#4 $)

>  <Rbt.Library>
libRbt.so (2013.1, Build901 2013/11/27)

>  <Rbt.Parameter_File>
/export/apps/rDock/src/rDock_2013.1_src/data/scripts/dock_solv.prm

>  <Rbt.Receptor>
prm/pocket_docking_2.prm

>  <SCORE>
-15.9833

>  <SCORE.INTER>
-11.2879

>  <SCORE.INTER.CONST>
1

>  <SCORE.INTER.POLAR>
-1.47181

>  <SCORE.INTER.ROT>
15

>  <SCORE.INTER.SOLV>
17.7395

>  <SCORE.INTER.VDW>
-22.1324

>  <SCORE.INTER.norm>
-0.217075

>  <SCORE.INTRA>
-4.8518

>  <SCORE.INTRA.DIHEDRAL>
-13.8069

>  <SCORE.INTRA.DIHEDRAL.0>
47.8724

>  <SCORE.INTRA.POLAR>
0

>  <SCORE.INTRA.POLAR.0>
0

>  <SCORE.INTRA.REPUL>
0

>  <SCORE.INTRA.REPUL.0>
0

>  <SCORE.INTRA.SOLV>
2.26944

>  <SCORE.INTRA.SOLV.lig_0>
-115.677

>  <SCORE.INTRA.VDW>
0.916953

>  <SCORE.INTRA.VDW.0>
-7.4833

>  <SCORE.INTRA.norm>
-0.0933038

>  <SCORE.RESTR>
0.156426

>  <SCORE.RESTR.CAVITY>
0.156426

>  <SCORE.RESTR.norm>
0.0030082

>  <SCORE.SYSTEM>
0

>  <SCORE.SYSTEM.CONST>
0

>  <SCORE.SYSTEM.DIHEDRAL>
0

>  <SCORE.SYSTEM.SOLV>
0

>  <SCORE.SYSTEM.norm>
0

>  <SCORE.heavy>
52

>  <SCORE.norm>
-0.30737

>  <RMSD>
1.649

$$$$
2be0_lig
 OpenBabel11021811423D
libRbt.so/2013.1/901 2013/11/27
 52 56  0  0  0  0  0  0  0  0999 V2000
   44.9568    7.6136   -7.5039 C   0  0  2  0  0  0  0  0  0  0  0  0
   45.8982    6.7681   -8.1218 O   0  0  0  0  0  0  0  0  0  0  0  0
   48.4840    3.5193   -6.6624 C   0  0  2  0  0  0  0  0  0  0  0  0
   49.5045    2.8092   -5.8415 N   0  0  0  0  0  0  0  0  0  0  0  0
   44.0921    4.3817   -5.4939 C   0  0  2  0  0  0  0  0  0  0  0  0
   42.8417    5.0823   -5.3327 O   0  0  0  0  0  0  0  0  0  0  0  0
   43.7752    5.5700   -0.8424 C   0  0  1  0  0  0  0  0  0  0  0  0
   41.8839   -2.6862   -4.3342 C   0  0  0  0  0  0  0  0  0  0  0  0
   43.5512    7.5319   -8.2274 C   0  0  2  0  0  0  0  0  0  0  0  0
   43.1081    6.1377   -8.2934 N   0  0  0  0  0  0  0  0  0  0  0  0
   49.1497    4.8131   -7.3192 C   0  0  0  0  0  0  0  0  0  0  0  0
   44.4159    3.7355   -4.1375 C   0  0  2  0  0  0  0  0  0  0  0  0
   43.6658    2.4420   -4.1786 O   0  0  0  0  0  0  0  0  0  0  0  0
   43.5450    4.8484    0.5955 C   0  0  2  0  0  0  0  0  0  0  0  0
   42.2124    4.1632    0.5813 N   0  0  0  0  0  0  0  0  0  0  0  0
   43.1431   -2.4047   -4.9588 C   0  0  0  0  0  0  0  0  0  0  0  0
   43.4969   -3.0724   -6.1604 N   0  0  0  0  0  0  0  0  0  0  0  0
   43.6540    8.1962   -9.6779 C   0  0  1  0  0  0  0  0  0  0  0  0
   42.3874    8.1061  -10.3117 O   0  0  0  0  0  0  0  0  0  0  0  0
   48.0571    5.6298   -8.2186 C   0  0  2  0  0  0  0  0  0  0  0  0
   48.6442    6.7953   -8.8170 N   0  0  0  0  0  0  0  0  0  0  0  0
   43.9340    4.8708   -3.2146 C   0  0  2  0  0  0  0  0  0  0  0  0
   43.7165    4.5442   -1.8499 O   0  0  0  0  0  0  0  0  0  0  0  0
   43.5924    5.9505    1.6966 C   0  0  1  0  0  0  0  0  0  0  0  0
   44.9400    6.5395    1.6300 O   0  0  0  0  0  0  0  0  0  0  0  0
   42.6528   -4.0290   -6.7933 C   0  0  0  0  0  0  0  0  0  0  0  0
   44.1163    9.6733   -9.5145 C   0  0  2  0  0  0  0  0  0  0  0  0
   44.2343   10.3436  -10.8321 O   0  0  0  0  0  0  0  0  0  0  0  0
   46.8297    6.0591   -7.3137 C   0  0  2  0  0  0  0  0  0  0  0  0
   42.6768    5.4099   -3.9377 C   0  0  1  0  0  0  0  0  0  0  0  0
   42.4469    7.0699    1.4130 C   0  0  2  0  0  0  0  0  0  0  0  0
   41.0971    6.4882    1.4776 O   0  0  0  0  0  0  0  0  0  0  0  0
   41.3957   -4.3472   -6.2228 C   0  0  0  0  0  0  0  0  0  0  0  0
   45.5170    9.7339   -8.7919 C   0  0  2  0  0  0  0  0  0  0  0  0
   45.3375    9.0610   -7.5152 O   0  0  0  0  0  0  0  0  0  0  0  0
   46.2209    4.7573   -6.6862 C   0  0  2  0  0  0  0  0  0  0  0  0
   45.1342    5.2557   -5.9154 O   0  0  0  0  0  0  0  0  0  0  0  0
   42.5599    6.9306   -3.8478 C   0  0  0  0  0  0  0  0  0  0  0  0
   43.6951    7.6510   -4.2644 O   0  0  0  0  0  0  0  0  0  0  0  0
   42.6826    7.7179   -0.0283 C   0  0  1  0  0  0  0  0  0  0  0  0
   42.6760    6.6091   -1.0604 O   0  0  0  0  0  0  0  0  0  0  0  0
   40.9801   -3.6782   -4.9682 C   0  0  0  0  0  0  0  0  0  0  0  0
   45.8899   11.1502   -8.6472 C   0  0  0  0  0  0  0  0  0  0  0  0
   47.2029   11.2430   -8.4019 O   0  0  0  0  0  0  0  0  0  0  0  0
   47.2986    4.0065   -5.7961 C   0  0  1  0  0  0  0  0  0  0  0  0
   46.7473    2.8506   -5.2560 O   0  0  0  0  0  0  0  0  0  0  0  0
   43.5638    1.4058   -3.1240 C   0  0  0  0  0  0  0  0  0  0  0  0
   41.5579    8.7661   -0.2474 C   0  0  0  0  0  0  0  0  0  0  0  0
   41.6836    9.8497    0.6954 N   0  0  0  0  0  0  0  0  0  0  0  0
   42.6029    0.3289   -3.6382 C   0  0  0  0  0  0  0  0  0  0  0  0
   42.5043   -0.7748   -2.6288 N   0  0  0  0  0  0  0  0  0  0  0  0
   41.5092   -1.9148   -2.9759 C   0  0  0  0  0  0  0  0  0  0  0  0
  1  2  1  6  0  0  0
  1  9  1  0  0  0  0
  1 35  1  0  0  0  0
  3  4  1  1  0  0  0
  3 11  1  0  0  0  0
  3 45  1  0  0  0  0
  5  6  1  0  0  0  0
  5 12  1  0  0  0  0
  5 37  1  1  0  0  0
  6 30  1  0  0  0  0
  7 14  1  0  0  0  0
  7 41  1  0  0  0  0
  7 23  1  6  0  0  0
  8 16  2  0  0  0  0
  8 42  1  0  0  0  0
  9 10  1  6  0  0  0
  9 18  1  0  0  0  0
 11 20  1  0  0  0  0
 12 13  1  1  0  0  0
 12 22  1  0  0  0  0
 13 47  1  0  0  0  0
 14 15  1  6  0  0  0
 14 24  1  0  0  0  0
 16 17  1  0  0  0  0
 17 26  2  0  0  0  0
 18 19  1  1  0  0  0
 18 27  1  0  0  0  0
 20 21  1  1  0  0  0
 20 29  1  0  0  0  0
 22 23  1  1  0  0  0
 22 30  1  0  0  0  0
 24 25  1  6  0  0  0
 24 31  1  0  0  0  0
 26 33  1  0  0  0  0
 27 28  1  6  0  0  0
 27 34  1  0  0  0  0
 29  2  1  6  0  0  0
 29 36  1  0  0  0  0
 30 38  1  6  0  0  0
 31 32  1  6  0  0  0
 31 40  1  0  0  0  0
 33 42  2  0  0  0  0
 34 35  1  0  0  0  0
 34 43  1  1  0  0  0
 36 37  1  1  0  0  0
 36 45  1  0  0  0  0
 38 39  1  0  0  0  0
 40 41  1  0  0  0  0
 40 48  1  6  0  0  0
 43 44  1  0  0  0  0
 45 46  1  6  0  0  0
 47 50  1  0  0  0  0
 48 49  1  0  0  0  0
 50 51  1  0  0  0  0
 51 52  1  0  0  0  0
 52  8  1  0  0  0  0
M  END
>  <CHROM.1>
-141.72310349,-151.73452379,-177.67699761,-177.93093077,176.32024638,156.03118780
-159.69372152,-63.31319386,-162.36239289,161.84083543,65.16532492,177.80092768
177.13292803,61.12068832,8.95113152,44.18851170,4.90031058,-4.80614501,-0.72389388
-1.20579821,-2.82982934

>  <Name>
2be0_lig

>  <RI>
0

>  <Rbt.Current_Directory>
/home/itssahil/PROJECTS/Mol_Feturizer/New_Systems/rnas/2be0

>  <Rbt.Executable>
rbdock ($Id: //depot/dev/client3/rdock/2013.1/src/exe/rbdock.cxx#4 $)

>  <Rbt.Library>
libRbt.so (2013.1, Build901 2013/11/27)

>  <Rbt.Parameter_File>
/export/apps/rDock/src/rDock_2013.1_src/data/scripts/dock_solv.prm

>  <Rbt.Receptor>
prm/pocket_docking_4.prm

>  <SCORE>
-31.5824

>  <SCORE.INTER>
-17.1934

>  <SCORE.INTER.CONST>
1

>  <SCORE.INTER.POLAR>
-0.959166

>  <SCORE.INTER.ROT>
15

>  <SCORE.INTER.SOLV>
20.5737

>  <SCORE.INTER.VDW>
-28.7229

>  <SCORE.INTER.norm>
-0.330642

>  <SCORE.INTRA>
-14.4485

>  <SCORE.INTRA.DIHEDRAL>
-31.1527

>  <SCORE.INTRA.DIHEDRAL.0>
47.8724

>  <SCORE.INTRA.POLAR>
0

>  <SCORE.INTRA.POLAR.0>
0

>  <SCORE.INTRA.REPUL>
0

>  <SCORE.INTRA.REPUL.0>
0

>  <SCORE.INTRA.SOLV>
-0.485759

>  <SCORE.INTRA.SOLV.lig_0>
-115.677

>  <SCORE.INTRA.VDW>
1.37073

>  <SCORE.INTRA.VDW.0>
-7.4833

>  <SCORE.INTRA.norm>
-0.277855

>  <SCORE.RESTR>
0.0594475

>  <SCORE.RESTR.CAVITY>
0.0594475

>  <SCORE.RESTR.norm>
0.00114322

>  <SCORE.SYSTEM>
0

>  <SCORE.SYSTEM.CONST>
0

>  <SCORE.SYSTEM.DIHEDRAL>
0

>  <SCORE.SYSTEM.SOLV>
0

>  <SCORE.SYSTEM.norm>
0

>  <SCORE.heavy>
52

>  <SCORE.norm>
-0.607355

>  <RMSD>
1.652

$$$$
2be0_lig
 OpenBabel11021811423D
libRbt.so/2013.1/901 2013/11/27
 52 56  0  0  0  0  0  0  0  0999 V2000
   44.9279    7.5793   -7.5571 C   0  0  2  0  0  0  0  0  0  0  0  0
   45.8884    6.7187   -8.1225 O   0  0  0  0  0  0  0  0  0  0  0  0
   49.2201    4.2643   -6.6235 C   0  0  2  0  0  0  0  0  0  0  0  0
   50.4196    3.8733   -5.8311 N   0  0  0  0  0  0  0  0  0  0  0  0
   44.5618    4.3336   -5.5903 C   0  0  2  0  0  0  0  0  0  0  0  0
   43.2787    4.8960   -5.9335 O   0  0  0  0  0  0  0  0  0  0  0  0
   42.1658    5.8230   -1.7237 C   0  0  1  0  0  0  0  0  0  0  0  0
   40.7079   -1.5790   -4.7208 C   0  0  0  0  0  0  0  0  0  0  0  0
   43.5777    7.5526   -8.3829 C   0  0  2  0  0  0  0  0  0  0  0  0
   43.1022    6.1734   -8.5108 N   0  0  0  0  0  0  0  0  0  0  0  0
   49.5378    5.6086   -7.4236 C   0  0  0  0  0  0  0  0  0  0  0  0
   44.4614    3.8586   -4.1319 C   0  0  2  0  0  0  0  0  0  0  0  0
   43.8728    2.4886   -4.2502 O   0  0  0  0  0  0  0  0  0  0  0  0
   43.0040    7.2115   -1.8285 C   0  0  2  0  0  0  0  0  0  0  0  0
   44.3052    7.0429   -1.1046 N   0  0  0  0  0  0  0  0  0  0  0  0
   41.3690   -2.5097   -5.5878 C   0  0  0  0  0  0  0  0  0  0  0  0
   40.7280   -2.9376   -6.7799 N   0  0  0  0  0  0  0  0  0  0  0  0
   43.8053    8.2414   -9.8076 C   0  0  1  0  0  0  0  0  0  0  0  0
   42.5868    8.2004  -10.5340 O   0  0  0  0  0  0  0  0  0  0  0  0
   48.2396    6.0803   -8.2965 C   0  0  2  0  0  0  0  0  0  0  0  0
   48.5133    7.2880   -9.0232 N   0  0  0  0  0  0  0  0  0  0  0  0
   43.6099    5.0112   -3.5669 C   0  0  2  0  0  0  0  0  0  0  0  0
   42.9734    4.7902   -2.3169 O   0  0  0  0  0  0  0  0  0  0  0  0
   42.1464    8.3381   -1.1769 C   0  0  1  0  0  0  0  0  0  0  0  0
   40.9108    8.4254   -1.9725 O   0  0  0  0  0  0  0  0  0  0  0  0
   39.4353   -2.4852   -7.1704 C   0  0  0  0  0  0  0  0  0  0  0  0
   44.2951    9.7009   -9.5794 C   0  0  2  0  0  0  0  0  0  0  0  0
   44.5282   10.3927  -10.8702 O   0  0  0  0  0  0  0  0  0  0  0  0
   47.0004    6.3080   -7.3362 C   0  0  2  0  0  0  0  0  0  0  0  0
   42.6299    5.3308   -4.7208 C   0  0  1  0  0  0  0  0  0  0  0  0
   41.8227    7.9650    0.3728 C   0  0  2  0  0  0  0  0  0  0  0  0
   43.0533    7.8756    1.1741 O   0  0  0  0  0  0  0  0  0  0  0  0
   38.7339   -1.5641   -6.3540 C   0  0  0  0  0  0  0  0  0  0  0  0
   45.6398    9.7067   -8.7553 C   0  0  2  0  0  0  0  0  0  0  0  0
   45.3484    9.0150   -7.5098 O   0  0  0  0  0  0  0  0  0  0  0  0
   46.7382    4.9658   -6.5689 C   0  0  2  0  0  0  0  0  0  0  0  0
   45.6127    5.2797   -5.7577 O   0  0  0  0  0  0  0  0  0  0  0  0
   42.3703    6.8293   -4.8668 C   0  0  0  0  0  0  0  0  0  0  0  0
   41.6091    7.2056   -5.9895 O   0  0  0  0  0  0  0  0  0  0  0  0
   41.0424    6.5719    0.4320 C   0  0  1  0  0  0  0  0  0  0  0  0
   41.8885    5.5180   -0.2521 O   0  0  0  0  0  0  0  0  0  0  0  0
   39.3594   -1.0875   -5.0987 C   0  0  0  0  0  0  0  0  0  0  0  0
   46.0402   11.1085   -8.5536 C   0  0  0  0  0  0  0  0  0  0  0  0
   47.3503   11.1639   -8.2829 O   0  0  0  0  0  0  0  0  0  0  0  0
   48.0064    4.5541   -5.7090 C   0  0  1  0  0  0  0  0  0  0  0  0
   47.7621    3.3585   -5.0438 O   0  0  0  0  0  0  0  0  0  0  0  0
   42.5516    2.1009   -4.7984 C   0  0  0  0  0  0  0  0  0  0  0  0
   40.7715    6.2634    1.9297 C   0  0  0  0  0  0  0  0  0  0  0  0
   40.2222    7.4189    2.5945 N   0  0  0  0  0  0  0  0  0  0  0  0
   42.5668    0.5803   -4.9846 C   0  0  0  0  0  0  0  0  0  0  0  0
   42.5936   -0.0864   -3.6424 N   0  0  0  0  0  0  0  0  0  0  0  0
   41.4575   -1.1112   -3.3793 C   0  0  0  0  0  0  0  0  0  0  0  0
  1  2  1  6  0  0  0
  1  9  1  0  0  0  0
  1 35  1  0  0  0  0
  3  4  1  1  0  0  0
  3 11  1  0  0  0  0
  3 45  1  0  0  0  0
  5  6  1  0  0  0  0
  5 12  1  0  0  0  0
  5 37  1  1  0  0  0
  6 30  1  0  0  0  0
  7 14  1  0  0  0  0
  7 41  1  0  0  0  0
  7 23  1  1  0  0  0
  8 16  2  0  0  0  0
  8 42  1  0  0  0  0
  9 10  1  6  0  0  0
  9 18  1  0  0  0  0
 11 20  1  0  0  0  0
 12 13  1  6  0  0  0
 12 22  1  0  0  0  0
 13 47  1  0  0  0  0
 14 15  1  1  0  0  0
 14 24  1  0  0  0  0
 16 17  1  0  0  0  0
 17 26  2  0  0  0  0
 18 19  1  1  0  0  0
 18 27  1  0  0  0  0
 20 21  1  1  0  0  0
 20 29  1  0  0  0  0
 22 23  1  1  0  0  0
 22 30  1  0  0  0  0
 24 25  1  6  0  0  0
 24 31  1  0  0  0  0
 26 33  1  0  0  0  0
 27 28  1  6  0  0  0
 27 34  1  0  0  0  0
 29  2  1  6  0  0  0
 29 36  1  0  0  0  0
 30 38  1  6  0  0  0
 31 32  1  1  0  0  0
 31 40  1  0  0  0  0
 33 42  2  0  0  0  0
 34 35  1  0  0  0  0
 34 43  1  1  0  0  0
 36 37  1  1  0  0  0
 36 45  1  0  0  0  0
 38 39  1  0  0  0  0
 40 41  1  0  0  0  0
 40 48  1  1  0  0  0
 43 44  1  0  0  0  0
 45 46  1  6  0  0  0
 47 50  1  0  0  0  0
 48 49  1  0  0  0  0
 50 51  1  0  0  0  0
 51 52  1  0  0  0  0
 52  8  1  0  0  0  0
M  END
>  <CHROM.1>
-161.94691298,-125.66717740,-46.30124365,-62.13749470,167.34044635,179.75744775
-149.03732790,56.84211176,-159.00681360,139.21943445,47.95596356,68.55994376
124.65282414,16.29589813,75.71353560,43.83423588,5.27060562,-5.18513146,-0.33639895
-1.00598615,-2.59913517

>  <Name>
2be0_lig

>  <RI>
0

>  <Rbt.Current_Directory>
/home/itssahil/PROJECTS/Mol_Feturizer/New_Systems/rnas/2be0

>  <Rbt.Executable>
rbdock ($Id: //depot/dev/client3/rdock/2013.1/src/exe/rbdock.cxx#4 $)

>  <Rbt.Library>
libRbt.so (2013.1, Build901 2013/11/27)

>  <Rbt.Parameter_File>
/export/apps/rDock/src/rDock_2013.1_src/data/scripts/dock_solv.prm

>  <Rbt.Receptor>
prm/pocket_docking_2.prm

>  <SCORE>
-18.7954

>  <SCORE.INTER>
-10.7673

>  <SCORE.INTER.CONST>
1

>  <SCORE.INTER.POLAR>
-1.7409

>  <SCORE.INTER.ROT>
15

>  <SCORE.INTER.SOLV>
17.8681

>  <SCORE.INTER.VDW>
-20.9313

>  <SCORE.INTER.norm>
-0.207064

>  <SCORE.INTRA>
-8.34624

>  <SCORE.INTRA.DIHEDRAL>
-22.7679

>  <SCORE.INTRA.DIHEDRAL.0>
47.8724

>  <SCORE.INTRA.POLAR>
0

>  <SCORE.INTRA.POLAR.0>
0

>  <SCORE.INTRA.REPUL>
0

>  <SCORE.INTRA.REPUL.0>
0

>  <SCORE.INTRA.SOLV>
2.14107

>  <SCORE.INTRA.SOLV.lig_0>
-115.677

>  <SCORE.INTRA.VDW>
1.96718

>  <SCORE.INTRA.VDW.0>
-7.4833

>  <SCORE.INTRA.norm>
-0.160505

>  <SCORE.RESTR>
0.318174

>  <SCORE.RESTR.CAVITY>
0.318174

>  <SCORE.RESTR.norm>
0.00611872

>  <SCORE.SYSTEM>
0

>  <SCORE.SYSTEM.CONST>
0

>  <SCORE.SYSTEM.DIHEDRAL>
0

>  <SCORE.SYSTEM.SOLV>
0

>  <SCORE.SYSTEM.norm>
0

>  <SCORE.heavy>
52

>  <SCORE.norm>
-0.36145

>  <RMSD>
1.673

$$$$
2be0_lig
 OpenBabel11021811423D
libRbt.so/2013.1/901 2013/11/27
 52 56  0  0  0  0  0  0  0  0999 V2000
   44.8632    7.5640   -7.6734 C   0  0  2  0  0  0  0  0  0  0  0  0
   45.8701    6.7260   -8.1900 O   0  0  0  0  0  0  0  0  0  0  0  0
   49.0665    4.2444   -6.4593 C   0  0  2  0  0  0  0  0  0  0  0  0
   50.2189    3.8519   -5.6006 N   0  0  0  0  0  0  0  0  0  0  0  0
   44.6991    4.3892   -5.0977 C   0  0  2  0  0  0  0  0  0  0  0  0
   43.2798    4.6081   -5.2319 O   0  0  0  0  0  0  0  0  0  0  0  0
   42.5659    6.3250   -1.3481 C   0  0  1  0  0  0  0  0  0  0  0  0
   40.8281   -0.8509   -4.5724 C   0  0  0  0  0  0  0  0  0  0  0  0
   43.5957    7.5887   -8.6214 C   0  0  2  0  0  0  0  0  0  0  0  0
   43.1308    6.2211   -8.8627 N   0  0  0  0  0  0  0  0  0  0  0  0
   49.4545    5.5516   -7.2894 C   0  0  0  0  0  0  0  0  0  0  0  0
   45.0091    4.4035   -3.5923 C   0  0  2  0  0  0  0  0  0  0  0  0
   44.7341    2.9965   -3.1654 O   0  0  0  0  0  0  0  0  0  0  0  0
   43.0278    7.4514   -0.2715 C   0  0  2  0  0  0  0  0  0  0  0  0
   43.7195    6.7700    0.8700 N   0  0  0  0  0  0  0  0  0  0  0  0
   39.4796   -0.5966   -4.9866 C   0  0  0  0  0  0  0  0  0  0  0  0
   38.9594   -1.2553   -6.1314 N   0  0  0  0  0  0  0  0  0  0  0  0
   43.9568    8.3466   -9.9819 C   0  0  1  0  0  0  0  0  0  0  0  0
   42.8112    8.3511  -10.8195 O   0  0  0  0  0  0  0  0  0  0  0  0
   48.2091    6.0242   -8.2357 C   0  0  2  0  0  0  0  0  0  0  0  0
   48.5463    7.1985   -8.9897 N   0  0  0  0  0  0  0  0  0  0  0  0
   44.0531    5.5335   -3.1656 C   0  0  2  0  0  0  0  0  0  0  0  0
   43.7524    5.6358   -1.7815 O   0  0  0  0  0  0  0  0  0  0  0  0
   41.7500    8.1978    0.2177 C   0  0  1  0  0  0  0  0  0  0  0  0
   41.1671    8.8374   -0.9733 O   0  0  0  0  0  0  0  0  0  0  0  0
   39.7200   -2.1738   -6.9099 C   0  0  0  0  0  0  0  0  0  0  0  0
   44.4269    9.7892   -9.6354 C   0  0  2  0  0  0  0  0  0  0  0  0
   44.7810   10.5434  -10.8621 O   0  0  0  0  0  0  0  0  0  0  0  0
   46.9349    6.3159   -7.3408 C   0  0  2  0  0  0  0  0  0  0  0  0
   42.8116    5.3087   -4.0613 C   0  0  1  0  0  0  0  0  0  0  0  0
   40.7097    7.1408    0.8858 C   0  0  2  0  0  0  0  0  0  0  0  0
   41.2859    6.4972    2.0768 O   0  0  0  0  0  0  0  0  0  0  0  0
   41.0584   -2.4656   -6.5484 C   0  0  0  0  0  0  0  0  0  0  0  0
   45.6890    9.7438   -8.6907 C   0  0  2  0  0  0  0  0  0  0  0  0
   45.2811    8.9923   -7.5144 O   0  0  0  0  0  0  0  0  0  0  0  0
   46.6038    5.0082   -6.5410 C   0  0  2  0  0  0  0  0  0  0  0  0
   45.4520    5.3780   -5.7928 O   0  0  0  0  0  0  0  0  0  0  0  0
   42.1957    6.6210   -4.5438 C   0  0  0  0  0  0  0  0  0  0  0  0
   41.1315    6.4913   -5.4558 O   0  0  0  0  0  0  0  0  0  0  0  0
   40.3209    6.0257   -0.1904 C   0  0  1  0  0  0  0  0  0  0  0  0
   41.5928    5.3592   -0.6727 O   0  0  0  0  0  0  0  0  0  0  0  0
   41.6483   -1.8033   -5.3619 C   0  0  0  0  0  0  0  0  0  0  0  0
   46.0724   11.1307   -8.3816 C   0  0  0  0  0  0  0  0  0  0  0  0
   45.0108   11.7907   -7.9018 O   0  0  0  0  0  0  0  0  0  0  0  0
   47.8214    4.5958   -5.6111 C   0  0  1  0  0  0  0  0  0  0  0  0
   47.5166    3.4307   -4.9175 O   0  0  0  0  0  0  0  0  0  0  0  0
   43.5039    2.1972   -3.3751 C   0  0  0  0  0  0  0  0  0  0  0  0
   39.3393    5.0430    0.5042 C   0  0  0  0  0  0  0  0  0  0  0  0
   40.0208    3.8317    0.8879 N   0  0  0  0  0  0  0  0  0  0  0  0
   43.6001    0.9697   -2.4633 C   0  0  0  0  0  0  0  0  0  0  0  0
   42.9317   -0.1972   -3.1253 N   0  0  0  0  0  0  0  0  0  0  0  0
   41.3898   -0.0926   -3.2725 C   0  0  0  0  0  0  0  0  0  0  0  0
  1  2  1  6  0  0  0
  1  9  1  0  0  0  0
  1 35  1  0  0  0  0
  3  4  1  1  0  0  0
  3 11  1  0  0  0  0
  3 45  1  0  0  0  0
  5  6  1  0  0  0  0
  5 12  1  0  0  0  0
  5 37  1  6  0  0  0
  6 30  1  0  0  0  0
  7 14  1  0  0  0  0
  7 41  1  0  0  0  0
  7 23  1  1  0  0  0
  8 16  2  0  0  0  0
  8 42  1  0  0  0  0
  9 10  1  6  0  0  0
  9 18  1  0  0  0  0
 11 20  1  0  0  0  0
 12 13  1  1  0  0  0
 12 22  1  0  0  0  0
 13 47  1  0  0  0  0
 14 15  1  1  0  0  0
 14 24  1  0  0  0  0
 16 17  1  0  0  0  0
 17 26  2  0  0  0  0
 18 19  1  6  0  0  0
 18 27  1  0  0  0  0
 20 21  1  1  0  0  0
 20 29  1  0  0  0  0
 22 23  1  1  0  0  0
 22 30  1  0  0  0  0
 24 25  1  6  0  0  0
 24 31  1  0  0  0  0
 26 33  1  0  0  0  0
 27 28  1  6  0  0  0
 27 34  1  0  0  0  0
 29  2  1  6  0  0  0
 29 36  1  0  0  0  0
 30 38  1  6  0  0  0
 31 32  1  1  0  0  0
 31 40  1  0  0  0  0
 33 42  2  0  0  0  0
 34 35  1  0  0  0  0
 34 43  1  1  0  0  0
 36 37  1  1  0  0  0
 36 45  1  0  0  0  0
 38 39  1  0  0  0  0
 40 41  1  0  0  0  0
 40 48  1  1  0  0  0
 43 44  1  0  0  0  0
 45 46  1  6  0  0  0
 47 50  1  0  0  0  0
 48 49  1  0  0  0  0
 50 51  1  0  0  0  0
 51 52  1  0  0  0  0
 52  8  1  0  0  0  0
M  END
>  <CHROM.1>
-164.68356315,-138.50097251,-126.07698641,-53.33407523,-166.34201910,-158.82825474
-152.91200287,58.53623161,53.29164279,169.37784556,-102.16508738,-146.83947720
-68.13933934,149.04426927,-166.71194746,43.77018839,5.26654396,-4.89842538
0.28376956,1.04116365,0.39940394

>  <Name>
2be0_lig

>  <RI>
0

>  <Rbt.Current_Directory>
/home/itssahil/PROJECTS/Mol_Feturizer/New_Systems/rnas/2be0

>  <Rbt.Executable>
rbdock ($Id: //depot/dev/client3/rdock/2013.1/src/exe/rbdock.cxx#4 $)

>  <Rbt.Library>
libRbt.so (2013.1, Build901 2013/11/27)

>  <Rbt.Parameter_File>
/export/apps/rDock/src/rDock_2013.1_src/data/scripts/dock_solv.prm

>  <Rbt.Receptor>
prm/pocket_docking_2.prm

>  <SCORE>
-14.618

>  <SCORE.INTER>
-8.52167

>  <SCORE.INTER.CONST>
1

>  <SCORE.INTER.POLAR>
-0.957268

>  <SCORE.INTER.ROT>
15

>  <SCORE.INTER.SOLV>
18.5572

>  <SCORE.INTER.VDW>
-22.2759

>  <SCORE.INTER.norm>
-0.163878

>  <SCORE.INTRA>
-6.65719

>  <SCORE.INTRA.DIHEDRAL>
-17.9799

>  <SCORE.INTRA.DIHEDRAL.0>
47.8724

>  <SCORE.INTRA.POLAR>
0

>  <SCORE.INTRA.POLAR.0>
0

>  <SCORE.INTRA.REPUL>
0

>  <SCORE.INTRA.REPUL.0>
0

>  <SCORE.INTRA.SOLV>
-1.48714

>  <SCORE.INTRA.SOLV.lig_0>
-115.677

>  <SCORE.INTRA.VDW>
3.07636

>  <SCORE.INTRA.VDW.0>
-7.4833

>  <SCORE.INTRA.norm>
-0.128023

>  <SCORE.RESTR>
0.560903

>  <SCORE.RESTR.CAVITY>
0.560903

>  <SCORE.RESTR.norm>
0.0107866

>  <SCORE.SYSTEM>
0

>  <SCORE.SYSTEM.CONST>
0

>  <SCORE.SYSTEM.DIHEDRAL>
0

>  <SCORE.SYSTEM.SOLV>
0

>  <SCORE.SYSTEM.norm>
0

>  <SCORE.heavy>
52

>  <SCORE.norm>
-0.281114

>  <RMSD>
1.716

$$$$
2be0_lig
 OpenBabel11021811423D
libRbt.so/2013.1/901 2013/11/27
 52 56  0  0  0  0  0  0  0  0999 V2000
   44.6910    7.6713   -7.3608 C   0  0  2  0  0  0  0  0  0  0  0  0
   45.6345    6.7426   -7.8403 O   0  0  0  0  0  0  0  0  0  0  0  0
   49.1992    4.6714   -6.2994 C   0  0  2  0  0  0  0  0  0  0  0  0
   50.4523    4.4349   -5.5293 N   0  0  0  0  0  0  0  0  0  0  0  0
   44.7527    4.4166   -4.8487 C   0  0  2  0  0  0  0  0  0  0  0  0
   43.3584    4.5999   -5.1692 O   0  0  0  0  0  0  0  0  0  0  0  0
   42.1190    6.1533   -1.2967 C   0  0  1  0  0  0  0  0  0  0  0  0
   41.2184   -1.0835   -4.0278 C   0  0  0  0  0  0  0  0  0  0  0  0
   43.3099    7.5301   -8.1213 C   0  0  2  0  0  0  0  0  0  0  0  0
   42.8389    6.1458   -8.0402 N   0  0  0  0  0  0  0  0  0  0  0  0
   49.3820    5.9704   -7.2091 C   0  0  0  0  0  0  0  0  0  0  0  0
   44.8484    4.3382   -3.3166 C   0  0  2  0  0  0  0  0  0  0  0  0
   44.5733    2.8977   -3.0224 O   0  0  0  0  0  0  0  0  0  0  0  0
   42.5580    7.7109   -1.1475 C   0  0  2  0  0  0  0  0  0  0  0  0
   43.5981    7.8162   -0.0738 N   0  0  0  0  0  0  0  0  0  0  0  0
   39.9891   -0.4459   -4.3978 C   0  0  0  0  0  0  0  0  0  0  0  0
   39.3078   -0.8601   -5.5723 N   0  0  0  0  0  0  0  0  0  0  0  0
   43.4774    8.0174   -9.6346 C   0  0  1  0  0  0  0  0  0  0  0  0
   42.2319    7.8757  -10.3000 O   0  0  0  0  0  0  0  0  0  0  0  0
   48.0213    6.2734   -8.0614 C   0  0  2  0  0  0  0  0  0  0  0  0
   48.1736    7.4388   -8.8860 N   0  0  0  0  0  0  0  0  0  0  0  0
   43.7975    5.4065   -2.9600 C   0  0  2  0  0  0  0  0  0  0  0  0
   43.3025    5.4053   -1.6290 O   0  0  0  0  0  0  0  0  0  0  0  0
   41.2873    8.5323   -0.7739 C   0  0  1  0  0  0  0  0  0  0  0  0
   40.3492    8.3708   -1.8970 O   0  0  0  0  0  0  0  0  0  0  0  0
   39.7891   -1.8954   -6.4234 C   0  0  0  0  0  0  0  0  0  0  0  0
   43.9661    9.4950   -9.6280 C   0  0  2  0  0  0  0  0  0  0  0  0
   44.1443   10.0035  -11.0095 O   0  0  0  0  0  0  0  0  0  0  0  0
   46.8019    6.4794   -7.0714 C   0  0  2  0  0  0  0  0  0  0  0  0
   42.7034    5.2047   -4.0353 C   0  0  1  0  0  0  0  0  0  0  0  0
   40.6480    7.9687    0.6116 C   0  0  2  0  0  0  0  0  0  0  0  0
   41.5803    8.1265    1.7387 O   0  0  0  0  0  0  0  0  0  0  0  0
   40.9983   -2.5628   -6.1081 C   0  0  0  0  0  0  0  0  0  0  0  0
   45.3418    9.6153   -8.8661 C   0  0  2  0  0  0  0  0  0  0  0  0
   45.1035    9.1005   -7.5270 O   0  0  0  0  0  0  0  0  0  0  0  0
   46.6730    5.1842   -6.1968 C   0  0  2  0  0  0  0  0  0  0  0  0
   45.5548    5.4730   -5.3663 O   0  0  0  0  0  0  0  0  0  0  0  0
   42.1087    6.5270   -4.5171 C   0  0  0  0  0  0  0  0  0  0  0  0
   41.0414    6.4150   -5.4278 O   0  0  0  0  0  0  0  0  0  0  0  0
   40.2765    6.4247    0.4358 C   0  0  1  0  0  0  0  0  0  0  0  0
   41.5269    5.6732    0.0279 O   0  0  0  0  0  0  0  0  0  0  0  0
   41.7477   -2.1669   -4.8932 C   0  0  0  0  0  0  0  0  0  0  0  0
   45.7404   11.0320   -8.8741 C   0  0  0  0  0  0  0  0  0  0  0  0
   47.0139   11.1394   -8.4750 O   0  0  0  0  0  0  0  0  0  0  0  0
   47.9987    4.9376   -5.3606 C   0  0  1  0  0  0  0  0  0  0  0  0
   47.8726    3.7816   -4.5994 O   0  0  0  0  0  0  0  0  0  0  0  0
   43.3562    2.1125   -3.3364 C   0  0  0  0  0  0  0  0  0  0  0  0
   39.6839    5.9407    1.7872 C   0  0  0  0  0  0  0  0  0  0  0  0
   39.4706    4.5150    1.7661 N   0  0  0  0  0  0  0  0  0  0  0  0
   42.6669    1.7935   -2.0058 C   0  0  0  0  0  0  0  0  0  0  0  0
   41.5442    0.8294   -2.2442 N   0  0  0  0  0  0  0  0  0  0  0  0
   41.9669   -0.5954   -2.6929 C   0  0  0  0  0  0  0  0  0  0  0  0
  1  2  1  6  0  0  0
  1  9  1  0  0  0  0
  1 35  1  0  0  0  0
  3  4  1  1  0  0  0
  3 11  1  0  0  0  0
  3 45  1  0  0  0  0
  5  6  1  0  0  0  0
  5 12  1  0  0  0  0
  5 37  1  1  0  0  0
  6 30  1  0  0  0  0
  7 14  1  0  0  0  0
  7 41  1  0  0  0  0
  7 23  1  1  0  0  0
  8 16  2  0  0  0  0
  8 42  1  0  0  0  0
  9 10  1  6  0  0  0
  9 18  1  0  0  0  0
 11 20  1  0  0  0  0
 12 13  1  1  0  0  0
 12 22  1  0  0  0  0
 13 47  1  0  0  0  0
 14 15  1  1  0  0  0
 14 24  1  0  0  0  0
 16 17  1  0  0  0  0
 17 26  2  0  0  0  0
 18 19  1  6  0  0  0
 18 27  1  0  0  0  0
 20 21  1  1  0  0  0
 20 29  1  0  0  0  0
 22 23  1  1  0  0  0
 22 30  1  0  0  0  0
 24 25  1  6  0  0  0
 24 31  1  0  0  0  0
 26 33  1  0  0  0  0
 27 28  1  6  0  0  0
 27 34  1  0  0  0  0
 29  2  1  6  0  0  0
 29 36  1  0  0  0  0
 30 38  1  6  0  0  0
 31 32  1  1  0  0  0
 31 40  1  0  0  0  0
 33 42  2  0  0  0  0
 34 35  1  0  0  0  0
 34 43  1  1  0  0  0
 36 37  1  1  0  0  0
 36 45  1  0  0  0  0
 38 39  1  0  0  0  0
 40 41  1  0  0  0  0
 40 48  1  1  0  0  0
 43 44  1  0  0  0  0
 45 46  1  1  0  0  0
 47 50  1  0  0  0  0
 48 49  1  0  0  0  0
 50 51  1  0  0  0  0
 51 52  1  0  0  0  0
 52  8  1  0  0  0  0
M  END
>  <CHROM.1>
-164.10701060,-125.81980503,-78.94435947,-60.12760771,-111.17845896,-165.83784430
-142.80505133,68.01494882,-167.92316409,152.93564519,-173.07740997,-171.59729230
67.43962840,-127.68459962,-20.77482371,43.66100459,5.39836973,-4.72913493
0.33047853,1.00368083,0.29545656

>  <Name>
2be0_lig

>  <RI>
0

>  <Rbt.Current_Directory>
/home/itssahil/PROJECTS/Mol_Feturizer/New_Systems/rnas/2be0

>  <Rbt.Executable>
rbdock ($Id: //depot/dev/client3/rdock/2013.1/src/exe/rbdock.cxx#4 $)

>  <Rbt.Library>
libRbt.so (2013.1, Build901 2013/11/27)

>  <Rbt.Parameter_File>
/export/apps/rDock/src/rDock_2013.1_src/data/scripts/dock_solv.prm

>  <Rbt.Receptor>
prm/pocket_docking_2.prm

>  <SCORE>
-17.6246

>  <SCORE.INTER>
-9.93424

>  <SCORE.INTER.CONST>
1

>  <SCORE.INTER.POLAR>
-0.959166

>  <SCORE.INTER.ROT>
15

>  <SCORE.INTER.SOLV>
18.5675

>  <SCORE.INTER.VDW>
-23.2148

>  <SCORE.INTER.norm>
-0.191043

>  <SCORE.INTRA>
-8.42449

>  <SCORE.INTRA.DIHEDRAL>
-18.7315

>  <SCORE.INTRA.DIHEDRAL.0>
47.8724

>  <SCORE.INTRA.POLAR>
0

>  <SCORE.INTRA.POLAR.0>
0

>  <SCORE.INTRA.REPUL>
0

>  <SCORE.INTRA.REPUL.0>
0

>  <SCORE.INTRA.SOLV>
-0.176556

>  <SCORE.INTRA.SOLV.lig_0>
-115.677

>  <SCORE.INTRA.VDW>
1.02952

>  <SCORE.INTRA.VDW.0>
-7.4833

>  <SCORE.INTRA.norm>
-0.162009

>  <SCORE.RESTR>
0.734174

>  <SCORE.RESTR.CAVITY>
0.734174

>  <SCORE.RESTR.norm>
0.0141187

>  <SCORE.SYSTEM>
0

>  <SCORE.SYSTEM.CONST>
0

>  <SCORE.SYSTEM.DIHEDRAL>
0

>  <SCORE.SYSTEM.SOLV>
0

>  <SCORE.SYSTEM.norm>
0

>  <SCORE.heavy>
52

>  <SCORE.norm>
-0.338934

>  <RMSD>
1.801

$$$$
2be0_lig
 OpenBabel11021811423D
libRbt.so/2013.1/901 2013/11/27
 52 56  0  0  0  0  0  0  0  0999 V2000
   44.8649    7.6028   -7.3098 C   0  0  2  0  0  0  0  0  0  0  0  0
   45.9081    6.8195   -7.8400 O   0  0  0  0  0  0  0  0  0  0  0  0
   48.9111    4.2146   -5.9511 C   0  0  2  0  0  0  0  0  0  0  0  0
   50.0512    3.7961   -5.0883 N   0  0  0  0  0  0  0  0  0  0  0  0
   44.4956    4.9147   -4.6809 C   0  0  2  0  0  0  0  0  0  0  0  0
   43.1488    5.3945   -4.8718 O   0  0  0  0  0  0  0  0  0  0  0  0
   42.4172    6.9109   -0.9865 C   0  0  1  0  0  0  0  0  0  0  0  0
   41.6937   -0.3302   -4.5047 C   0  0  0  0  0  0  0  0  0  0  0  0
   43.4784    7.2428   -7.9836 C   0  0  2  0  0  0  0  0  0  0  0  0
   43.2283    5.8048   -7.8649 N   0  0  0  0  0  0  0  0  0  0  0  0
   49.3928    5.3872   -6.9213 C   0  0  0  0  0  0  0  0  0  0  0  0
   44.7257    4.8328   -3.1634 C   0  0  2  0  0  0  0  0  0  0  0  0
   44.1769    3.4900   -2.7986 O   0  0  0  0  0  0  0  0  0  0  0  0
   42.8503    8.3567   -0.3838 C   0  0  2  0  0  0  0  0  0  0  0  0
   43.7571    8.1364    0.7887 N   0  0  0  0  0  0  0  0  0  0  0  0
   41.3755   -0.2307   -5.8988 C   0  0  0  0  0  0  0  0  0  0  0  0
   40.7506   -1.3221   -6.5572 N   0  0  0  0  0  0  0  0  0  0  0  0
   43.4801    7.7259   -9.5076 C   0  0  1  0  0  0  0  0  0  0  0  0
   42.2332    7.3875  -10.0947 O   0  0  0  0  0  0  0  0  0  0  0  0
   48.1647    5.8857   -7.8769 C   0  0  2  0  0  0  0  0  0  0  0  0
   48.5859    6.9394   -8.7565 N   0  0  0  0  0  0  0  0  0  0  0  0
   43.9717    6.1082   -2.7417 C   0  0  2  0  0  0  0  0  0  0  0  0
   43.6246    6.2284   -1.3700 O   0  0  0  0  0  0  0  0  0  0  0  0
   41.5522    9.1028    0.0489 C   0  0  1  0  0  0  0  0  0  0  0  0
   40.7520    9.2776   -1.1744 O   0  0  0  0  0  0  0  0  0  0  0  0
   40.4163   -2.5381   -5.8957 C   0  0  0  0  0  0  0  0  0  0  0  0
   43.7387    9.2602   -9.5405 C   0  0  2  0  0  0  0  0  0  0  0  0
   43.7556    9.7680  -10.9337 O   0  0  0  0  0  0  0  0  0  0  0  0
   46.9590    6.3913   -6.9823 C   0  0  2  0  0  0  0  0  0  0  0  0
   42.7573    6.1390   -3.7001 C   0  0  1  0  0  0  0  0  0  0  0  0
   40.7482    8.2237    1.1565 C   0  0  2  0  0  0  0  0  0  0  0  0
   41.5422    8.0444    2.3821 O   0  0  0  0  0  0  0  0  0  0  0  0
   40.7056   -2.6941   -4.5177 C   0  0  0  0  0  0  0  0  0  0  0  0
   45.1231    9.5987   -8.8648 C   0  0  2  0  0  0  0  0  0  0  0  0
   45.0455    9.0749   -7.5104 O   0  0  0  0  0  0  0  0  0  0  0  0
   46.5327    5.2095   -6.0438 C   0  0  2  0  0  0  0  0  0  0  0  0
   45.4508    5.7655   -5.3064 O   0  0  0  0  0  0  0  0  0  0  0  0
   42.4170    7.5542   -4.1642 C   0  0  0  0  0  0  0  0  0  0  0  0
   42.5348    8.5578   -3.1844 O   0  0  0  0  0  0  0  0  0  0  0  0
   40.3855    6.7952    0.5395 C   0  0  1  0  0  0  0  0  0  0  0  0
   41.6681    6.1262    0.0900 O   0  0  0  0  0  0  0  0  0  0  0  0
   41.3583   -1.5843   -3.7851 C   0  0  0  0  0  0  0  0  0  0  0  0
   45.3012   11.0590   -8.9065 C   0  0  0  0  0  0  0  0  0  0  0  0
   46.5654   11.3636   -8.5872 O   0  0  0  0  0  0  0  0  0  0  0  0
   47.7383    4.7718   -5.1099 C   0  0  1  0  0  0  0  0  0  0  0  0
   47.3480    3.7179   -4.2923 O   0  0  0  0  0  0  0  0  0  0  0  0
   42.8542    3.1667   -2.2136 C   0  0  0  0  0  0  0  0  0  0  0  0
   39.6326    5.9999    1.6406 C   0  0  0  0  0  0  0  0  0  0  0  0
   39.8206    4.5818    1.4605 N   0  0  0  0  0  0  0  0  0  0  0  0
   41.8072    3.3890   -3.3098 C   0  0  0  0  0  0  0  0  0  0  0  0
   41.9069    2.2907   -4.3249 N   0  0  0  0  0  0  0  0  0  0  0  0
   42.3993    0.9208   -3.7853 C   0  0  0  0  0  0  0  0  0  0  0  0
  1  2  1  6  0  0  0
  1  9  1  0  0  0  0
  1 35  1  0  0  0  0
  3  4  1  1  0  0  0
  3 11  1  0  0  0  0
  3 45  1  0  0  0  0
  5  6  1  0  0  0  0
  5 12  1  0  0  0  0
  5 37  1  6  0  0  0
  6 30  1  0  0  0  0
  7 14  1  0  0  0  0
  7 41  1  0  0  0  0
  7 23  1  1  0  0  0
  8 16  2  0  0  0  0
  8 42  1  0  0  0  0
  9 10  1  6  0  0  0
  9 18  1  0  0  0  0
 11 20  1  0  0  0  0
 12 13  1  1  0  0  0
 12 22  1  0  0  0  0
 13 47  1  0  0  0  0
 14 15  1  1  0  0  0
 14 24  1  0  0  0  0
 16 17  1  0  0  0  0
 17 26  2  0  0  0  0
 18 19  1  1  0  0  0
 18 27  1  0  0  0  0
 20 21  1  6  0  0  0
 20 29  1  0  0  0  0
 22 23  1  1  0  0  0
 22 30  1  0  0  0  0
 24 25  1  6  0  0  0
 24 31  1  0  0  0  0
 26 33  1  0  0  0  0
 27 28  1  6  0  0  0
 27 34  1  0  0  0  0
 29  2  1  6  0  0  0
 29 36  1  0  0  0  0
 30 38  1  6  0  0  0
 31 32  1  1  0  0  0
 31 40  1  0  0  0  0
 33 42  2  0  0  0  0
 34 35  1  0  0  0  0
 34 43  1  1  0  0  0
 36 37  1  1  0  0  0
 36 45  1  0  0  0  0
 38 39  1  0  0  0  0
 40 41  1  0  0  0  0
 40 48  1  1  0  0  0
 43 44  1  0  0  0  0
 45 46  1  1  0  0  0
 47 50  1  0  0  0  0
 48 49  1  0  0  0  0
 50 51  1  0  0  0  0
 51 52  1  0  0  0  0
 52  8  1  0  0  0  0
M  END
>  <CHROM.1>
-144.04026710,-136.83421202,-105.38534047,-99.27083838,71.54756970,-147.29104834
-164.84851791,-155.43866433,-167.89819354,158.51680348,-152.62873317,72.87582944
29.87247546,144.48815081,35.48093211,43.74111191,5.67567955,-4.55984003,0.12085726
1.04940801,0.33086353

>  <Name>
2be0_lig

>  <RI>
0

>  <Rbt.Current_Directory>
/home/itssahil/PROJECTS/Mol_Feturizer/New_Systems/rnas/2be0

>  <Rbt.Executable>
rbdock ($Id: //depot/dev/client3/rdock/2013.1/src/exe/rbdock.cxx#4 $)

>  <Rbt.Library>
libRbt.so (2013.1, Build901 2013/11/27)

>  <Rbt.Parameter_File>
/export/apps/rDock/src/rDock_2013.1_src/data/scripts/dock_solv.prm

>  <Rbt.Receptor>
prm/pocket_docking_2.prm

>  <SCORE>
-7.84793

>  <SCORE.INTER>
-10.0687

>  <SCORE.INTER.CONST>
1

>  <SCORE.INTER.POLAR>
-0.959166

>  <SCORE.INTER.ROT>
15

>  <SCORE.INTER.SOLV>
18.0045

>  <SCORE.INTER.VDW>
-23.1168

>  <SCORE.INTER.norm>
-0.19363

>  <SCORE.INTRA>
1.17634

>  <SCORE.INTRA.DIHEDRAL>
-10.6966

>  <SCORE.INTRA.DIHEDRAL.0>
47.8724

>  <SCORE.INTRA.POLAR>
0

>  <SCORE.INTRA.POLAR.0>
0

>  <SCORE.INTRA.REPUL>
0.0158226

>  <SCORE.INTRA.REPUL.0>
0

>  <SCORE.INTRA.SOLV>
1.49963

>  <SCORE.INTRA.SOLV.lig_0>
-115.677

>  <SCORE.INTRA.VDW>
5.69573

>  <SCORE.INTRA.VDW.0>
-7.4833

>  <SCORE.INTRA.norm>
0.0226218

>  <SCORE.RESTR>
1.04448

>  <SCORE.RESTR.CAVITY>
1.04448

>  <SCORE.RESTR.norm>
0.0200861

>  <SCORE.SYSTEM>
0

>  <SCORE.SYSTEM.CONST>
0

>  <SCORE.SYSTEM.DIHEDRAL>
0

>  <SCORE.SYSTEM.SOLV>
0

>  <SCORE.SYSTEM.norm>
0

>  <SCORE.heavy>
52

>  <SCORE.norm>
-0.150922

>  <RMSD>
1.914

$$$$
2be0_lig
 OpenBabel11021811423D
libRbt.so/2013.1/901 2013/11/27
 52 56  0  0  0  0  0  0  0  0999 V2000
   44.9143    7.6686   -7.6430 C   0  0  2  0  0  0  0  0  0  0  0  0
   45.9442    6.8150   -8.0828 O   0  0  0  0  0  0  0  0  0  0  0  0
   49.1421    4.5822   -6.0434 C   0  0  2  0  0  0  0  0  0  0  0  0
   50.3153    4.3126   -5.1657 N   0  0  0  0  0  0  0  0  0  0  0  0
   44.3244    5.2533   -5.5119 C   0  0  2  0  0  0  0  0  0  0  0  0
   43.2262    6.1874   -5.5548 O   0  0  0  0  0  0  0  0  0  0  0  0
   41.9224    5.8425   -1.5103 C   0  0  1  0  0  0  0  0  0  0  0  0
   41.2456   -0.5113   -3.6338 C   0  0  0  0  0  0  0  0  0  0  0  0
   43.6778    7.6312   -8.6306 C   0  0  2  0  0  0  0  0  0  0  0  0
   43.2323    6.2484   -8.8146 N   0  0  0  0  0  0  0  0  0  0  0  0
   49.5303    5.7117   -7.1026 C   0  0  0  0  0  0  0  0  0  0  0  0
   44.1146    4.3799   -4.2646 C   0  0  2  0  0  0  0  0  0  0  0  0
   43.1941    3.3025   -4.7432 O   0  0  0  0  0  0  0  0  0  0  0  0
   42.6956    7.0365   -0.7243 C   0  0  2  0  0  0  0  0  0  0  0  0
   43.6147    6.4271    0.2905 N   0  0  0  0  0  0  0  0  0  0  0  0
   40.2245    0.0235   -4.4860 C   0  0  0  0  0  0  0  0  0  0  0  0
   40.0753   -0.4786   -5.8054 N   0  0  0  0  0  0  0  0  0  0  0  0
   44.0762    8.3208  -10.0169 C   0  0  1  0  0  0  0  0  0  0  0  0
   42.9581    8.2701  -10.8894 O   0  0  0  0  0  0  0  0  0  0  0  0
   48.2630    6.0476   -8.0777 C   0  0  2  0  0  0  0  0  0  0  0  0
   48.6001    7.0611   -9.0370 N   0  0  0  0  0  0  0  0  0  0  0  0
   43.5902    5.4636   -3.3036 C   0  0  2  0  0  0  0  0  0  0  0  0
   42.9261    5.0184   -2.1301 O   0  0  0  0  0  0  0  0  0  0  0  0
   41.6205    7.9304   -0.0358 C   0  0  1  0  0  0  0  0  0  0  0  0
   40.7921    8.4843   -1.1194 O   0  0  0  0  0  0  0  0  0  0  0  0
   40.9031   -1.5056   -6.3423 C   0  0  0  0  0  0  0  0  0  0  0  0
   44.5228    9.7842   -9.7317 C   0  0  2  0  0  0  0  0  0  0  0  0
   44.9099   10.4768  -10.9845 O   0  0  0  0  0  0  0  0  0  0  0  0
   47.0292    6.5289   -7.2085 C   0  0  2  0  0  0  0  0  0  0  0  0
   42.7178    6.3586   -4.2158 C   0  0  1  0  0  0  0  0  0  0  0  0
   40.7275    7.0371    0.9890 C   0  0  2  0  0  0  0  0  0  0  0  0
   41.5491    6.4798    2.0747 O   0  0  0  0  0  0  0  0  0  0  0  0
   41.9285   -2.0733   -5.5465 C   0  0  0  0  0  0  0  0  0  0  0  0
   45.7542    9.8006   -8.7464 C   0  0  2  0  0  0  0  0  0  0  0  0
   45.3149    9.1075   -7.5459 O   0  0  0  0  0  0  0  0  0  0  0  0
   46.6966    5.3920   -6.1809 C   0  0  2  0  0  0  0  0  0  0  0  0
   45.5815    5.9209   -5.4736 O   0  0  0  0  0  0  0  0  0  0  0  0
   42.8498    7.8421   -3.8752 C   0  0  0  0  0  0  0  0  0  0  0  0
   44.1363    8.2626   -3.4886 O   0  0  0  0  0  0  0  0  0  0  0  0
   40.0254    5.8486    0.1843 C   0  0  1  0  0  0  0  0  0  0  0  0
   41.1007    5.0350   -0.5060 O   0  0  0  0  0  0  0  0  0  0  0  0
   42.1256   -1.5832   -4.1626 C   0  0  0  0  0  0  0  0  0  0  0  0
   46.1158   11.2056   -8.4985 C   0  0  0  0  0  0  0  0  0  0  0  0
   45.0774   11.8421   -7.9425 O   0  0  0  0  0  0  0  0  0  0  0  0
   47.9370    5.1133   -5.2316 C   0  0  1  0  0  0  0  0  0  0  0  0
   47.6303    4.0973   -4.3344 O   0  0  0  0  0  0  0  0  0  0  0  0
   42.3619    2.3799   -3.9353 C   0  0  0  0  0  0  0  0  0  0  0  0
   39.1995    5.0270    1.2112 C   0  0  0  0  0  0  0  0  0  0  0  0
   40.0721    4.2787    2.0816 N   0  0  0  0  0  0  0  0  0  0  0  0
   43.3165    1.4259   -3.2101 C   0  0  0  0  0  0  0  0  0  0  0  0
   42.6689    0.9339   -1.9510 N   0  0  0  0  0  0  0  0  0  0  0  0
   41.3904    0.0749   -2.1453 C   0  0  0  0  0  0  0  0  0  0  0  0
  1  2  1  6  0  0  0
  1  9  1  0  0  0  0
  1 35  1  0  0  0  0
  3  4  1  1  0  0  0
  3 11  1  0  0  0  0
  3 45  1  0  0  0  0
  5  6  1  0  0  0  0
  5 12  1  0  0  0  0
  5 37  1  1  0  0  0
  6 30  1  0  0  0  0
  7 14  1  0  0  0  0
  7 41  1  0  0  0  0
  7 23  1  1  0  0  0
  8 16  2  0  0  0  0
  8 42  1  0  0  0  0
  9 10  1  6  0  0  0
  9 18  1  0  0  0  0
 11 20  1  0  0  0  0
 12 13  1  6  0  0  0
 12 22  1  0  0  0  0
 13 47  1  0  0  0  0
 14 15  1  1  0  0  0
 14 24  1  0  0  0  0
 16 17  1  0  0  0  0
 17 26  2  0  0  0  0
 18 19  1  6  0  0  0
 18 27  1  0  0  0  0
 20 21  1  6  0  0  0
 20 29  1  0  0  0  0
 22 23  1  1  0  0  0
 22 30  1  0  0  0  0
 24 25  1  6  0  0  0
 24 31  1  0  0  0  0
 26 33  1  0  0  0  0
 27 28  1  6  0  0  0
 27 34  1  0  0  0  0
 29  2  1  6  0  0  0
 29 36  1  0  0  0  0
 30 38  1  1  0  0  0
 31 32  1  1  0  0  0
 31 40  1  0  0  0  0
 33 42  2  0  0  0  0
 34 35  1  0  0  0  0
 34 43  1  1  0  0  0
 36 37  1  1  0  0  0
 36 45  1  0  0  0  0
 38 39  1  0  0  0  0
 40 41  1  0  0  0  0
 40 48  1  1  0  0  0
 43 44  1  0  0  0  0
 45 46  1  1  0  0  0
 47 50  1  0  0  0  0
 48 49  1  0  0  0  0
 50 51  1  0  0  0  0
 51 52  1  0  0  0  0
 52  8  1  0  0  0  0
M  END
>  <CHROM.1>
-168.68193979,-142.49327213,-75.79265846,-162.51767009,-68.92062666,-152.11344302
-158.51603682,-79.51088353,60.38118308,118.15953171,-71.26612322,153.53359800
64.08058404,17.93691121,-109.28636110,43.81298155,5.51032208,-4.74994321
0.38077263,1.02840219,0.19905674

>  <Name>
2be0_lig

>  <RI>
0

>  <Rbt.Current_Directory>
/home/itssahil/PROJECTS/Mol_Feturizer/New_Systems/rnas/2be0

>  <Rbt.Executable>
rbdock ($Id: //depot/dev/client3/rdock/2013.1/src/exe/rbdock.cxx#4 $)

>  <Rbt.Library>
libRbt.so (2013.1, Build901 2013/11/27)

>  <Rbt.Parameter_File>
/export/apps/rDock/src/rDock_2013.1_src/data/scripts/dock_solv.prm

>  <Rbt.Receptor>
prm/pocket_docking_2.prm

>  <SCORE>
-16.4978

>  <SCORE.INTER>
-10.8416

>  <SCORE.INTER.CONST>
1

>  <SCORE.INTER.POLAR>
-1.47649

>  <SCORE.INTER.ROT>
15

>  <SCORE.INTER.SOLV>
21.5849

>  <SCORE.INTER.VDW>
-23.1011

>  <SCORE.INTER.norm>
-0.208492

>  <SCORE.INTRA>
-7.40307

>  <SCORE.INTRA.DIHEDRAL>
-20.9679

>  <SCORE.INTRA.DIHEDRAL.0>
47.8724

>  <SCORE.INTRA.POLAR>
0

>  <SCORE.INTRA.POLAR.0>
0

>  <SCORE.INTRA.REPUL>
0

>  <SCORE.INTRA.REPUL.0>
0

>  <SCORE.INTRA.SOLV>
0.887433

>  <SCORE.INTRA.SOLV.lig_0>
-115.677

>  <SCORE.INTRA.VDW>
2.63717

>  <SCORE.INTRA.VDW.0>
-7.4833

>  <SCORE.INTRA.norm>
-0.142367

>  <SCORE.RESTR>
1.74684

>  <SCORE.RESTR.CAVITY>
1.74684

>  <SCORE.RESTR.norm>
0.033593

>  <SCORE.SYSTEM>
0

>  <SCORE.SYSTEM.CONST>
0

>  <SCORE.SYSTEM.DIHEDRAL>
0

>  <SCORE.SYSTEM.SOLV>
0

>  <SCORE.SYSTEM.norm>
0

>  <SCORE.heavy>
52

>  <SCORE.norm>
-0.317266

>  <RMSD>
1.954

$$$$
2be0_lig
 OpenBabel11021811423D
libRbt.so/2013.1/901 2013/11/27
 52 56  0  0  0  0  0  0  0  0999 V2000
   44.7310    7.9799   -7.2726 C   0  0  2  0  0  0  0  0  0  0  0  0
   45.7531    7.0944   -7.6653 O   0  0  0  0  0  0  0  0  0  0  0  0
   47.7733    3.8746   -5.4465 C   0  0  2  0  0  0  0  0  0  0  0  0
   48.6291    3.2064   -4.4265 N   0  0  0  0  0  0  0  0  0  0  0  0
   43.3729    5.4939   -5.0847 C   0  0  2  0  0  0  0  0  0  0  0  0
   42.3216    6.4762   -4.9831 O   0  0  0  0  0  0  0  0  0  0  0  0
   41.9352    6.4768   -0.6820 C   0  0  1  0  0  0  0  0  0  0  0  0
   40.7177   -1.4796   -5.7408 C   0  0  0  0  0  0  0  0  0  0  0  0
   43.4211    7.7616   -8.1341 C   0  0  2  0  0  0  0  0  0  0  0  0
   43.0139    6.3564   -8.0692 N   0  0  0  0  0  0  0  0  0  0  0  0
   48.6502    4.9423   -6.2462 C   0  0  0  0  0  0  0  0  0  0  0  0
   43.3649    4.6989   -3.7693 C   0  0  2  0  0  0  0  0  0  0  0  0
   42.3319    3.6432   -4.0052 O   0  0  0  0  0  0  0  0  0  0  0  0
   43.0703    7.3022    0.1374 C   0  0  2  0  0  0  0  0  0  0  0  0
   43.8585    6.3374    0.9702 N   0  0  0  0  0  0  0  0  0  0  0  0
   41.9550   -1.9487   -5.1894 C   0  0  0  0  0  0  0  0  0  0  0  0
   42.5111   -3.1712   -5.6490 N   0  0  0  0  0  0  0  0  0  0  0  0
   43.6805    8.2404   -9.6372 C   0  0  1  0  0  0  0  0  0  0  0  0
   42.4983    8.0295  -10.3935 O   0  0  0  0  0  0  0  0  0  0  0  0
   47.7427    5.7093   -7.3678 C   0  0  2  0  0  0  0  0  0  0  0  0
   48.5209    6.6714   -8.0960 N   0  0  0  0  0  0  0  0  0  0  0  0
   43.0686    5.8559   -2.7965 C   0  0  2  0  0  0  0  0  0  0  0  0
   42.6168    5.5060   -1.4965 O   0  0  0  0  0  0  0  0  0  0  0  0
   42.3452    8.3495    1.0355 C   0  0  1  0  0  0  0  0  0  0  0  0
   41.6229    9.2465    0.1184 O   0  0  0  0  0  0  0  0  0  0  0  0
   41.8938   -3.9766   -6.6482 C   0  0  0  0  0  0  0  0  0  0  0  0
   44.0940    9.7407   -9.6146 C   0  0  2  0  0  0  0  0  0  0  0  0
   44.3528   10.2427  -10.9858 O   0  0  0  0  0  0  0  0  0  0  0  0
   46.5221    6.4356   -6.6663 C   0  0  2  0  0  0  0  0  0  0  0  0
   42.0767    6.7423   -3.5868 C   0  0  1  0  0  0  0  0  0  0  0  0
   41.3207    7.5976    2.0507 C   0  0  2  0  0  0  0  0  0  0  0  0
   42.0358    6.6989    2.9702 O   0  0  0  0  0  0  0  0  0  0  0  0
   40.6701   -3.5636   -7.2305 C   0  0  0  0  0  0  0  0  0  0  0  0
   45.3995    9.9378   -8.7518 C   0  0  2  0  0  0  0  0  0  0  0  0
   45.0845    9.4260   -7.4275 O   0  0  0  0  0  0  0  0  0  0  0  0
   45.7024    5.3481   -5.8888 C   0  0  2  0  0  0  0  0  0  0  0  0
   44.6396    6.1012   -5.3174 O   0  0  0  0  0  0  0  0  0  0  0  0
   42.3251    8.2337   -3.3671 C   0  0  0  0  0  0  0  0  0  0  0  0
   43.6744    8.6334   -3.3947 O   0  0  0  0  0  0  0  0  0  0  0  0
   40.2538    6.7608    1.2055 C   0  0  1  0  0  0  0  0  0  0  0  0
   41.0014    5.7904    0.3144 O   0  0  0  0  0  0  0  0  0  0  0  0
   40.0482   -2.2953   -6.7845 C   0  0  0  0  0  0  0  0  0  0  0  0
   45.7275   11.3725   -8.7499 C   0  0  0  0  0  0  0  0  0  0  0  0
   47.0235   11.5335   -8.4547 O   0  0  0  0  0  0  0  0  0  0  0  0
   46.6045    4.6456   -4.7887 C   0  0  1  0  0  0  0  0  0  0  0  0
   45.8673    3.6783   -4.1161 O   0  0  0  0  0  0  0  0  0  0  0  0
   41.8294    2.6218   -3.0562 C   0  0  0  0  0  0  0  0  0  0  0  0
   39.3138    6.0591    2.2232 C   0  0  0  0  0  0  0  0  0  0  0  0
   38.5315    7.0314    2.9452 N   0  0  0  0  0  0  0  0  0  0  0  0
   40.6153    1.9540   -3.7100 C   0  0  0  0  0  0  0  0  0  0  0  0
   40.9537    0.5362   -4.0594 N   0  0  0  0  0  0  0  0  0  0  0  0
   40.1126   -0.0923   -5.2028 C   0  0  0  0  0  0  0  0  0  0  0  0
  1  2  1  6  0  0  0
  1  9  1  0  0  0  0
  1 35  1  0  0  0  0
  3  4  1  1  0  0  0
  3 11  1  0  0  0  0
  3 45  1  0  0  0  0
  5  6  1  0  0  0  0
  5 12  1  0  0  0  0
  5 37  1  1  0  0  0
  6 30  1  0  0  0  0
  7 14  1  0  0  0  0
  7 41  1  0  0  0  0
  7 23  1  6  0  0  0
  8 16  2  0  0  0  0
  8 42  1  0  0  0  0
  9 10  1  6  0  0  0
  9 18  1  0  0  0  0
 11 20  1  0  0  0  0
 12 13  1  6  0  0  0
 12 22  1  0  0  0  0
 13 47  1  0  0  0  0
 14 15  1  1  0  0  0
 14 24  1  0  0  0  0
 16 17  1  0  0  0  0
 17 26  2  0  0  0  0
 18 19  1  6  0  0  0
 18 27  1  0  0  0  0
 20 21  1  1  0  0  0
 20 29  1  0  0  0  0
 22 23  1  1  0  0  0
 22 30  1  0  0  0  0
 24 25  1  6  0  0  0
 24 31  1  0  0  0  0
 26 33  1  0  0  0  0
 27 28  1  6  0  0  0
 27 34  1  0  0  0  0
 29  2  1  6  0  0  0
 29 36  1  0  0  0  0
 30 38  1  6  0  0  0
 31 32  1  1  0  0  0
 31 40  1  0  0  0  0
 33 42  2  0  0  0  0
 34 35  1  0  0  0  0
 34 43  1  1  0  0  0
 36 37  1  1  0  0  0
 36 45  1  0  0  0  0
 38 39  1  0  0  0  0
 40 41  1  0  0  0  0
 40 48  1  1  0  0  0
 43 44  1  0  0  0  0
 45 46  1  6  0  0  0
 47 50  1  0  0  0  0
 48 49  1  0  0  0  0
 50 51  1  0  0  0  0
 51 52  1  0  0  0  0
 52  8  1  0  0  0  0
M  END
>  <CHROM.1>
-136.37734096,-158.61288129,-87.55388174,-176.17593769,170.23059277,-160.73936971
-170.35666206,-72.82803333,-158.43524854,150.07526765,66.32248904,111.33210121
-155.90745353,167.71721464,-3.06931095,43.41940159,5.48213287,-4.52946519
0.15259690,1.09633501,0.54154951

>  <Name>
2be0_lig

>  <RI>
2.10017e+07

>  <Rbt.Current_Directory>
/home/itssahil/PROJECTS/Mol_Feturizer/New_Systems/rnas/2be0

>  <Rbt.Executable>
rbdock ($Id: //depot/dev/client3/rdock/2013.1/src/exe/rbdock.cxx#4 $)

>  <Rbt.Library>
libRbt.so (2013.1, Build901 2013/11/27)

>  <Rbt.Parameter_File>
/export/apps/rDock/src/rDock_2013.1_src/data/scripts/dock_solv.prm

>  <Rbt.Receptor>
prm/pocket_docking_3.prm

>  <SCORE>
-22.2082

>  <SCORE.INTER>
-12.9842

>  <SCORE.INTER.CONST>
1

>  <SCORE.INTER.POLAR>
-1.62141

>  <SCORE.INTER.ROT>
15

>  <SCORE.INTER.SOLV>
22.7899

>  <SCORE.INTER.VDW>
-24.4481

>  <SCORE.INTER.norm>
-0.249696

>  <SCORE.INTRA>
-9.23523

>  <SCORE.INTRA.DIHEDRAL>
-21.3545

>  <SCORE.INTRA.DIHEDRAL.0>
47.8724

>  <SCORE.INTRA.POLAR>
0

>  <SCORE.INTRA.POLAR.0>
0

>  <SCORE.INTRA.REPUL>
0

>  <SCORE.INTRA.REPUL.0>
0

>  <SCORE.INTRA.SOLV>
-0.626049

>  <SCORE.INTRA.SOLV.lig_0>
-115.677

>  <SCORE.INTRA.VDW>
1.75503

>  <SCORE.INTRA.VDW.0>
-7.4833

>  <SCORE.INTRA.norm>
-0.177601

>  <SCORE.RESTR>
0.0112555

>  <SCORE.RESTR.CAVITY>
0.0112555

>  <SCORE.RESTR.norm>
0.000216452

>  <SCORE.SYSTEM>
0

>  <SCORE.SYSTEM.CONST>
0

>  <SCORE.SYSTEM.DIHEDRAL>
0

>  <SCORE.SYSTEM.SOLV>
0

>  <SCORE.SYSTEM.norm>
0

>  <SCORE.heavy>
52

>  <SCORE.norm>
-0.42708

>  <RMSD>
1.964

$$$$
2be0_lig
 OpenBabel11021811423D
libRbt.so/2013.1/901 2013/11/27
 52 56  0  0  0  0  0  0  0  0999 V2000
   44.6725    7.5319   -7.6874 C   0  0  2  0  0  0  0  0  0  0  0  0
   45.7895    6.7890   -8.1153 O   0  0  0  0  0  0  0  0  0  0  0  0
   48.5190    4.1438   -5.8964 C   0  0  2  0  0  0  0  0  0  0  0  0
   49.5596    3.7131   -4.9211 N   0  0  0  0  0  0  0  0  0  0  0  0
   44.1896    5.0350   -4.8010 C   0  0  2  0  0  0  0  0  0  0  0  0
   42.8086    5.2259   -5.1708 O   0  0  0  0  0  0  0  0  0  0  0  0
   42.3506    6.1444   -1.1035 C   0  0  1  0  0  0  0  0  0  0  0  0
   42.1615   -0.8492   -4.3309 C   0  0  0  0  0  0  0  0  0  0  0  0
   43.5053    7.4786   -8.7554 C   0  0  2  0  0  0  0  0  0  0  0  0
   43.1787    6.0847   -9.0634 N   0  0  0  0  0  0  0  0  0  0  0  0
   49.1261    5.2780   -6.8416 C   0  0  0  0  0  0  0  0  0  0  0  0
   44.3091    5.4243   -3.3189 C   0  0  2  0  0  0  0  0  0  0  0  0
   43.9244    4.1724   -2.5965 O   0  0  0  0  0  0  0  0  0  0  0  0
   40.9140    5.6470   -1.6780 C   0  0  2  0  0  0  0  0  0  0  0  0
   40.0224    6.8405   -1.8408 N   0  0  0  0  0  0  0  0  0  0  0  0
   42.1326   -2.2756   -4.1918 C   0  0  0  0  0  0  0  0  0  0  0  0
   40.9383   -2.9863   -4.4808 N   0  0  0  0  0  0  0  0  0  0  0  0
   43.9341    8.2952  -10.0612 C   0  0  1  0  0  0  0  0  0  0  0  0
   42.8787    8.2288  -11.0077 O   0  0  0  0  0  0  0  0  0  0  0  0
   48.0093    5.7890   -7.9192 C   0  0  2  0  0  0  0  0  0  0  0  0
   48.5438    6.8084   -8.7774 N   0  0  0  0  0  0  0  0  0  0  0  0
   43.3553    6.6339   -3.3154 C   0  0  2  0  0  0  0  0  0  0  0  0
   42.8885    7.0835   -2.0519 O   0  0  0  0  0  0  0  0  0  0  0  0
   40.3124    4.6385   -0.6533 C   0  0  1  0  0  0  0  0  0  0  0  0
   41.2551    3.5096   -0.5867 O   0  0  0  0  0  0  0  0  0  0  0  0
   39.7399   -2.3470   -4.9090 C   0  0  0  0  0  0  0  0  0  0  0  0
   44.2494    9.7618   -9.6469 C   0  0  2  0  0  0  0  0  0  0  0  0
   44.6586   10.5708  -10.8204 O   0  0  0  0  0  0  0  0  0  0  0  0
   46.7415    6.3511   -7.1534 C   0  0  2  0  0  0  0  0  0  0  0  0
   42.2273    6.2025   -4.2826 C   0  0  1  0  0  0  0  0  0  0  0  0
   40.1470    5.3527    0.7987 C   0  0  2  0  0  0  0  0  0  0  0  0
   39.2064    6.4823    0.7396 O   0  0  0  0  0  0  0  0  0  0  0  0
   39.7086   -0.9393   -5.0656 C   0  0  0  0  0  0  0  0  0  0  0  0
   45.4133    9.7941   -8.5830 C   0  0  2  0  0  0  0  0  0  0  0  0
   44.9554    8.9847   -7.4649 O   0  0  0  0  0  0  0  0  0  0  0  0
   46.1923    5.2054   -6.2344 C   0  0  2  0  0  0  0  0  0  0  0  0
   45.0640    5.8104   -5.6144 O   0  0  0  0  0  0  0  0  0  0  0  0
   41.7319    7.3569   -5.1522 C   0  0  0  0  0  0  0  0  0  0  0  0
   40.3735    7.6917   -4.9981 O   0  0  0  0  0  0  0  0  0  0  0  0
   41.5728    5.8685    1.3025 C   0  0  1  0  0  0  0  0  0  0  0  0
   42.1409    6.8068    0.2577 O   0  0  0  0  0  0  0  0  0  0  0  0
   40.9292   -0.1517   -4.7757 C   0  0  0  0  0  0  0  0  0  0  0  0
   45.6508   11.1992   -8.2154 C   0  0  0  0  0  0  0  0  0  0  0  0
   46.3676   11.7966   -9.1756 O   0  0  0  0  0  0  0  0  0  0  0  0
   47.2907    4.7552   -5.1817 C   0  0  1  0  0  0  0  0  0  0  0  0
   46.7927    3.7333   -4.3823 O   0  0  0  0  0  0  0  0  0  0  0  0
   44.2989    2.7749   -2.9177 C   0  0  0  0  0  0  0  0  0  0  0  0
   41.3516    6.5480    2.6813 C   0  0  0  0  0  0  0  0  0  0  0  0
   40.6271    7.7849    2.5270 N   0  0  0  0  0  0  0  0  0  0  0  0
   43.2183    1.8675   -2.3207 C   0  0  0  0  0  0  0  0  0  0  0  0
   43.5987    0.4332   -2.5319 N   0  0  0  0  0  0  0  0  0  0  0  0
   43.5270   -0.0712   -3.9984 C   0  0  0  0  0  0  0  0  0  0  0  0
  1  2  1  6  0  0  0
  1  9  1  0  0  0  0
  1 35  1  0  0  0  0
  3  4  1  1  0  0  0
  3 11  1  0  0  0  0
  3 45  1  0  0  0  0
  5  6  1  0  0  0  0
  5 12  1  0  0  0  0
  5 37  1  6  0  0  0
  6 30  1  0  0  0  0
  7 14  1  0  0  0  0
  7 41  1  0  0  0  0
  7 23  1  6  0  0  0
  8 16  2  0  0  0  0
  8 42  1  0  0  0  0
  9 10  1  6  0  0  0
  9 18  1  0  0  0  0
 11 20  1  0  0  0  0
 12 13  1  1  0  0  0
 12 22  1  0  0  0  0
 13 47  1  0  0  0  0
 14 15  1  1  0  0  0
 14 24  1  0  0  0  0
 16 17  1  0  0  0  0
 17 26  2  0  0  0  0
 18 19  1  6  0  0  0
 18 27  1  0  0  0  0
 20 21  1  1  0  0  0
 20 29  1  0  0  0  0
 22 23  1  1  0  0  0
 22 30  1  0  0  0  0
 24 25  1  1  0  0  0
 24 31  1  0  0  0  0
 26 33  1  0  0  0  0
 27 28  1  6  0  0  0
 27 34  1  0  0  0  0
 29  2  1  6  0  0  0
 29 36  1  0  0  0  0
 30 38  1  6  0  0  0
 31 32  1  6  0  0  0
 31 40  1  0  0  0  0
 33 42  2  0  0  0  0
 34 35  1  0  0  0  0
 34 43  1  1  0  0  0
 36 37  1  1  0  0  0
 36 45  1  0  0  0  0
 38 39  1  0  0  0  0
 40 41  1  0  0  0  0
 40 48  1  1  0  0  0
 43 44  1  0  0  0  0
 45 46  1  1  0  0  0
 47 50  1  0  0  0  0
 48 49  1  0  0  0  0
 50 51  1  0  0  0  0
 51 52  1  0  0  0  0
 52  8  1  0  0  0  0
M  END
>  <CHROM.1>
-159.61050211,-130.17589543,-70.88886691,41.34344264,-155.45091349,-48.75112771
-169.52579097,124.72715879,-78.30779616,173.00497391,-69.81176174,-175.98248517
-70.28135596,-97.43501079,-93.17642298,43.60092460,5.35823480,-4.70597593
0.59073787,1.01809087,-0.00520147

>  <Name>
2be0_lig

>  <RI>
0

>  <Rbt.Current_Directory>
/home/itssahil/PROJECTS/Mol_Feturizer/New_Systems/rnas/2be0

>  <Rbt.Executable>
rbdock ($Id: //depot/dev/client3/rdock/2013.1/src/exe/rbdock.cxx#4 $)

>  <Rbt.Library>
libRbt.so (2013.1, Build901 2013/11/27)

>  <Rbt.Parameter_File>
/export/apps/rDock/src/rDock_2013.1_src/data/scripts/dock_solv.prm

>  <Rbt.Receptor>
prm/pocket_docking_2.prm

>  <SCORE>
-19.0105

>  <SCORE.INTER>
-11.2333

>  <SCORE.INTER.CONST>
1

>  <SCORE.INTER.POLAR>
-0.946372

>  <SCORE.INTER.ROT>
15

>  <SCORE.INTER.SOLV>
17.3005

>  <SCORE.INTER.VDW>
-23.7011

>  <SCORE.INTER.norm>
-0.216024

>  <SCORE.INTRA>
-9.30547

>  <SCORE.INTRA.DIHEDRAL>
-24.6052

>  <SCORE.INTRA.DIHEDRAL.0>
47.8724

>  <SCORE.INTRA.POLAR>
0

>  <SCORE.INTRA.POLAR.0>
0

>  <SCORE.INTRA.REPUL>
0

>  <SCORE.INTRA.REPUL.0>
0

>  <SCORE.INTRA.SOLV>
1.03045

>  <SCORE.INTRA.SOLV.lig_0>
-115.677

>  <SCORE.INTRA.VDW>
2.48191

>  <SCORE.INTRA.VDW.0>
-7.4833

>  <SCORE.INTRA.norm>
-0.178951

>  <SCORE.RESTR>
1.52823

>  <SCORE.RESTR.CAVITY>
1.52823

>  <SCORE.RESTR.norm>
0.029389

>  <SCORE.SYSTEM>
0

>  <SCORE.SYSTEM.CONST>
0

>  <SCORE.SYSTEM.DIHEDRAL>
0

>  <SCORE.SYSTEM.SOLV>
0

>  <SCORE.SYSTEM.norm>
0

>  <SCORE.heavy>
52

>  <SCORE.norm>
-0.365586

>  <RMSD>
2.010

$$$$
2be0_lig
 OpenBabel11021811423D
libRbt.so/2013.1/901 2013/11/27
 52 56  0  0  0  0  0  0  0  0999 V2000
   43.3433    5.2452   -7.6777 C   0  0  2  0  0  0  0  0  0  0  0  0
   44.6080    4.6589   -7.8765 O   0  0  0  0  0  0  0  0  0  0  0  0
   47.7915    3.4221   -5.1003 C   0  0  2  0  0  0  0  0  0  0  0  0
   48.8390    3.5188   -4.0454 N   0  0  0  0  0  0  0  0  0  0  0  0
   43.2851    3.2360   -4.3235 C   0  0  2  0  0  0  0  0  0  0  0  0
   41.8795    3.5586   -4.3013 O   0  0  0  0  0  0  0  0  0  0  0  0
   42.4166    6.2083   -0.6482 C   0  0  1  0  0  0  0  0  0  0  0  0
   40.5090   -1.0151   -6.0537 C   0  0  0  0  0  0  0  0  0  0  0  0
   43.0268    6.3186   -8.7972 C   0  0  2  0  0  0  0  0  0  0  0  0
   43.1712    5.7106  -10.1216 N   0  0  0  0  0  0  0  0  0  0  0  0
   48.1320    4.4525   -6.2710 C   0  0  0  0  0  0  0  0  0  0  0  0
   43.7985    3.3932   -2.8833 C   0  0  2  0  0  0  0  0  0  0  0  0
   43.4873    2.0719   -2.2551 O   0  0  0  0  0  0  0  0  0  0  0  0
   43.5093    6.7884    0.4058 C   0  0  2  0  0  0  0  0  0  0  0  0
   43.6382    5.8226    1.5443 N   0  0  0  0  0  0  0  0  0  0  0  0
   40.0587   -2.3734   -5.9682 C   0  0  0  0  0  0  0  0  0  0  0  0
   38.7316   -2.6998   -6.3519 N   0  0  0  0  0  0  0  0  0  0  0  0
   43.9842    7.5856   -8.6130 C   0  0  1  0  0  0  0  0  0  0  0  0
   43.6900    8.5313   -9.6294 O   0  0  0  0  0  0  0  0  0  0  0  0
   46.9966    4.3877   -7.4443 C   0  0  2  0  0  0  0  0  0  0  0  0
   47.2927    5.3089   -8.5050 N   0  0  0  0  0  0  0  0  0  0  0  0
   42.9909    4.6415   -2.4803 C   0  0  2  0  0  0  0  0  0  0  0  0
   42.8905    4.9243   -1.0923 O   0  0  0  0  0  0  0  0  0  0  0  0
   43.0020    8.1744    0.9063 C   0  0  1  0  0  0  0  0  0  0  0  0
   42.9298    9.0390   -0.2831 O   0  0  0  0  0  0  0  0  0  0  0  0
   37.8012   -1.7314   -6.8258 C   0  0  0  0  0  0  0  0  0  0  0  0
   43.7578    8.1748   -7.1904 C   0  0  2  0  0  0  0  0  0  0  0  0
   44.6250    9.3551   -6.9582 O   0  0  0  0  0  0  0  0  0  0  0  0
   45.5734    4.7211   -6.8336 C   0  0  2  0  0  0  0  0  0  0  0  0
   41.6258    4.4240   -3.1755 C   0  0  1  0  0  0  0  0  0  0  0  0
   41.5422    8.0132    1.6055 C   0  0  2  0  0  0  0  0  0  0  0  0
   41.6066    7.1499    2.7949 O   0  0  0  0  0  0  0  0  0  0  0  0
   38.1896   -0.3732   -6.9329 C   0  0  0  0  0  0  0  0  0  0  0  0
   44.0776    7.0913   -6.0897 C   0  0  2  0  0  0  0  0  0  0  0  0
   43.2031    5.9642   -6.3724 O   0  0  0  0  0  0  0  0  0  0  0  0
   45.2934    3.6906   -5.6854 C   0  0  2  0  0  0  0  0  0  0  0  0
   44.0026    4.0722   -5.2254 O   0  0  0  0  0  0  0  0  0  0  0  0
   41.0425    5.7213   -3.7331 C   0  0  0  0  0  0  0  0  0  0  0  0
   39.9303    5.5695   -4.5823 O   0  0  0  0  0  0  0  0  0  0  0  0
   40.5132    7.3959    0.5505 C   0  0  1  0  0  0  0  0  0  0  0  0
   41.0666    6.0754    0.0558 O   0  0  0  0  0  0  0  0  0  0  0  0
   39.5641    0.0191   -6.5440 C   0  0  0  0  0  0  0  0  0  0  0  0
   43.8256    7.6973   -4.7724 C   0  0  0  0  0  0  0  0  0  0  0  0
   44.7039    7.2152   -3.8842 O   0  0  0  0  0  0  0  0  0  0  0  0
   46.3963    3.8019   -4.5502 C   0  0  1  0  0  0  0  0  0  0  0  0
   46.1401    2.8760   -3.5459 O   0  0  0  0  0  0  0  0  0  0  0  0
   43.6136    0.7201   -2.8494 C   0  0  0  0  0  0  0  0  0  0  0  0
   39.1464    7.2551    1.2742 C   0  0  0  0  0  0  0  0  0  0  0  0
   39.2667    6.3910    2.4220 N   0  0  0  0  0  0  0  0  0  0  0  0
   42.2007    0.2499   -3.2102 C   0  0  0  0  0  0  0  0  0  0  0  0
   42.2875   -0.9459   -4.1098 N   0  0  0  0  0  0  0  0  0  0  0  0
   42.0161   -0.6750   -5.6142 C   0  0  0  0  0  0  0  0  0  0  0  0
  1  2  1  6  0  0  0
  1  9  1  0  0  0  0
  1 35  1  0  0  0  0
  3  4  1  1  0  0  0
  3 11  1  0  0  0  0
  3 45  1  0  0  0  0
  5  6  1  0  0  0  0
  5 12  1  0  0  0  0
  5 37  1  6  0  0  0
  6 30  1  0  0  0  0
  7 14  1  0  0  0  0
  7 41  1  0  0  0  0
  7 23  1  1  0  0  0
  8 16  2  0  0  0  0
  8 42  1  0  0  0  0
  9 10  1  6  0  0  0
  9 18  1  0  0  0  0
 11 20  1  0  0  0  0
 12 13  1  1  0  0  0
 12 22  1  0  0  0  0
 13 47  1  0  0  0  0
 14 15  1  1  0  0  0
 14 24  1  0  0  0  0
 16 17  1  0  0  0  0
 17 26  2  0  0  0  0
 18 19  1  6  0  0  0
 18 27  1  0  0  0  0
 20 21  1  6  0  0  0
 20 29  1  0  0  0  0
 22 23  1  1  0  0  0
 22 30  1  0  0  0  0
 24 25  1  6  0  0  0
 24 31  1  0  0  0  0
 26 33  1  0  0  0  0
 27 28  1  1  0  0  0
 27 34  1  0  0  0  0
 29  2  1  6  0  0  0
 29 36  1  0  0  0  0
 30 38  1  6  0  0  0
 31 32  1  1  0  0  0
 31 40  1  0  0  0  0
 33 42  2  0  0  0  0
 34 35  1  0  0  0  0
 34 43  1  1  0  0  0
 36 37  1  1  0  0  0
 36 45  1  0  0  0  0
 38 39  1  0  0  0  0
 40 41  1  0  0  0  0
 40 48  1  1  0  0  0
 43 44  1  0  0  0  0
 45 46  1  1  0  0  0
 47 50  1  0  0  0  0
 48 49  1  0  0  0  0
 50 51  1  0  0  0  0
 51 52  1  0  0  0  0
 52  8  1  0  0  0  0
M  END
>  <CHROM.1>
123.39555256,-161.97493853,-127.98644804,39.91728106,-103.94980399,166.29269217
-163.57204457,52.78872305,-145.66598422,169.43543203,-59.70528787,166.20379044
-103.04866324,-97.57001734,-63.83874795,43.03433476,4.50504623,-4.15848919
-1.41128059,0.92557119,0.85816569

>  <Name>
2be0_lig

>  <RI>
0

>  <Rbt.Current_Directory>
/home/itssahil/PROJECTS/Mol_Feturizer/New_Systems/rnas/2be0

>  <Rbt.Executable>
rbdock ($Id: //depot/dev/client3/rdock/2013.1/src/exe/rbdock.cxx#4 $)

>  <Rbt.Library>
libRbt.so (2013.1, Build901 2013/11/27)

>  <Rbt.Parameter_File>
/export/apps/rDock/src/rDock_2013.1_src/data/scripts/dock_solv.prm

>  <Rbt.Receptor>
prm/pocket_docking_2.prm

>  <SCORE>
0.32465

>  <SCORE.INTER>
0.719736

>  <SCORE.INTER.CONST>
1

>  <SCORE.INTER.POLAR>
-1.03134

>  <SCORE.INTER.ROT>
15

>  <SCORE.INTER.SOLV>
16.2075

>  <SCORE.INTER.VDW>
-15.0849

>  <SCORE.INTER.norm>
0.0138411

>  <SCORE.INTRA>
-3.03362

>  <SCORE.INTRA.DIHEDRAL>
-15.0135

>  <SCORE.INTRA.DIHEDRAL.0>
47.8724

>  <SCORE.INTRA.POLAR>
0

>  <SCORE.INTRA.POLAR.0>
0

>  <SCORE.INTRA.REPUL>
0

>  <SCORE.INTRA.REPUL.0>
0

>  <SCORE.INTRA.SOLV>
-0.363415

>  <SCORE.INTRA.SOLV.lig_0>
-115.677

>  <SCORE.INTRA.VDW>
4.65485

>  <SCORE.INTRA.VDW.0>
-7.4833

>  <SCORE.INTRA.norm>
-0.0583389

>  <SCORE.RESTR>
2.63853

>  <SCORE.RESTR.CAVITY>
2.63853

>  <SCORE.RESTR.norm>
0.0507411

>  <SCORE.SYSTEM>
0

>  <SCORE.SYSTEM.CONST>
0

>  <SCORE.SYSTEM.DIHEDRAL>
0

>  <SCORE.SYSTEM.SOLV>
0

>  <SCORE.SYSTEM.norm>
0

>  <SCORE.heavy>
52

>  <SCORE.norm>
0.00624327

>  <RMSD>
2.379

$$$$
2be0_lig
 OpenBabel11021811423D
libRbt.so/2013.1/901 2013/11/27
 52 56  0  0  0  0  0  0  0  0999 V2000
   46.2612    6.7470   -7.9330 C   0  0  2  0  0  0  0  0  0  0  0  0
   46.3315    6.9234   -6.5377 O   0  0  0  0  0  0  0  0  0  0  0  0
   47.8664    2.9685   -5.3656 C   0  0  2  0  0  0  0  0  0  0  0  0
   48.4818    1.9028   -4.5260 N   0  0  0  0  0  0  0  0  0  0  0  0
   43.7133    4.3215   -4.5747 C   0  0  2  0  0  0  0  0  0  0  0  0
   42.4012    4.8923   -4.7565 O   0  0  0  0  0  0  0  0  0  0  0  0
   42.3466    6.5300   -0.5336 C   0  0  1  0  0  0  0  0  0  0  0  0
   39.9748   -0.3602   -6.4317 C   0  0  0  0  0  0  0  0  0  0  0  0
   45.6409    8.0195   -8.6412 C   0  0  2  0  0  0  0  0  0  0  0  0
   46.3913    9.2164   -8.2552 N   0  0  0  0  0  0  0  0  0  0  0  0
   48.8774    4.1994   -5.4714 C   0  0  0  0  0  0  0  0  0  0  0  0
   43.8793    4.0634   -3.0686 C   0  0  2  0  0  0  0  0  0  0  0  0
   43.2490    2.7211   -2.8725 O   0  0  0  0  0  0  0  0  0  0  0  0
   42.6399    6.3735    1.0573 C   0  0  2  0  0  0  0  0  0  0  0  0
   41.8888    5.1821    1.5693 N   0  0  0  0  0  0  0  0  0  0  0  0
   39.6292   -0.3960   -7.8224 C   0  0  0  0  0  0  0  0  0  0  0  0
   38.2687   -0.5261   -8.2058 N   0  0  0  0  0  0  0  0  0  0  0  0
   44.0908    8.1394   -8.2692 C   0  0  1  0  0  0  0  0  0  0  0  0
   43.5562    9.2890   -8.9070 O   0  0  0  0  0  0  0  0  0  0  0  0
   48.2327    5.3988   -6.3747 C   0  0  2  0  0  0  0  0  0  0  0  0
   49.1337    6.5117   -6.4796 N   0  0  0  0  0  0  0  0  0  0  0  0
   43.1751    5.3249   -2.5343 C   0  0  2  0  0  0  0  0  0  0  0  0
   42.7811    5.3147   -1.1701 O   0  0  0  0  0  0  0  0  0  0  0  0
   42.1613    7.6784    1.7624 C   0  0  1  0  0  0  0  0  0  0  0  0
   42.9713    8.7706    1.1982 O   0  0  0  0  0  0  0  0  0  0  0  0
   37.2043   -0.6272   -7.2651 C   0  0  0  0  0  0  0  0  0  0  0  0
   43.3702    6.8369   -8.7237 C   0  0  2  0  0  0  0  0  0  0  0  0
   41.9238    6.8875   -8.4004 O   0  0  0  0  0  0  0  0  0  0  0  0
   46.8670    5.8803   -5.7324 C   0  0  2  0  0  0  0  0  0  0  0  0
   42.0024    5.5259   -3.5235 C   0  0  1  0  0  0  0  0  0  0  0  0
   40.5770    7.9147    1.4794 C   0  0  2  0  0  0  0  0  0  0  0  0
   39.7611    6.8266    2.0403 O   0  0  0  0  0  0  0  0  0  0  0  0
   37.4847   -0.5966   -5.8768 C   0  0  0  0  0  0  0  0  0  0  0  0
   44.0021    5.5813   -8.0084 C   0  0  2  0  0  0  0  0  0  0  0  0
   45.4134    5.5895   -8.3591 O   0  0  0  0  0  0  0  0  0  0  0  0
   45.9173    4.6358   -5.6415 C   0  0  2  0  0  0  0  0  0  0  0  0
   44.7343    5.1814   -5.0704 O   0  0  0  0  0  0  0  0  0  0  0  0
   41.7529    6.9996   -3.8400 C   0  0  0  0  0  0  0  0  0  0  0  0
   42.7944    7.6575   -4.5209 O   0  0  0  0  0  0  0  0  0  0  0  0
   40.3277    8.0140   -0.0957 C   0  0  1  0  0  0  0  0  0  0  0  0
   40.8490    6.7487   -0.7453 O   0  0  0  0  0  0  0  0  0  0  0  0
   38.8890   -0.4631   -5.4249 C   0  0  0  0  0  0  0  0  0  0  0  0
   43.2971    4.3833   -8.4921 C   0  0  0  0  0  0  0  0  0  0  0  0
   43.1778    4.4434   -9.8244 O   0  0  0  0  0  0  0  0  0  0  0  0
   46.5601    3.5045   -4.7335 C   0  0  1  0  0  0  0  0  0  0  0  0
   45.7118    2.4054   -4.6714 O   0  0  0  0  0  0  0  0  0  0  0  0
   41.8364    2.3293   -3.0898 C   0  0  0  0  0  0  0  0  0  0  0  0
   38.8038    8.2274   -0.3044 C   0  0  0  0  0  0  0  0  0  0  0  0
   38.4997    8.3769   -1.7058 N   0  0  0  0  0  0  0  0  0  0  0  0
   41.8456    0.9414   -3.7386 C   0  0  0  0  0  0  0  0  0  0  0  0
   41.8204    1.0877   -5.2301 N   0  0  0  0  0  0  0  0  0  0  0  0
   41.5221   -0.2109   -6.0269 C   0  0  0  0  0  0  0  0  0  0  0  0
  1  2  1  1  0  0  0
  1  9  1  0  0  0  0
  1 35  1  0  0  0  0
  3  4  1  1  0  0  0
  3 11  1  0  0  0  0
  3 45  1  0  0  0  0
  5  6  1  0  0  0  0
  5 12  1  0  0  0  0
  5 37  1  1  0  0  0
  6 30  1  0  0  0  0
  7 14  1  0  0  0  0
  7 41  1  0  0  0  0
  7 23  1  6  0  0  0
  8 16  2  0  0  0  0
  8 42  1  0  0  0  0
  9 10  1  1  0  0  0
  9 18  1  0  0  0  0
 11 20  1  0  0  0  0
 12 13  1  1  0  0  0
 12 22  1  0  0  0  0
 13 47  1  0  0  0  0
 14 15  1  1  0  0  0
 14 24  1  0  0  0  0
 16 17  1  0  0  0  0
 17 26  2  0  0  0  0
 18 19  1  6  0  0  0
 18 27  1  0  0  0  0
 20 21  1  1  0  0  0
 20 29  1  0  0  0  0
 22 23  1  1  0  0  0
 22 30  1  0  0  0  0
 24 25  1  6  0  0  0
 24 31  1  0  0  0  0
 26 33  1  0  0  0  0
 27 28  1  1  0  0  0
 27 34  1  0  0  0  0
 29  2  1  6  0  0  0
 29 36  1  0  0  0  0
 30 38  1  6  0  0  0
 31 32  1  6  0  0  0
 31 40  1  0  0  0  0
 33 42  2  0  0  0  0
 34 35  1  0  0  0  0
 34 43  1  6  0  0  0
 36 37  1  1  0  0  0
 36 45  1  0  0  0  0
 38 39  1  0  0  0  0
 40 41  1  0  0  0  0
 40 48  1  1  0  0  0
 43 44  1  0  0  0  0
 45 46  1  6  0  0  0
 47 50  1  0  0  0  0
 48 49  1  0  0  0  0
 50 51  1  0  0  0  0
 51 52  1  0  0  0  0
 52  8  1  0  0  0  0
M  END
>  <CHROM.1>
-179.85306767,-146.79790897,-153.96019273,-62.95530489,139.67497986,168.52221134
48.17745280,-51.43271133,45.84706822,-167.37994844,177.89291702,-92.39976363
-167.46206247,96.11478478,117.85131466,43.10653083,4.92797081,-4.57983707
-0.94142164,0.67818095,0.90204855

>  <Name>
2be0_lig

>  <RI>
0

>  <Rbt.Current_Directory>
/home/itssahil/PROJECTS/Mol_Feturizer/New_Systems/rnas/2be0

>  <Rbt.Executable>
rbdock ($Id: //depot/dev/client3/rdock/2013.1/src/exe/rbdock.cxx#4 $)

>  <Rbt.Library>
libRbt.so (2013.1, Build901 2013/11/27)

>  <Rbt.Parameter_File>
/export/apps/rDock/src/rDock_2013.1_src/data/scripts/dock_solv.prm

>  <Rbt.Receptor>
prm/pocket_docking_2.prm

>  <SCORE>
-0.104145

>  <SCORE.INTER>
9.59922

>  <SCORE.INTER.CONST>
1

>  <SCORE.INTER.POLAR>
0

>  <SCORE.INTER.ROT>
15

>  <SCORE.INTER.SOLV>
19.876

>  <SCORE.INTER.VDW>
-13.8259

>  <SCORE.INTER.norm>
0.1846

>  <SCORE.INTRA>
-11.9393

>  <SCORE.INTRA.DIHEDRAL>
-27.0612

>  <SCORE.INTRA.DIHEDRAL.0>
47.8724

>  <SCORE.INTRA.POLAR>
0

>  <SCORE.INTRA.POLAR.0>
0

>  <SCORE.INTRA.REPUL>
0.0673433

>  <SCORE.INTRA.REPUL.0>
0

>  <SCORE.INTRA.SOLV>
-1.3488

>  <SCORE.INTRA.SOLV.lig_0>
-115.677

>  <SCORE.INTRA.VDW>
1.92901

>  <SCORE.INTRA.VDW.0>
-7.4833

>  <SCORE.INTRA.norm>
-0.229601

>  <SCORE.RESTR>
2.23588

>  <SCORE.RESTR.CAVITY>
2.23588

>  <SCORE.RESTR.norm>
0.0429978

>  <SCORE.SYSTEM>
0

>  <SCORE.SYSTEM.CONST>
0

>  <SCORE.SYSTEM.DIHEDRAL>
0

>  <SCORE.SYSTEM.SOLV>
0

>  <SCORE.SYSTEM.norm>
0

>  <SCORE.heavy>
52

>  <SCORE.norm>
-0.00200279

>  <RMSD>
2.434

$$$$
2be0_lig
 OpenBabel11021811423D
libRbt.so/2013.1/901 2013/11/27
 52 56  0  0  0  0  0  0  0  0999 V2000
   46.3882    6.9662   -7.7082 C   0  0  2  0  0  0  0  0  0  0  0  0
   46.2540    6.8384   -6.3124 O   0  0  0  0  0  0  0  0  0  0  0  0
   48.0891    2.9075   -5.5700 C   0  0  2  0  0  0  0  0  0  0  0  0
   48.8553    1.8327   -4.8790 N   0  0  0  0  0  0  0  0  0  0  0  0
   43.6786    4.3130   -4.8537 C   0  0  2  0  0  0  0  0  0  0  0  0
   42.7353    5.1196   -5.5885 O   0  0  0  0  0  0  0  0  0  0  0  0
   41.7622    5.9539   -0.9050 C   0  0  1  0  0  0  0  0  0  0  0  0
   41.2336   -1.4715   -4.3264 C   0  0  0  0  0  0  0  0  0  0  0  0
   45.7337    8.3112   -8.2263 C   0  0  2  0  0  0  0  0  0  0  0  0
   46.2931    9.4489   -7.4934 N   0  0  0  0  0  0  0  0  0  0  0  0
   49.0269    4.1872   -5.7462 C   0  0  0  0  0  0  0  0  0  0  0  0
   43.0545    4.0476   -3.4743 C   0  0  2  0  0  0  0  0  0  0  0  0
   42.1870    2.8516   -3.7075 O   0  0  0  0  0  0  0  0  0  0  0  0
   41.6711    4.6630    0.0781 C   0  0  2  0  0  0  0  0  0  0  0  0
   40.2763    4.1175    0.0267 N   0  0  0  0  0  0  0  0  0  0  0  0
   40.0644   -0.6436   -4.3769 C   0  0  0  0  0  0  0  0  0  0  0  0
   39.4466   -0.3748   -5.6263 N   0  0  0  0  0  0  0  0  0  0  0  0
   44.1441    8.2272   -8.0779 C   0  0  1  0  0  0  0  0  0  0  0  0
   43.5779    9.4438   -8.5400 O   0  0  0  0  0  0  0  0  0  0  0  0
   48.2178    5.3969   -6.4891 C   0  0  2  0  0  0  0  0  0  0  0  0
   49.0515    6.5538   -6.6557 N   0  0  0  0  0  0  0  0  0  0  0  0
   42.4098    5.4265   -3.2382 C   0  0  2  0  0  0  0  0  0  0  0  0
   41.4147    5.5089   -2.2285 O   0  0  0  0  0  0  0  0  0  0  0  0
   42.0321    5.1331    1.5195 C   0  0  1  0  0  0  0  0  0  0  0  0
   43.4165    5.6297    1.4547 O   0  0  0  0  0  0  0  0  0  0  0  0
   39.9353   -0.8915   -6.8601 C   0  0  0  0  0  0  0  0  0  0  0  0
   43.6344    7.0040   -8.8942 C   0  0  2  0  0  0  0  0  0  0  0  0
   42.1610    6.8713   -8.7913 O   0  0  0  0  0  0  0  0  0  0  0  0
   46.9355    5.7842   -5.6434 C   0  0  2  0  0  0  0  0  0  0  0  0
   41.9100    5.8331   -4.6449 C   0  0  1  0  0  0  0  0  0  0  0  0
   41.0090    6.3048    1.9951 C   0  0  2  0  0  0  0  0  0  0  0  0
   39.6230    5.8158    2.0619 O   0  0  0  0  0  0  0  0  0  0  0  0
   41.0867   -1.7168   -6.8725 C   0  0  0  0  0  0  0  0  0  0  0  0
   44.2976    5.6749   -8.3640 C   0  0  2  0  0  0  0  0  0  0  0  0
   45.7337    5.8682   -8.4867 O   0  0  0  0  0  0  0  0  0  0  0  0
   46.0567    4.4943   -5.4909 C   0  0  2  0  0  0  0  0  0  0  0  0
   44.9430    4.9574   -4.7369 O   0  0  0  0  0  0  0  0  0  0  0  0
   42.1011    7.3231   -4.9232 C   0  0  0  0  0  0  0  0  0  0  0  0
   43.3570    7.8496   -4.5672 O   0  0  0  0  0  0  0  0  0  0  0  0
   41.0955    7.5318    0.9754 C   0  0  1  0  0  0  0  0  0  0  0  0
   40.7845    7.0223   -0.4168 O   0  0  0  0  0  0  0  0  0  0  0  0
   41.7688   -2.0265   -5.5946 C   0  0  0  0  0  0  0  0  0  0  0  0
   43.7959    4.5610   -9.1847 C   0  0  0  0  0  0  0  0  0  0  0  0
   42.4848    4.4007   -8.9659 O   0  0  0  0  0  0  0  0  0  0  0  0
   46.8620    3.3523   -4.7395 C   0  0  1  0  0  0  0  0  0  0  0  0
   46.0740    2.2136   -4.6215 O   0  0  0  0  0  0  0  0  0  0  0  0
   41.6974    1.8651   -2.7159 C   0  0  0  0  0  0  0  0  0  0  0  0
   40.0939    8.6098    1.4716 C   0  0  0  0  0  0  0  0  0  0  0  0
   38.7444    8.1034    1.4356 N   0  0  0  0  0  0  0  0  0  0  0  0
   42.6875    0.6959   -2.7130 C   0  0  0  0  0  0  0  0  0  0  0  0
   42.0648   -0.4834   -2.0287 N   0  0  0  0  0  0  0  0  0  0  0  0
   41.9109   -1.7600   -2.8987 C   0  0  0  0  0  0  0  0  0  0  0  0
  1  2  1  1  0  0  0
  1  9  1  0  0  0  0
  1 35  1  0  0  0  0
  3  4  1  1  0  0  0
  3 11  1  0  0  0  0
  3 45  1  0  0  0  0
  5  6  1  0  0  0  0
  5 12  1  0  0  0  0
  5 37  1  1  0  0  0
  6 30  1  0  0  0  0
  7 14  1  0  0  0  0
  7 41  1  0  0  0  0
  7 23  1  6  0  0  0
  8 16  2  0  0  0  0
  8 42  1  0  0  0  0
  9 10  1  1  0  0  0
  9 18  1  0  0  0  0
 11 20  1  0  0  0  0
 12 13  1  6  0  0  0
 12 22  1  0  0  0  0
 13 47  1  0  0  0  0
 14 15  1  1  0  0  0
 14 24  1  0  0  0  0
 16 17  1  0  0  0  0
 17 26  2  0  0  0  0
 18 19  1  6  0  0  0
 18 27  1  0  0  0  0
 20 21  1  1  0  0  0
 20 29  1  0  0  0  0
 22 23  1  1  0  0  0
 22 30  1  0  0  0  0
 24 25  1  6  0  0  0
 24 31  1  0  0  0  0
 26 33  1  0  0  0  0
 27 28  1  1  0  0  0
 27 34  1  0  0  0  0
 29  2  1  6  0  0  0
 29 36  1  0  0  0  0
 30 38  1  6  0  0  0
 31 32  1  6  0  0  0
 31 40  1  0  0  0  0
 33 42  2  0  0  0  0
 34 35  1  0  0  0  0
 34 43  1  6  0  0  0
 36 37  1  1  0  0  0
 36 45  1  0  0  0  0
 38 39  1  0  0  0  0
 40 41  1  0  0  0  0
 40 48  1  1  0  0  0
 43 44  1  0  0  0  0
 45 46  1  6  0  0  0
 47 50  1  0  0  0  0
 48 49  1  0  0  0  0
 50 51  1  0  0  0  0
 51 52  1  0  0  0  0
 52  8  1  0  0  0  0
M  END
>  <CHROM.1>
-171.65397992,-107.23188974,-109.38436519,157.43107178,-93.95859631,96.59550996
26.71825834,-70.68428949,-66.47076394,152.93440770,-62.87016253,-164.49647900
119.48293038,-49.25360090,-45.88386640,43.33692985,4.59698126,-4.32967541
-0.15451221,0.96766138,0.40730164

>  <Name>
2be0_lig

>  <RI>
0

>  <Rbt.Current_Directory>
/home/itssahil/PROJECTS/Mol_Feturizer/New_Systems/rnas/2be0

>  <Rbt.Executable>
rbdock ($Id: //depot/dev/client3/rdock/2013.1/src/exe/rbdock.cxx#4 $)

>  <Rbt.Library>
libRbt.so (2013.1, Build901 2013/11/27)

>  <Rbt.Parameter_File>
/export/apps/rDock/src/rDock_2013.1_src/data/scripts/dock_solv.prm

>  <Rbt.Receptor>
prm/pocket_docking_2.prm

>  <SCORE>
0.181224

>  <SCORE.INTER>
2.11882

>  <SCORE.INTER.CONST>
1

>  <SCORE.INTER.POLAR>
-0.64982

>  <SCORE.INTER.ROT>
15

>  <SCORE.INTER.SOLV>
16.7695

>  <SCORE.INTER.VDW>
-15.6112

>  <SCORE.INTER.norm>
0.0407465

>  <SCORE.INTRA>
-3.90277

>  <SCORE.INTRA.DIHEDRAL>
-12.1365

>  <SCORE.INTRA.DIHEDRAL.0>
47.8724

>  <SCORE.INTRA.POLAR>
0

>  <SCORE.INTRA.POLAR.0>
0

>  <SCORE.INTRA.REPUL>
0.000201031

>  <SCORE.INTRA.REPUL.0>
0

>  <SCORE.INTRA.SOLV>
0.849958

>  <SCORE.INTRA.SOLV.lig_0>
-115.677

>  <SCORE.INTRA.VDW>
1.73949

>  <SCORE.INTRA.VDW.0>
-7.4833

>  <SCORE.INTRA.norm>
-0.0750532

>  <SCORE.RESTR>
1.96517

>  <SCORE.RESTR.CAVITY>
1.96517

>  <SCORE.RESTR.norm>
0.0377917

>  <SCORE.SYSTEM>
0

>  <SCORE.SYSTEM.CONST>
0

>  <SCORE.SYSTEM.DIHEDRAL>
0

>  <SCORE.SYSTEM.SOLV>
0

>  <SCORE.SYSTEM.norm>
0

>  <SCORE.heavy>
52

>  <SCORE.norm>
0.00348509

>  <RMSD>
2.465

$$$$
2be0_lig
 OpenBabel11021811423D
libRbt.so/2013.1/901 2013/11/27
 52 56  0  0  0  0  0  0  0  0999 V2000
   46.5726    6.9763   -7.9175 C   0  0  2  0  0  0  0  0  0  0  0  0
   46.5381    7.1038   -6.5156 O   0  0  0  0  0  0  0  0  0  0  0  0
   47.7548    3.0316   -5.3719 C   0  0  2  0  0  0  0  0  0  0  0  0
   48.2365    1.9048   -4.5248 N   0  0  0  0  0  0  0  0  0  0  0  0
   43.5532    4.6136   -5.1036 C   0  0  2  0  0  0  0  0  0  0  0  0
   42.3563    5.4077   -5.2341 O   0  0  0  0  0  0  0  0  0  0  0  0
   42.0805    5.9046   -0.7131 C   0  0  1  0  0  0  0  0  0  0  0  0
   40.5288   -1.4284   -6.1528 C   0  0  0  0  0  0  0  0  0  0  0  0
   46.1438    8.3251   -8.6265 C   0  0  2  0  0  0  0  0  0  0  0  0
   46.9713    9.4285   -8.1341 N   0  0  0  0  0  0  0  0  0  0  0  0
   48.8337    4.2078   -5.3400 C   0  0  0  0  0  0  0  0  0  0  0  0
   43.5017    3.9599   -3.7135 C   0  0  2  0  0  0  0  0  0  0  0  0
   42.6866    2.7259   -3.9375 O   0  0  0  0  0  0  0  0  0  0  0  0
   41.8592    5.2204    0.7443 C   0  0  2  0  0  0  0  0  0  0  0  0
   40.7139    4.2581    0.6542 N   0  0  0  0  0  0  0  0  0  0  0  0
   41.1853   -2.2431   -5.1731 C   0  0  0  0  0  0  0  0  0  0  0  0
   40.5561   -3.4272   -4.7072 N   0  0  0  0  0  0  0  0  0  0  0  0
   44.5864    8.5897   -8.3812 C   0  0  1  0  0  0  0  0  0  0  0  0
   44.2244    9.8055   -9.0175 O   0  0  0  0  0  0  0  0  0  0  0  0
   48.3354    5.4718   -6.2477 C   0  0  2  0  0  0  0  0  0  0  0  0
   49.2987    6.5362   -6.2291 N   0  0  0  0  0  0  0  0  0  0  0  0
   42.9047    5.1381   -2.9210 C   0  0  2  0  0  0  0  0  0  0  0  0
   42.3507    4.8438   -1.6471 O   0  0  0  0  0  0  0  0  0  0  0  0
   41.5518    6.3575    1.7648 C   0  0  1  0  0  0  0  0  0  0  0  0
   42.7409    7.2254    1.7827 O   0  0  0  0  0  0  0  0  0  0  0  0
   39.2797   -3.8595   -5.1676 C   0  0  0  0  0  0  0  0  0  0  0  0
   43.7840    7.3803   -8.9433 C   0  0  2  0  0  0  0  0  0  0  0  0
   42.3269    7.5670   -8.7404 O   0  0  0  0  0  0  0  0  0  0  0  0
   46.9446    6.0052   -5.7087 C   0  0  2  0  0  0  0  0  0  0  0  0
   41.8954    5.7621   -3.9140 C   0  0  1  0  0  0  0  0  0  0  0  0
   40.2294    7.1817    1.2978 C   0  0  2  0  0  0  0  0  0  0  0  0
   39.0369    6.3203    1.2772 O   0  0  0  0  0  0  0  0  0  0  0  0
   38.5834   -3.0956   -6.1365 C   0  0  0  0  0  0  0  0  0  0  0  0
   44.2253    6.0470   -8.2256 C   0  0  2  0  0  0  0  0  0  0  0  0
   45.6557    5.9232   -8.4565 O   0  0  0  0  0  0  0  0  0  0  0  0
   45.9273    4.8125   -5.7507 C   0  0  2  0  0  0  0  0  0  0  0  0
   44.7279    5.4023   -5.2640 O   0  0  0  0  0  0  0  0  0  0  0  0
   41.8759    7.2881   -3.8434 C   0  0  0  0  0  0  0  0  0  0  0  0
   43.0622    7.9284   -4.2483 O   0  0  0  0  0  0  0  0  0  0  0  0
   40.4723    7.7953   -0.1573 C   0  0  1  0  0  0  0  0  0  0  0  0
   40.8134    6.6639   -1.1050 O   0  0  0  0  0  0  0  0  0  0  0  0
   39.1971   -1.8508   -6.6541 C   0  0  0  0  0  0  0  0  0  0  0  0
   43.4512    4.9409   -8.8116 C   0  0  0  0  0  0  0  0  0  0  0  0
   43.5890    3.8477   -8.0509 O   0  0  0  0  0  0  0  0  0  0  0  0
   46.4268    3.6165   -4.8357 C   0  0  1  0  0  0  0  0  0  0  0  0
   45.5204    2.5644   -4.8917 O   0  0  0  0  0  0  0  0  0  0  0  0
   43.0777    1.3139   -3.7147 C   0  0  0  0  0  0  0  0  0  0  0  0
   39.1786    8.5577   -0.5532 C   0  0  0  0  0  0  0  0  0  0  0  0
   39.1395    9.8531    0.0788 N   0  0  0  0  0  0  0  0  0  0  0  0
   41.9280    0.4392   -4.2249 C   0  0  0  0  0  0  0  0  0  0  0  0
   41.4482    0.9655   -5.5438 N   0  0  0  0  0  0  0  0  0  0  0  0
   41.2649   -0.0948   -6.6629 C   0  0  0  0  0  0  0  0  0  0  0  0
  1  2  1  1  0  0  0
  1  9  1  0  0  0  0
  1 35  1  0  0  0  0
  3  4  1  1  0  0  0
  3 11  1  0  0  0  0
  3 45  1  0  0  0  0
  5  6  1  0  0  0  0
  5 12  1  0  0  0  0
  5 37  1  1  0  0  0
  6 30  1  0  0  0  0
  7 14  1  0  0  0  0
  7 41  1  0  0  0  0
  7 23  1  6  0  0  0
  8 16  2  0  0  0  0
  8 42  1  0  0  0  0
  9 10  1  1  0  0  0
  9 18  1  0  0  0  0
 11 20  1  0  0  0  0
 12 13  1  6  0  0  0
 12 22  1  0  0  0  0
 13 47  1  0  0  0  0
 14 15  1  6  0  0  0
 14 24  1  0  0  0  0
 16 17  1  0  0  0  0
 17 26  2  0  0  0  0
 18 19  1  6  0  0  0
 18 27  1  0  0  0  0
 20 21  1  1  0  0  0
 20 29  1  0  0  0  0
 22 23  1  1  0  0  0
 22 30  1  0  0  0  0
 24 25  1  6  0  0  0
 24 31  1  0  0  0  0
 26 33  1  0  0  0  0
 27 28  1  1  0  0  0
 27 34  1  0  0  0  0
 29  2  1  6  0  0  0
 29 36  1  0  0  0  0
 30 38  1  6  0  0  0
 31 32  1  6  0  0  0
 31 40  1  0  0  0  0
 33 42  2  0  0  0  0
 34 35  1  0  0  0  0
 34 43  1  6  0  0  0
 36 37  1  1  0  0  0
 36 45  1  0  0  0  0
 38 39  1  0  0  0  0
 40 41  1  0  0  0  0
 40 48  1  6  0  0  0
 43 44  1  0  0  0  0
 45 46  1  6  0  0  0
 47 50  1  0  0  0  0
 48 49  1  0  0  0  0
 50 51  1  0  0  0  0
 51 52  1  0  0  0  0
 52  8  1  0  0  0  0
M  END
>  <CHROM.1>
-177.52367960,-152.34631007,-164.53016238,120.51911589,-174.68518009,164.53674867
48.73997681,-50.75059528,-167.26697607,-177.78923385,79.58280585,43.84197535
132.51731367,44.29617396,-64.59855349,43.25709642,4.67439195,-4.56439434
-0.22013930,-0.87164047,-2.64159099

>  <Name>
2be0_lig

>  <RI>
0

>  <Rbt.Current_Directory>
/home/itssahil/PROJECTS/Mol_Feturizer/New_Systems/rnas/2be0

>  <Rbt.Executable>
rbdock ($Id: //depot/dev/client3/rdock/2013.1/src/exe/rbdock.cxx#4 $)

>  <Rbt.Library>
libRbt.so (2013.1, Build901 2013/11/27)

>  <Rbt.Parameter_File>
/export/apps/rDock/src/rDock_2013.1_src/data/scripts/dock_solv.prm

>  <Rbt.Receptor>
prm/pocket_docking_2.prm

>  <SCORE>
-3.41634

>  <SCORE.INTER>
6.34465

>  <SCORE.INTER.CONST>
1

>  <SCORE.INTER.POLAR>
0

>  <SCORE.INTER.ROT>
15

>  <SCORE.INTER.SOLV>
16.3891

>  <SCORE.INTER.VDW>
-14.8333

>  <SCORE.INTER.norm>
0.122013

>  <SCORE.INTRA>
-13.2037

>  <SCORE.INTRA.DIHEDRAL>
-29.7779

>  <SCORE.INTRA.DIHEDRAL.0>
47.8724

>  <SCORE.INTRA.POLAR>
0

>  <SCORE.INTRA.POLAR.0>
0

>  <SCORE.INTRA.REPUL>
0.0616772

>  <SCORE.INTRA.REPUL.0>
0

>  <SCORE.INTRA.SOLV>
-1.22055

>  <SCORE.INTRA.SOLV.lig_0>
-115.677

>  <SCORE.INTRA.VDW>
1.98713

>  <SCORE.INTRA.VDW.0>
-7.4833

>  <SCORE.INTRA.norm>
-0.253917

>  <SCORE.RESTR>
3.44271

>  <SCORE.RESTR.CAVITY>
3.44271

>  <SCORE.RESTR.norm>
0.066206

>  <SCORE.SYSTEM>
0

>  <SCORE.SYSTEM.CONST>
0

>  <SCORE.SYSTEM.DIHEDRAL>
0

>  <SCORE.SYSTEM.SOLV>
0

>  <SCORE.SYSTEM.norm>
0

>  <SCORE.heavy>
52

>  <SCORE.norm>
-0.0656988

>  <RMSD>
2.472

$$$$
2be0_lig
 OpenBabel11021811423D
libRbt.so/2013.1/901 2013/11/27
 52 56  0  0  0  0  0  0  0  0999 V2000
   46.1838    6.9717   -8.2083 C   0  0  2  0  0  0  0  0  0  0  0  0
   46.0480    7.1454   -6.8175 O   0  0  0  0  0  0  0  0  0  0  0  0
   47.2291    3.1358   -5.4396 C   0  0  2  0  0  0  0  0  0  0  0  0
   47.6831    2.0520   -4.5238 N   0  0  0  0  0  0  0  0  0  0  0  0
   43.0374    4.7086   -5.3214 C   0  0  2  0  0  0  0  0  0  0  0  0
   41.8292    5.4882   -5.4353 O   0  0  0  0  0  0  0  0  0  0  0  0
   41.9197    6.0850   -0.8486 C   0  0  1  0  0  0  0  0  0  0  0  0
   41.5536   -1.4006   -4.2214 C   0  0  0  0  0  0  0  0  0  0  0  0
   45.6674    8.2427   -8.9979 C   0  0  2  0  0  0  0  0  0  0  0  0
   46.3470    9.4424   -8.5044 N   0  0  0  0  0  0  0  0  0  0  0  0
   48.3053    4.3147   -5.4283 C   0  0  0  0  0  0  0  0  0  0  0  0
   43.0395    4.0984   -3.9107 C   0  0  2  0  0  0  0  0  0  0  0  0
   42.2288    2.8513   -4.0680 O   0  0  0  0  0  0  0  0  0  0  0  0
   42.6927    5.5315    0.4695 C   0  0  2  0  0  0  0  0  0  0  0  0
   41.9946    4.2966    0.9527 N   0  0  0  0  0  0  0  0  0  0  0  0
   41.7689   -0.6360   -5.4146 C   0  0  0  0  0  0  0  0  0  0  0  0
   40.9113   -0.8183   -6.5310 N   0  0  0  0  0  0  0  0  0  0  0  0
   44.0789    8.3543   -8.8568 C   0  0  1  0  0  0  0  0  0  0  0  0
   43.6376    9.5026   -9.5643 O   0  0  0  0  0  0  0  0  0  0  0  0
   47.8367    5.5324   -6.4118 C   0  0  2  0  0  0  0  0  0  0  0  0
   48.7980    6.5989   -6.4123 N   0  0  0  0  0  0  0  0  0  0  0  0
   42.4588    5.2960   -3.1352 C   0  0  2  0  0  0  0  0  0  0  0  0
   41.9513    5.0372   -1.8344 O   0  0  0  0  0  0  0  0  0  0  0  0
   42.6545    6.6521    1.5521 C   0  0  1  0  0  0  0  0  0  0  0  0
   43.3770    7.8002    0.9800 O   0  0  0  0  0  0  0  0  0  0  0  0
   39.8258   -1.7402   -6.5325 C   0  0  0  0  0  0  0  0  0  0  0  0
   43.4394    7.0493   -9.4138 C   0  0  2  0  0  0  0  0  0  0  0  0
   41.9610    7.0922   -9.3058 O   0  0  0  0  0  0  0  0  0  0  0  0
   46.4282    6.0877   -5.9457 C   0  0  2  0  0  0  0  0  0  0  0  0
   41.4104    5.8800   -4.1118 C   0  0  1  0  0  0  0  0  0  0  0  0
   41.1130    7.0402    1.8970 C   0  0  2  0  0  0  0  0  0  0  0  0
   40.3844    5.8972    2.4688 O   0  0  0  0  0  0  0  0  0  0  0  0
   39.5635   -2.5228   -5.3811 C   0  0  0  0  0  0  0  0  0  0  0  0
   43.9660    5.7952   -8.6154 C   0  0  2  0  0  0  0  0  0  0  0  0
   45.4134    5.8111   -8.7557 O   0  0  0  0  0  0  0  0  0  0  0  0
   45.4138    4.8920   -5.9642 C   0  0  2  0  0  0  0  0  0  0  0  0
   44.1983    5.5016   -5.5466 O   0  0  0  0  0  0  0  0  0  0  0  0
   41.3789    7.4073   -4.0881 C   0  0  0  0  0  0  0  0  0  0  0  0
   40.5915    8.0124   -5.0857 O   0  0  0  0  0  0  0  0  0  0  0  0
   40.3785    7.5320    0.5660 C   0  0  1  0  0  0  0  0  0  0  0  0
   40.4801    6.4339   -0.4725 O   0  0  0  0  0  0  0  0  0  0  0  0
   40.4304   -2.3704   -4.1897 C   0  0  0  0  0  0  0  0  0  0  0  0
   43.3457    4.5949   -9.1990 C   0  0  0  0  0  0  0  0  0  0  0  0
   42.0382    4.5834   -8.9109 O   0  0  0  0  0  0  0  0  0  0  0  0
   45.8834    3.7425   -4.9766 C   0  0  1  0  0  0  0  0  0  0  0  0
   44.9803    2.6867   -5.0122 O   0  0  0  0  0  0  0  0  0  0  0  0
   41.4981    2.0933   -3.0250 C   0  0  0  0  0  0  0  0  0  0  0  0
   38.9144    7.8764    0.9528 C   0  0  0  0  0  0  0  0  0  0  0  0
   38.8828    8.7036    2.1332 N   0  0  0  0  0  0  0  0  0  0  0  0
   42.5390    1.3000   -2.2284 C   0  0  0  0  0  0  0  0  0  0  0  0
   42.0292   -0.0885   -1.9857 N   0  0  0  0  0  0  0  0  0  0  0  0
   42.5386   -1.1727   -2.9732 C   0  0  0  0  0  0  0  0  0  0  0  0
  1  2  1  1  0  0  0
  1  9  1  0  0  0  0
  1 35  1  0  0  0  0
  3  4  1  1  0  0  0
  3 11  1  0  0  0  0
  3 45  1  0  0  0  0
  5  6  1  0  0  0  0
  5 12  1  0  0  0  0
  5 37  1  1  0  0  0
  6 30  1  0  0  0  0
  7 14  1  0  0  0  0
  7 41  1  0  0  0  0
  7 23  1  6  0  0  0
  8 16  2  0  0  0  0
  8 42  1  0  0  0  0
  9 10  1  1  0  0  0
  9 18  1  0  0  0  0
 11 20  1  0  0  0  0
 12 13  1  6  0  0  0
 12 22  1  0  0  0  0
 13 47  1  0  0  0  0
 14 15  1  1  0  0  0
 14 24  1  0  0  0  0
 16 17  1  0  0  0  0
 17 26  2  0  0  0  0
 18 19  1  6  0  0  0
 18 27  1  0  0  0  0
 20 21  1  1  0  0  0
 20 29  1  0  0  0  0
 22 23  1  1  0  0  0
 22 30  1  0  0  0  0
 24 25  1  6  0  0  0
 24 31  1  0  0  0  0
 26 33  1  0  0  0  0
 27 28  1  1  0  0  0
 27 34  1  0  0  0  0
 29  2  1  6  0  0  0
 29 36  1  0  0  0  0
 30 38  1  6  0  0  0
 31 32  1  6  0  0  0
 31 40  1  0  0  0  0
 33 42  2  0  0  0  0
 34 35  1  0  0  0  0
 34 43  1  6  0  0  0
 36 37  1  1  0  0  0
 36 45  1  0  0  0  0
 38 39  1  0  0  0  0
 40 41  1  0  0  0  0
 40 48  1  1  0  0  0
 43 44  1  0  0  0  0
 45 46  1  6  0  0  0
 47 50  1  0  0  0  0
 48 49  1  0  0  0  0
 50 51  1  0  0  0  0
 51 52  1  0  0  0  0
 52  8  1  0  0  0  0
M  END
>  <CHROM.1>
178.29913504,-156.86332592,-126.04020916,-157.19606674,-76.54505373,153.79086100
46.02158460,54.88799128,-69.60619660,-174.55626345,47.98307086,-136.83011262
97.42908152,-93.08687270,91.30989106,43.10581829,4.76934201,-4.42389875,-0.21604906
1.07578805,0.43587513

>  <Name>
2be0_lig

>  <RI>
0

>  <Rbt.Current_Directory>
/home/itssahil/PROJECTS/Mol_Feturizer/New_Systems/rnas/2be0

>  <Rbt.Executable>
rbdock ($Id: //depot/dev/client3/rdock/2013.1/src/exe/rbdock.cxx#4 $)

>  <Rbt.Library>
libRbt.so (2013.1, Build901 2013/11/27)

>  <Rbt.Parameter_File>
/export/apps/rDock/src/rDock_2013.1_src/data/scripts/dock_solv.prm

>  <Rbt.Receptor>
prm/pocket_docking_2.prm

>  <SCORE>
-3.61334

>  <SCORE.INTER>
4.43242

>  <SCORE.INTER.CONST>
1

>  <SCORE.INTER.POLAR>
0

>  <SCORE.INTER.ROT>
15

>  <SCORE.INTER.SOLV>
17.2051

>  <SCORE.INTER.VDW>
-16.3801

>  <SCORE.INTER.norm>
0.0852388

>  <SCORE.INTRA>
-9.66258

>  <SCORE.INTRA.DIHEDRAL>
-23.1024

>  <SCORE.INTRA.DIHEDRAL.0>
47.8724

>  <SCORE.INTRA.POLAR>
0

>  <SCORE.INTRA.POLAR.0>
0

>  <SCORE.INTRA.REPUL>
0

>  <SCORE.INTRA.REPUL.0>
0

>  <SCORE.INTRA.SOLV>
-1.73688

>  <SCORE.INTRA.SOLV.lig_0>
-115.677

>  <SCORE.INTRA.VDW>
2.75705

>  <SCORE.INTRA.VDW.0>
-7.4833

>  <SCORE.INTRA.norm>
-0.185819

>  <SCORE.RESTR>
1.61681

>  <SCORE.RESTR.CAVITY>
1.61681

>  <SCORE.RESTR.norm>
0.0310926

>  <SCORE.SYSTEM>
0

>  <SCORE.SYSTEM.CONST>
0

>  <SCORE.SYSTEM.DIHEDRAL>
0

>  <SCORE.SYSTEM.SOLV>
0

>  <SCORE.SYSTEM.norm>
0

>  <SCORE.heavy>
52

>  <SCORE.norm>
-0.0694873

>  <RMSD>
2.544

$$$$
2be0_lig
 OpenBabel11021811423D
libRbt.so/2013.1/901 2013/11/27
 52 56  0  0  0  0  0  0  0  0999 V2000
   46.3690    7.0817   -8.0193 C   0  0  2  0  0  0  0  0  0  0  0  0
   46.3541    7.3960   -6.6467 O   0  0  0  0  0  0  0  0  0  0  0  0
   47.3000    3.4584   -4.9229 C   0  0  2  0  0  0  0  0  0  0  0  0
   47.7769    2.4409   -3.9448 N   0  0  0  0  0  0  0  0  0  0  0  0
   43.2299    5.6846   -4.9105 C   0  0  2  0  0  0  0  0  0  0  0  0
   42.2743    6.7634   -4.8526 O   0  0  0  0  0  0  0  0  0  0  0  0
   41.8426    6.3569   -0.3607 C   0  0  1  0  0  0  0  0  0  0  0  0
   41.9640   -1.0573   -4.8225 C   0  0  0  0  0  0  0  0  0  0  0  0
   45.9088    8.3172   -8.8953 C   0  0  2  0  0  0  0  0  0  0  0  0
   46.7268    9.4875   -8.5698 N   0  0  0  0  0  0  0  0  0  0  0  0
   48.4858    4.4811   -5.2332 C   0  0  0  0  0  0  0  0  0  0  0  0
   42.9514    4.7807   -3.6989 C   0  0  2  0  0  0  0  0  0  0  0  0
   41.8680    3.8704   -4.1835 O   0  0  0  0  0  0  0  0  0  0  0  0
   41.3604    5.4773    0.9180 C   0  0  2  0  0  0  0  0  0  0  0  0
   40.0478    4.8327    0.5902 N   0  0  0  0  0  0  0  0  0  0  0  0
   41.4916   -1.5814   -6.0703 C   0  0  0  0  0  0  0  0  0  0  0  0
   40.2768   -2.3147   -6.1104 N   0  0  0  0  0  0  0  0  0  0  0  0
   44.3515    8.5919   -8.6609 C   0  0  1  0  0  0  0  0  0  0  0  0
   43.9612    9.7063   -9.4482 O   0  0  0  0  0  0  0  0  0  0  0  0
   47.9981    5.6244   -6.2938 C   0  0  2  0  0  0  0  0  0  0  0  0
   49.0569    6.5499   -6.5832 N   0  0  0  0  0  0  0  0  0  0  0  0
   42.6272    5.8716   -2.6608 C   0  0  2  0  0  0  0  0  0  0  0  0
   41.9570    5.4585   -1.4790 O   0  0  0  0  0  0  0  0  0  0  0  0
   41.2188    6.4406    2.1350 C   0  0  1  0  0  0  0  0  0  0  0  0
   42.5599    6.9988    2.3749 O   0  0  0  0  0  0  0  0  0  0  0  0
   39.4844   -2.5659   -4.9541 C   0  0  0  0  0  0  0  0  0  0  0  0
   43.5592    7.3075   -9.0417 C   0  0  2  0  0  0  0  0  0  0  0  0
   42.1027    7.5006   -8.8405 O   0  0  0  0  0  0  0  0  0  0  0  0
   46.7542    6.4085   -5.7043 C   0  0  2  0  0  0  0  0  0  0  0  0
   41.8526    6.9289   -3.4831 C   0  0  1  0  0  0  0  0  0  0  0  0
   40.1459    7.6145    1.7936 C   0  0  2  0  0  0  0  0  0  0  0  0
   38.8031    7.0639    1.5523 O   0  0  0  0  0  0  0  0  0  0  0  0
   39.9001   -2.0718   -3.6931 C   0  0  0  0  0  0  0  0  0  0  0  0
   44.0317    6.0887   -8.1593 C   0  0  2  0  0  0  0  0  0  0  0  0
   45.4602    5.9537   -8.3962 O   0  0  0  0  0  0  0  0  0  0  0  0
   45.6261    5.3604   -5.4080 C   0  0  2  0  0  0  0  0  0  0  0  0
   44.5695    6.1673   -4.9021 O   0  0  0  0  0  0  0  0  0  0  0  0
   42.2080    8.3582   -3.0769 C   0  0  0  0  0  0  0  0  0  0  0  0
   43.5250    8.7608   -3.3677 O   0  0  0  0  0  0  0  0  0  0  0  0
   40.6338    8.4213    0.5036 C   0  0  1  0  0  0  0  0  0  0  0  0
   40.8034    7.4422   -0.6397 O   0  0  0  0  0  0  0  0  0  0  0  0
   41.1614   -1.3011   -3.5980 C   0  0  0  0  0  0  0  0  0  0  0  0
   43.2658    4.9038   -8.5781 C   0  0  0  0  0  0  0  0  0  0  0  0
   43.6120    4.5672   -9.8269 O   0  0  0  0  0  0  0  0  0  0  0  0
   46.1228    4.2846   -4.3529 C   0  0  1  0  0  0  0  0  0  0  0  0
   45.1163    3.3579   -4.1089 O   0  0  0  0  0  0  0  0  0  0  0  0
   41.3513    2.6367   -3.5452 C   0  0  0  0  0  0  0  0  0  0  0  0
   39.5698    9.5163    0.2202 C   0  0  0  0  0  0  0  0  0  0  0  0
   39.7511   10.0708   -1.0983 N   0  0  0  0  0  0  0  0  0  0  0  0
   42.5511    1.7149   -3.3036 C   0  0  0  0  0  0  0  0  0  0  0  0
   43.1320    1.2967   -4.6205 N   0  0  0  0  0  0  0  0  0  0  0  0
   43.3410   -0.2303   -4.8072 C   0  0  0  0  0  0  0  0  0  0  0  0
  1  2  1  1  0  0  0
  1  9  1  0  0  0  0
  1 35  1  0  0  0  0
  3  4  1  1  0  0  0
  3 11  1  0  0  0  0
  3 45  1  0  0  0  0
  5  6  1  0  0  0  0
  5 12  1  0  0  0  0
  5 37  1  1  0  0  0
  6 30  1  0  0  0  0
  7 14  1  0  0  0  0
  7 41  1  0  0  0  0
  7 23  1  6  0  0  0
  8 16  2  0  0  0  0
  8 42  1  0  0  0  0
  9 10  1  1  0  0  0
  9 18  1  0  0  0  0
 11 20  1  0  0  0  0
 12 13  1  6  0  0  0
 12 22  1  0  0  0  0
 13 47  1  0  0  0  0
 14 15  1  6  0  0  0
 14 24  1  0  0  0  0
 16 17  1  0  0  0  0
 17 26  2  0  0  0  0
 18 19  1  6  0  0  0
 18 27  1  0  0  0  0
 20 21  1  1  0  0  0
 20 29  1  0  0  0  0
 22 23  1  1  0  0  0
 22 30  1  0  0  0  0
 24 25  1  6  0  0  0
 24 31  1  0  0  0  0
 26 33  1  0  0  0  0
 27 28  1  1  0  0  0
 27 34  1  0  0  0  0
 29  2  1  6  0  0  0
 29 36  1  0  0  0  0
 30 38  1  1  0  0  0
 31 32  1  6  0  0  0
 31 40  1  0  0  0  0
 33 42  2  0  0  0  0
 34 35  1  0  0  0  0
 34 43  1  6  0  0  0
 36 37  1  1  0  0  0
 36 45  1  0  0  0  0
 38 39  1  0  0  0  0
 40 41  1  0  0  0  0
 40 48  1  6  0  0  0
 43 44  1  0  0  0  0
 45 46  1  6  0  0  0
 47 50  1  0  0  0  0
 48 49  1  0  0  0  0
 50 51  1  0  0  0  0
 51 52  1  0  0  0  0
 52  8  1  0  0  0  0
M  END
>  <CHROM.1>
-179.26542708,-158.06926518,-166.58551741,168.31529160,-54.49931355,168.33707656
39.72228975,-49.35247405,66.87543852,159.80030436,-165.82180712,-65.07402867
-128.92957918,65.06418526,106.70513159,43.23336218,5.19701750,-4.31091151
-0.21500498,0.98001735,0.33859020

>  <Name>
2be0_lig

>  <RI>
0

>  <Rbt.Current_Directory>
/home/itssahil/PROJECTS/Mol_Feturizer/New_Systems/rnas/2be0

>  <Rbt.Executable>
rbdock ($Id: //depot/dev/client3/rdock/2013.1/src/exe/rbdock.cxx#4 $)

>  <Rbt.Library>
libRbt.so (2013.1, Build901 2013/11/27)

>  <Rbt.Parameter_File>
/export/apps/rDock/src/rDock_2013.1_src/data/scripts/dock_solv.prm

>  <Rbt.Receptor>
prm/pocket_docking_2.prm

>  <SCORE>
-11.8975

>  <SCORE.INTER>
2.59509

>  <SCORE.INTER.CONST>
1

>  <SCORE.INTER.POLAR>
-0.698386

>  <SCORE.INTER.ROT>
15

>  <SCORE.INTER.SOLV>
18.7271

>  <SCORE.INTER.VDW>
-15.7844

>  <SCORE.INTER.norm>
0.0499055

>  <SCORE.INTRA>
-16.2441

>  <SCORE.INTRA.DIHEDRAL>
-36.1185

>  <SCORE.INTRA.DIHEDRAL.0>
47.8724

>  <SCORE.INTRA.POLAR>
0

>  <SCORE.INTRA.POLAR.0>
0

>  <SCORE.INTRA.REPUL>
0.0383464

>  <SCORE.INTRA.REPUL.0>
0

>  <SCORE.INTRA.SOLV>
0.114329

>  <SCORE.INTRA.SOLV.lig_0>
-115.677

>  <SCORE.INTRA.VDW>
1.56623

>  <SCORE.INTRA.VDW.0>
-7.4833

>  <SCORE.INTRA.norm>
-0.312387

>  <SCORE.RESTR>
1.7515

>  <SCORE.RESTR.CAVITY>
1.7515

>  <SCORE.RESTR.norm>
0.0336828

>  <SCORE.SYSTEM>
0

>  <SCORE.SYSTEM.CONST>
0

>  <SCORE.SYSTEM.DIHEDRAL>
0

>  <SCORE.SYSTEM.SOLV>
0

>  <SCORE.SYSTEM.norm>
0

>  <SCORE.heavy>
52

>  <SCORE.norm>
-0.228799

>  <RMSD>
2.545

$$$$
2be0_lig
 OpenBabel11021811423D
libRbt.so/2013.1/901 2013/11/27
 52 56  0  0  0  0  0  0  0  0999 V2000
   46.6160    5.4268   -8.3406 C   0  0  2  0  0  0  0  0  0  0  0  0
   46.5222    4.6397   -7.1768 O   0  0  0  0  0  0  0  0  0  0  0  0
   49.8964    3.0158   -4.8640 C   0  0  2  0  0  0  0  0  0  0  0  0
   51.0913    2.9816   -3.9750 N   0  0  0  0  0  0  0  0  0  0  0  0
   45.1096    3.3283   -4.1906 C   0  0  2  0  0  0  0  0  0  0  0  0
   44.0840    3.5020   -5.1897 O   0  0  0  0  0  0  0  0  0  0  0  0
   42.8582    5.9829   -1.1991 C   0  0  1  0  0  0  0  0  0  0  0  0
   40.4429   -0.6590   -4.2611 C   0  0  0  0  0  0  0  0  0  0  0  0
   46.9168    6.9400   -7.9865 C   0  0  2  0  0  0  0  0  0  0  0  0
   48.1117    7.0237   -7.1441 N   0  0  0  0  0  0  0  0  0  0  0  0
   50.1890    3.9883   -6.0957 C   0  0  0  0  0  0  0  0  0  0  0  0
   44.4705    3.6709   -2.8354 C   0  0  2  0  0  0  0  0  0  0  0  0
   43.8237    2.3879   -2.4197 O   0  0  0  0  0  0  0  0  0  0  0  0
   43.1050    4.8874   -0.0241 C   0  0  2  0  0  0  0  0  0  0  0  0
   41.8655    4.0590    0.1282 N   0  0  0  0  0  0  0  0  0  0  0  0
   40.3823    0.0839   -5.4856 C   0  0  0  0  0  0  0  0  0  0  0  0
   40.7764   -0.5323   -6.7022 N   0  0  0  0  0  0  0  0  0  0  0  0
   45.6393    7.5905   -7.2790 C   0  0  1  0  0  0  0  0  0  0  0  0
   45.9318    8.9429   -6.9634 O   0  0  0  0  0  0  0  0  0  0  0  0
   48.8945    4.0649   -7.0898 C   0  0  2  0  0  0  0  0  0  0  0  0
   49.1458    4.9352   -8.2036 N   0  0  0  0  0  0  0  0  0  0  0  0
   43.5972    4.8592   -3.2806 C   0  0  2  0  0  0  0  0  0  0  0  0
   42.5536    5.2569   -2.4035 O   0  0  0  0  0  0  0  0  0  0  0  0
   43.4230    5.6604    1.2913 C   0  0  1  0  0  0  0  0  0  0  0  0
   44.6574    6.4199    1.0329 O   0  0  0  0  0  0  0  0  0  0  0  0
   41.2407   -1.8766   -6.7756 C   0  0  0  0  0  0  0  0  0  0  0  0
   44.4240    7.4706   -8.2439 C   0  0  2  0  0  0  0  0  0  0  0  0
   43.2032    8.0558   -7.6387 O   0  0  0  0  0  0  0  0  0  0  0  0
   47.6305    4.5819   -6.2870 C   0  0  2  0  0  0  0  0  0  0  0  0
   43.1072    4.4362   -4.6859 C   0  0  1  0  0  0  0  0  0  0  0  0
   42.1896    6.6528    1.6655 C   0  0  2  0  0  0  0  0  0  0  0  0
   40.9522    5.9006    1.9247 O   0  0  0  0  0  0  0  0  0  0  0  0
   41.3211   -2.6603   -5.5982 C   0  0  0  0  0  0  0  0  0  0  0  0
   44.1407    5.9571   -8.5850 C   0  0  2  0  0  0  0  0  0  0  0  0
   45.3692    5.4420   -9.1684 O   0  0  0  0  0  0  0  0  0  0  0  0
   47.3939    3.6014   -5.0862 C   0  0  2  0  0  0  0  0  0  0  0  0
   46.2437    4.1484   -4.4528 O   0  0  0  0  0  0  0  0  0  0  0  0
   43.0645    5.6079   -5.6654 C   0  0  0  0  0  0  0  0  0  0  0  0
   43.9799    6.6458   -5.4085 O   0  0  0  0  0  0  0  0  0  0  0  0
   41.9509    7.6795    0.4648 C   0  0  1  0  0  0  0  0  0  0  0  0
   41.6927    6.8875   -0.8004 O   0  0  0  0  0  0  0  0  0  0  0  0
   40.9221   -2.0631   -4.3027 C   0  0  0  0  0  0  0  0  0  0  0  0
   42.9998    5.9090   -9.5136 C   0  0  0  0  0  0  0  0  0  0  0  0
   41.8751    6.2153   -8.8549 O   0  0  0  0  0  0  0  0  0  0  0  0
   48.6568    3.5749   -4.1262 C   0  0  1  0  0  0  0  0  0  0  0  0
   48.4358    2.6945   -3.0738 O   0  0  0  0  0  0  0  0  0  0  0  0
   42.5855    1.7698   -2.9498 C   0  0  0  0  0  0  0  0  0  0  0  0
   40.7603    8.5897    0.8719 C   0  0  0  0  0  0  0  0  0  0  0  0
   39.5279    7.8414    0.8762 N   0  0  0  0  0  0  0  0  0  0  0  0
   42.4992    0.3557   -2.3665 C   0  0  0  0  0  0  0  0  0  0  0  0
   41.1179    0.1188   -1.8350 N   0  0  0  0  0  0  0  0  0  0  0  0
   39.9895    0.0632   -2.8998 C   0  0  0  0  0  0  0  0  0  0  0  0
  1  2  1  1  0  0  0
  1  9  1  0  0  0  0
  1 35  1  0  0  0  0
  3  4  1  1  0  0  0
  3 11  1  0  0  0  0
  3 45  1  0  0  0  0
  5  6  1  0  0  0  0
  5 12  1  0  0  0  0
  5 37  1  6  0  0  0
  6 30  1  0  0  0  0
  7 14  1  0  0  0  0
  7 41  1  0  0  0  0
  7 23  1  6  0  0  0
  8 16  2  0  0  0  0
  8 42  1  0  0  0  0
  9 10  1  1  0  0  0
  9 18  1  0  0  0  0
 11 20  1  0  0  0  0
 12 13  1  6  0  0  0
 12 22  1  0  0  0  0
 13 47  1  0  0  0  0
 14 15  1  1  0  0  0
 14 24  1  0  0  0  0
 16 17  1  0  0  0  0
 17 26  2  0  0  0  0
 18 19  1  6  0  0  0
 18 27  1  0  0  0  0
 20 21  1  6  0  0  0
 20 29  1  0  0  0  0
 22 23  1  1  0  0  0
 22 30  1  0  0  0  0
 24 25  1  6  0  0  0
 24 31  1  0  0  0  0
 26 33  1  0  0  0  0
 27 28  1  1  0  0  0
 27 34  1  0  0  0  0
 29  2  1  6  0  0  0
 29 36  1  0  0  0  0
 30 38  1  6  0  0  0
 31 32  1  6  0  0  0
 31 40  1  0  0  0  0
 33 42  2  0  0  0  0
 34 35  1  0  0  0  0
 34 43  1  6  0  0  0
 36 37  1  1  0  0  0
 36 45  1  0  0  0  0
 38 39  1  0  0  0  0
 40 41  1  0  0  0  0
 40 48  1  1  0  0  0
 43 44  1  0  0  0  0
 45 46  1  1  0  0  0
 47 50  1  0  0  0  0
 48 49  1  0  0  0  0
 50 51  1  0  0  0  0
 51 52  1  0  0  0  0
 52  8  1  0  0  0  0
M  END
>  <CHROM.1>
-58.45085839,-99.07029532,-89.77704780,-74.35703954,170.08199150,74.87091048
-57.49846634,-88.36820364,-72.00050910,127.20801544,-69.62152754,132.67470705
67.08875422,37.38251698,-120.52882047,44.18207428,4.33816676,-4.28763362
-0.37287345,0.81784162,0.67359145

>  <Name>
2be0_lig

>  <RI>
0

>  <Rbt.Current_Directory>
/home/itssahil/PROJECTS/Mol_Feturizer/New_Systems/rnas/2be0

>  <Rbt.Executable>
rbdock ($Id: //depot/dev/client3/rdock/2013.1/src/exe/rbdock.cxx#4 $)

>  <Rbt.Library>
libRbt.so (2013.1, Build901 2013/11/27)

>  <Rbt.Parameter_File>
/export/apps/rDock/src/rDock_2013.1_src/data/scripts/dock_solv.prm

>  <Rbt.Receptor>
prm/pocket_docking_2.prm

>  <SCORE>
2.78698

>  <SCORE.INTER>
0.780296

>  <SCORE.INTER.CONST>
1

>  <SCORE.INTER.POLAR>
-0.758145

>  <SCORE.INTER.ROT>
15

>  <SCORE.INTER.SOLV>
16.3188

>  <SCORE.INTER.VDW>
-15.9922

>  <SCORE.INTER.norm>
0.0150057

>  <SCORE.INTRA>
-1.21024

>  <SCORE.INTRA.DIHEDRAL>
-19.9661

>  <SCORE.INTRA.DIHEDRAL.0>
47.8724

>  <SCORE.INTRA.POLAR>
0

>  <SCORE.INTRA.POLAR.0>
0

>  <SCORE.INTRA.REPUL>
0

>  <SCORE.INTRA.REPUL.0>
0

>  <SCORE.INTRA.SOLV>
7.27159

>  <SCORE.INTRA.SOLV.lig_0>
-115.677

>  <SCORE.INTRA.VDW>
5.13702

>  <SCORE.INTRA.VDW.0>
-7.4833

>  <SCORE.INTRA.norm>
-0.0232739

>  <SCORE.RESTR>
3.21692

>  <SCORE.RESTR.CAVITY>
3.21692

>  <SCORE.RESTR.norm>
0.0618639

>  <SCORE.SYSTEM>
0

>  <SCORE.SYSTEM.CONST>
0

>  <SCORE.SYSTEM.DIHEDRAL>
0

>  <SCORE.SYSTEM.SOLV>
0

>  <SCORE.SYSTEM.norm>
0

>  <SCORE.heavy>
52

>  <SCORE.norm>
0.0535957

>  <RMSD>
2.547

$$$$
2be0_lig
 OpenBabel11021811423D
libRbt.so/2013.1/901 2013/11/27
 52 56  0  0  0  0  0  0  0  0999 V2000
   46.1264    6.7252   -7.8165 C   0  0  2  0  0  0  0  0  0  0  0  0
   45.9208    6.5046   -6.4411 O   0  0  0  0  0  0  0  0  0  0  0  0
   48.8853    3.4568   -5.3038 C   0  0  2  0  0  0  0  0  0  0  0  0
   49.9703    2.7823   -4.5373 N   0  0  0  0  0  0  0  0  0  0  0  0
   44.3201    3.6058   -4.3452 C   0  0  2  0  0  0  0  0  0  0  0  0
   43.0946    3.9590   -5.0187 O   0  0  0  0  0  0  0  0  0  0  0  0
   41.4597    5.6243   -1.0449 C   0  0  1  0  0  0  0  0  0  0  0  0
   40.8672   -1.8222   -6.3285 C   0  0  0  0  0  0  0  0  0  0  0  0
   45.5543    8.1319   -8.2633 C   0  0  2  0  0  0  0  0  0  0  0  0
   46.1258    9.1881   -7.4251 N   0  0  0  0  0  0  0  0  0  0  0  0
   49.3857    4.9043   -5.7542 C   0  0  0  0  0  0  0  0  0  0  0  0
   43.9633    3.3757   -2.8680 C   0  0  2  0  0  0  0  0  0  0  0  0
   43.5136    1.9495   -2.8350 O   0  0  0  0  0  0  0  0  0  0  0  0
   42.6462    6.7005   -0.7702 C   0  0  2  0  0  0  0  0  0  0  0  0
   43.6162    6.1073    0.2060 N   0  0  0  0  0  0  0  0  0  0  0  0
   40.6041   -0.4708   -6.7278 C   0  0  0  0  0  0  0  0  0  0  0  0
   39.5432   -0.1981   -7.6306 N   0  0  0  0  0  0  0  0  0  0  0  0
   43.9574    8.1099   -8.1919 C   0  0  1  0  0  0  0  0  0  0  0  0
   43.4655    9.3807   -8.5884 O   0  0  0  0  0  0  0  0  0  0  0  0
   48.2168    5.6846   -6.5877 C   0  0  2  0  0  0  0  0  0  0  0  0
   48.6554    6.9878   -7.0008 N   0  0  0  0  0  0  0  0  0  0  0  0
   42.9326    4.5075   -2.6956 C   0  0  2  0  0  0  0  0  0  0  0  0
   42.0755    4.4326   -1.5659 O   0  0  0  0  0  0  0  0  0  0  0  0
   41.9949    7.9931   -0.1921 C   0  0  1  0  0  0  0  0  0  0  0  0
   41.0818    8.4934   -1.2329 O   0  0  0  0  0  0  0  0  0  0  0  0
   38.7081   -1.2149   -8.1754 C   0  0  0  0  0  0  0  0  0  0  0  0
   43.4359    6.9723   -9.1172 C   0  0  2  0  0  0  0  0  0  0  0  0
   41.9550    6.8997   -9.0896 O   0  0  0  0  0  0  0  0  0  0  0  0
   46.9179    5.8213   -5.6913 C   0  0  2  0  0  0  0  0  0  0  0  0
   42.1844    4.5190   -4.0499 C   0  0  1  0  0  0  0  0  0  0  0  0
   41.1905    7.6457    1.1783 C   0  0  2  0  0  0  0  0  0  0  0  0
   42.0969    7.1447    2.2231 O   0  0  0  0  0  0  0  0  0  0  0  0
   38.9196   -2.5689   -7.8164 C   0  0  0  0  0  0  0  0  0  0  0  0
   44.0166    5.5801   -8.6569 C   0  0  2  0  0  0  0  0  0  0  0  0
   45.4638    5.7161   -8.7014 O   0  0  0  0  0  0  0  0  0  0  0  0
   46.4757    4.3774   -5.2683 C   0  0  2  0  0  0  0  0  0  0  0  0
   45.3103    4.6188   -4.4892 O   0  0  0  0  0  0  0  0  0  0  0  0
   41.8495    5.9340   -4.5187 C   0  0  0  0  0  0  0  0  0  0  0  0
   40.8872    6.6150   -3.7497 O   0  0  0  0  0  0  0  0  0  0  0  0
   40.0681    6.5504    0.8724 C   0  0  1  0  0  0  0  0  0  0  0  0
   40.7373    5.3323    0.2698 O   0  0  0  0  0  0  0  0  0  0  0  0
   40.0149   -2.9061   -6.8779 C   0  0  0  0  0  0  0  0  0  0  0  0
   43.5080    4.5513   -9.5783 C   0  0  0  0  0  0  0  0  0  0  0  0
   42.1834    4.4302   -9.4245 O   0  0  0  0  0  0  0  0  0  0  0  0
   47.6210    3.6611   -4.4360 C   0  0  1  0  0  0  0  0  0  0  0  0
   47.2182    2.3801   -4.0779 O   0  0  0  0  0  0  0  0  0  0  0  0
   42.4396    1.3068   -3.6285 C   0  0  0  0  0  0  0  0  0  0  0  0
   39.3439    6.2517    2.2132 C   0  0  0  0  0  0  0  0  0  0  0  0
   38.5628    7.3888    2.6323 N   0  0  0  0  0  0  0  0  0  0  0  0
   43.0462    0.0651   -4.2901 C   0  0  0  0  0  0  0  0  0  0  0  0
   42.1129   -1.0957   -4.1224 N   0  0  0  0  0  0  0  0  0  0  0  0
   42.0731   -2.1011   -5.3047 C   0  0  0  0  0  0  0  0  0  0  0  0
  1  2  1  1  0  0  0
  1  9  1  0  0  0  0
  1 35  1  0  0  0  0
  3  4  1  1  0  0  0
  3 11  1  0  0  0  0
  3 45  1  0  0  0  0
  5  6  1  0  0  0  0
  5 12  1  0  0  0  0
  5 37  1  1  0  0  0
  6 30  1  0  0  0  0
  7 14  1  0  0  0  0
  7 41  1  0  0  0  0
  7 23  1  1  0  0  0
  8 16  2  0  0  0  0
  8 42  1  0  0  0  0
  9 10  1  1  0  0  0
  9 18  1  0  0  0  0
 11 20  1  0  0  0  0
 12 13  1  6  0  0  0
 12 22  1  0  0  0  0
 13 47  1  0  0  0  0
 14 15  1  1  0  0  0
 14 24  1  0  0  0  0
 16 17  1  0  0  0  0
 17 26  2  0  0  0  0
 18 19  1  6  0  0  0
 18 27  1  0  0  0  0
 20 21  1  1  0  0  0
 20 29  1  0  0  0  0
 22 23  1  1  0  0  0
 22 30  1  0  0  0  0
 24 25  1  6  0  0  0
 24 31  1  0  0  0  0
 26 33  1  0  0  0  0
 27 28  1  1  0  0  0
 27 34  1  0  0  0  0
 29  2  1  6  0  0  0
 29 36  1  0  0  0  0
 30 38  1  6  0  0  0
 31 32  1  1  0  0  0
 31 40  1  0  0  0  0
 33 42  2  0  0  0  0
 34 35  1  0  0  0  0
 34 43  1  6  0  0  0
 36 37  1  1  0  0  0
 36 45  1  0  0  0  0
 38 39  1  0  0  0  0
 40 41  1  0  0  0  0
 40 48  1  1  0  0  0
 43 44  1  0  0  0  0
 45 46  1  6  0  0  0
 47 50  1  0  0  0  0
 48 49  1  0  0  0  0
 50 51  1  0  0  0  0
 51 52  1  0  0  0  0
 52  8  1  0  0  0  0
M  END
>  <CHROM.1>
-143.29360692,-111.61525945,-53.54510861,-56.04145642,127.93075850,156.62389668
10.41082020,175.41071135,-66.82018966,155.52571991,69.08927423,134.26909873
145.36591747,-96.37856233,43.93074010,43.38782249,4.48282512,-4.60862706
-0.95704278,0.82377227,0.78089278

>  <Name>
2be0_lig

>  <RI>
0

>  <Rbt.Current_Directory>
/home/itssahil/PROJECTS/Mol_Feturizer/New_Systems/rnas/2be0

>  <Rbt.Executable>
rbdock ($Id: //depot/dev/client3/rdock/2013.1/src/exe/rbdock.cxx#4 $)

>  <Rbt.Library>
libRbt.so (2013.1, Build901 2013/11/27)

>  <Rbt.Parameter_File>
/export/apps/rDock/src/rDock_2013.1_src/data/scripts/dock_solv.prm

>  <Rbt.Receptor>
prm/pocket_docking_2.prm

>  <SCORE>
6.35707

>  <SCORE.INTER>
3.96643

>  <SCORE.INTER.CONST>
1

>  <SCORE.INTER.POLAR>
-0.900792

>  <SCORE.INTER.ROT>
15

>  <SCORE.INTER.SOLV>
17.8668

>  <SCORE.INTER.VDW>
-13.9087

>  <SCORE.INTER.norm>
0.0762776

>  <SCORE.INTRA>
1.21504

>  <SCORE.INTRA.DIHEDRAL>
-9.32291

>  <SCORE.INTRA.DIHEDRAL.0>
47.8724

>  <SCORE.INTRA.POLAR>
0

>  <SCORE.INTRA.POLAR.0>
0

>  <SCORE.INTRA.REPUL>
0

>  <SCORE.INTRA.REPUL.0>
0

>  <SCORE.INTRA.SOLV>
0.214948

>  <SCORE.INTRA.SOLV.lig_0>
-115.677

>  <SCORE.INTRA.VDW>
5.76902

>  <SCORE.INTRA.VDW.0>
-7.4833

>  <SCORE.INTRA.norm>
0.0233662

>  <SCORE.RESTR>
1.17559

>  <SCORE.RESTR.CAVITY>
1.17559

>  <SCORE.RESTR.norm>
0.0226076

>  <SCORE.SYSTEM>
0

>  <SCORE.SYSTEM.CONST>
0

>  <SCORE.SYSTEM.DIHEDRAL>
0

>  <SCORE.SYSTEM.SOLV>
0

>  <SCORE.SYSTEM.norm>
0

>  <SCORE.heavy>
52

>  <SCORE.norm>
0.122251

>  <RMSD>
2.553

$$$$
2be0_lig
 OpenBabel11021811423D
libRbt.so/2013.1/901 2013/11/27
 52 56  0  0  0  0  0  0  0  0999 V2000
   45.8098    6.4184   -7.0041 C   0  0  2  0  0  0  0  0  0  0  0  0
   46.3943    6.6471   -5.7436 O   0  0  0  0  0  0  0  0  0  0  0  0
   47.2068    2.5424   -4.3789 C   0  0  2  0  0  0  0  0  0  0  0  0
   47.4943    1.4098   -3.4548 N   0  0  0  0  0  0  0  0  0  0  0  0
   43.1449    4.3083   -4.5246 C   0  0  2  0  0  0  0  0  0  0  0  0
   41.9681    4.9997   -4.9911 O   0  0  0  0  0  0  0  0  0  0  0  0
   40.8410    6.5902   -1.0132 C   0  0  1  0  0  0  0  0  0  0  0  0
   42.3660   -0.6582   -4.5472 C   0  0  0  0  0  0  0  0  0  0  0  0
   46.9141    6.1953   -8.1161 C   0  0  2  0  0  0  0  0  0  0  0  0
   47.8211    5.1215   -7.7052 N   0  0  0  0  0  0  0  0  0  0  0  0
   48.3290    3.6631   -4.1972 C   0  0  0  0  0  0  0  0  0  0  0  0
   42.9385    4.0450   -3.0245 C   0  0  2  0  0  0  0  0  0  0  0  0
   42.1572    2.7697   -2.9976 O   0  0  0  0  0  0  0  0  0  0  0  0
   41.8934    7.8281   -1.0496 C   0  0  2  0  0  0  0  0  0  0  0  0
   43.0211    7.5278   -0.1094 N   0  0  0  0  0  0  0  0  0  0  0  0
   41.8080   -1.9088   -4.9708 C   0  0  0  0  0  0  0  0  0  0  0  0
   40.8385   -1.9313   -6.0074 N   0  0  0  0  0  0  0  0  0  0  0  0
   47.6921    7.5661   -8.3834 C   0  0  1  0  0  0  0  0  0  0  0  0
   48.6812    7.3430   -9.3764 O   0  0  0  0  0  0  0  0  0  0  0  0
   48.0415    4.9322   -5.1854 C   0  0  2  0  0  0  0  0  0  0  0  0
   49.0457    5.9470   -5.0331 N   0  0  0  0  0  0  0  0  0  0  0  0
   42.2526    5.3709   -2.6448 C   0  0  2  0  0  0  0  0  0  0  0  0
   41.5590    5.4067   -1.4062 O   0  0  0  0  0  0  0  0  0  0  0  0
   41.1323    9.1160   -0.6126 C   0  0  1  0  0  0  0  0  0  0  0  0
   40.0671    9.3210   -1.6079 O   0  0  0  0  0  0  0  0  0  0  0  0
   40.3776   -0.7544   -6.6635 C   0  0  0  0  0  0  0  0  0  0  0  0
   46.6597    8.6434   -8.8257 C   0  0  2  0  0  0  0  0  0  0  0  0
   47.3242    9.9434   -9.0854 O   0  0  0  0  0  0  0  0  0  0  0  0
   46.6152    5.5457   -4.8710 C   0  0  2  0  0  0  0  0  0  0  0  0
   41.3602    5.6759   -3.8714 C   0  0  1  0  0  0  0  0  0  0  0  0
   40.5133    8.9174    0.8785 C   0  0  2  0  0  0  0  0  0  0  0  0
   41.5723    8.7116    1.8787 O   0  0  0  0  0  0  0  0  0  0  0  0
   40.8938    0.5104   -6.2884 C   0  0  0  0  0  0  0  0  0  0  0  0
   45.5684    8.8510   -7.7061 C   0  0  2  0  0  0  0  0  0  0  0  0
   44.9589    7.5475   -7.4954 O   0  0  0  0  0  0  0  0  0  0  0  0
   45.5544    4.4052   -5.0531 C   0  0  2  0  0  0  0  0  0  0  0  0
   44.3279    5.0643   -4.7618 O   0  0  0  0  0  0  0  0  0  0  0  0
   41.3286    7.1646   -4.2135 C   0  0  0  0  0  0  0  0  0  0  0  0
   40.4538    7.5285   -5.2544 O   0  0  0  0  0  0  0  0  0  0  0  0
   39.5237    7.6629    0.8801 C   0  0  1  0  0  0  0  0  0  0  0  0
   40.2903    6.4458    0.4051 O   0  0  0  0  0  0  0  0  0  0  0  0
   41.9073    0.5877   -5.2109 C   0  0  0  0  0  0  0  0  0  0  0  0
   44.6124    9.8606   -8.1885 C   0  0  0  0  0  0  0  0  0  0  0  0
   45.2051   11.0610   -8.2117 O   0  0  0  0  0  0  0  0  0  0  0  0
   45.8456    3.2040   -4.0583 C   0  0  1  0  0  0  0  0  0  0  0  0
   44.9039    2.1980   -4.2390 O   0  0  0  0  0  0  0  0  0  0  0  0
   41.4745    2.1352   -1.8454 C   0  0  0  0  0  0  0  0  0  0  0  0
   38.9746    7.5161    2.3252 C   0  0  0  0  0  0  0  0  0  0  0  0
   40.0010    7.0246    3.2105 N   0  0  0  0  0  0  0  0  0  0  0  0
   41.7724    0.6338   -1.9129 C   0  0  0  0  0  0  0  0  0  0  0  0
   43.2063    0.4265   -2.2970 N   0  0  0  0  0  0  0  0  0  0  0  0
   43.4621   -0.6629   -3.3731 C   0  0  0  0  0  0  0  0  0  0  0  0
  1  2  1  1  0  0  0
  1  9  1  0  0  0  0
  1 35  1  0  0  0  0
  3  4  1  1  0  0  0
  3 11  1  0  0  0  0
  3 45  1  0  0  0  0
  5  6  1  0  0  0  0
  5 12  1  0  0  0  0
  5 37  1  1  0  0  0
  6 30  1  0  0  0  0
  7 14  1  0  0  0  0
  7 41  1  0  0  0  0
  7 23  1  1  0  0  0
  8 16  2  0  0  0  0
  8 42  1  0  0  0  0
  9 10  1  1  0  0  0
  9 18  1  0  0  0  0
 11 20  1  0  0  0  0
 12 13  1  6  0  0  0
 12 22  1  0  0  0  0
 13 47  1  0  0  0  0
 14 15  1  1  0  0  0
 14 24  1  0  0  0  0
 16 17  1  0  0  0  0
 17 26  2  0  0  0  0
 18 19  1  6  0  0  0
 18 27  1  0  0  0  0
 20 21  1  1  0  0  0
 20 29  1  0  0  0  0
 22 23  1  1  0  0  0
 22 30  1  0  0  0  0
 24 25  1  6  0  0  0
 24 31  1  0  0  0  0
 26 33  1  0  0  0  0
 27 28  1  1  0  0  0
 27 34  1  0  0  0  0
 29  2  1  6  0  0  0
 29 36  1  0  0  0  0
 30 38  1  6  0  0  0
 31 32  1  1  0  0  0
 31 40  1  0  0  0  0
 33 42  2  0  0  0  0
 34 35  1  0  0  0  0
 34 43  1  6  0  0  0
 36 37  1  1  0  0  0
 36 45  1  0  0  0  0
 38 39  1  0  0  0  0
 40 41  1  0  0  0  0
 40 48  1  1  0  0  0
 43 44  1  0  0  0  0
 45 46  1  6  0  0  0
 47 50  1  0  0  0  0
 48 49  1  0  0  0  0
 50 51  1  0  0  0  0
 51 52  1  0  0  0  0
 52  8  1  0  0  0  0
M  END
>  <CHROM.1>
-92.59130553,-147.00764175,-55.62267386,-169.03423067,-137.16654521,-177.07009182
88.48253999,68.49853639,-70.26882739,-165.95060152,-72.02349601,41.07299142
-135.48461135,39.99532171,-134.40596554,43.61680552,5.20455751,-4.07928270
0.03439399,0.85719043,0.14294450

>  <Name>
2be0_lig

>  <RI>
0

>  <Rbt.Current_Directory>
/home/itssahil/PROJECTS/Mol_Feturizer/New_Systems/rnas/2be0

>  <Rbt.Executable>
rbdock ($Id: //depot/dev/client3/rdock/2013.1/src/exe/rbdock.cxx#4 $)

>  <Rbt.Library>
libRbt.so (2013.1, Build901 2013/11/27)

>  <Rbt.Parameter_File>
/export/apps/rDock/src/rDock_2013.1_src/data/scripts/dock_solv.prm

>  <Rbt.Receptor>
prm/pocket_docking_2.prm

>  <SCORE>
3.40249

>  <SCORE.INTER>
4.74563

>  <SCORE.INTER.CONST>
1

>  <SCORE.INTER.POLAR>
0

>  <SCORE.INTER.ROT>
15

>  <SCORE.INTER.SOLV>
17.292

>  <SCORE.INTER.VDW>
-16.2003

>  <SCORE.INTER.norm>
0.0912621

>  <SCORE.INTRA>
-4.79614

>  <SCORE.INTRA.DIHEDRAL>
-23.979

>  <SCORE.INTRA.DIHEDRAL.0>
47.8724

>  <SCORE.INTRA.POLAR>
0

>  <SCORE.INTRA.POLAR.0>
0

>  <SCORE.INTRA.REPUL>
0

>  <SCORE.INTRA.REPUL.0>
0

>  <SCORE.INTRA.SOLV>
5.54243

>  <SCORE.INTRA.SOLV.lig_0>
-115.677

>  <SCORE.INTRA.VDW>
4.42214

>  <SCORE.INTRA.VDW.0>
-7.4833

>  <SCORE.INTRA.norm>
-0.0922335

>  <SCORE.RESTR>
3.45301

>  <SCORE.RESTR.CAVITY>
3.45301

>  <SCORE.RESTR.norm>
0.066404

>  <SCORE.SYSTEM>
0

>  <SCORE.SYSTEM.CONST>
0

>  <SCORE.SYSTEM.DIHEDRAL>
0

>  <SCORE.SYSTEM.SOLV>
0

>  <SCORE.SYSTEM.norm>
0

>  <SCORE.heavy>
52

>  <SCORE.norm>
0.0654326

>  <RMSD>
2.791

$$$$
2be0_lig
 OpenBabel11021811423D
libRbt.so/2013.1/901 2013/11/27
 52 56  0  0  0  0  0  0  0  0999 V2000
   46.5267    7.2672   -8.2112 C   0  0  2  0  0  0  0  0  0  0  0  0
   46.5322    7.4669   -6.8174 O   0  0  0  0  0  0  0  0  0  0  0  0
   47.1228    3.3208   -5.4639 C   0  0  2  0  0  0  0  0  0  0  0  0
   47.4607    2.1797   -4.5677 N   0  0  0  0  0  0  0  0  0  0  0  0
   43.1885    5.7516   -5.4939 C   0  0  2  0  0  0  0  0  0  0  0  0
   42.2719    6.8554   -5.3457 O   0  0  0  0  0  0  0  0  0  0  0  0
   41.8870    5.7322   -0.8622 C   0  0  1  0  0  0  0  0  0  0  0  0
   40.6448   -0.6502   -4.8826 C   0  0  0  0  0  0  0  0  0  0  0  0
   46.0077    8.5544   -8.9726 C   0  0  2  0  0  0  0  0  0  0  0  0
   46.7947    9.7209   -8.5672 N   0  0  0  0  0  0  0  0  0  0  0  0
   48.3818    4.2971   -5.5642 C   0  0  0  0  0  0  0  0  0  0  0  0
   42.8174    4.7200   -4.4167 C   0  0  2  0  0  0  0  0  0  0  0  0
   41.7262    3.9225   -5.0576 O   0  0  0  0  0  0  0  0  0  0  0  0
   41.3883    4.6130    0.2055 C   0  0  2  0  0  0  0  0  0  0  0  0
   39.9606    4.2681   -0.0918 N   0  0  0  0  0  0  0  0  0  0  0  0
   41.1258   -1.9791   -5.1227 C   0  0  0  0  0  0  0  0  0  0  0  0
   42.0099   -2.5858   -4.1924 N   0  0  0  0  0  0  0  0  0  0  0  0
   44.4479    8.7560   -8.6859 C   0  0  1  0  0  0  0  0  0  0  0  0
   44.0047    9.9176   -9.3703 O   0  0  0  0  0  0  0  0  0  0  0  0
   48.0467    5.5724   -6.5292 C   0  0  2  0  0  0  0  0  0  0  0  0
   49.1725    6.4577   -6.6297 N   0  0  0  0  0  0  0  0  0  0  0  0
   42.4831    5.6894   -3.2672 C   0  0  2  0  0  0  0  0  0  0  0  0
   41.7405    5.1648   -2.1764 O   0  0  0  0  0  0  0  0  0  0  0  0
   41.5285    5.2192    1.6344 C   0  0  1  0  0  0  0  0  0  0  0  0
   42.9612    5.5018    1.8216 O   0  0  0  0  0  0  0  0  0  0  0  0
   42.4570   -1.9329   -3.0084 C   0  0  0  0  0  0  0  0  0  0  0  0
   43.6890    7.4813   -9.1564 C   0  0  2  0  0  0  0  0  0  0  0  0
   42.2319    7.6078   -8.9116 O   0  0  0  0  0  0  0  0  0  0  0  0
   46.7984    6.3639   -5.9594 C   0  0  2  0  0  0  0  0  0  0  0  0
   41.7896    6.8710   -3.9864 C   0  0  1  0  0  0  0  0  0  0  0  0
   40.6411    6.5773    1.7522 C   0  0  2  0  0  0  0  0  0  0  0  0
   39.2079    6.3025    1.5657 O   0  0  0  0  0  0  0  0  0  0  0  0
   42.0143   -0.6190   -2.7173 C   0  0  0  0  0  0  0  0  0  0  0  0
   44.2199    6.2107   -8.3876 C   0  0  2  0  0  0  0  0  0  0  0  0
   45.6464    6.1441   -8.6626 O   0  0  0  0  0  0  0  0  0  0  0  0
   45.5966    5.3604   -5.8710 C   0  0  2  0  0  0  0  0  0  0  0  0
   44.5430    6.1720   -5.3665 O   0  0  0  0  0  0  0  0  0  0  0  0
   42.1771    8.2237   -3.3914 C   0  0  0  0  0  0  0  0  0  0  0  0
   43.5415    8.5574   -3.4835 O   0  0  0  0  0  0  0  0  0  0  0  0
   41.1321    7.6295    0.6546 C   0  0  1  0  0  0  0  0  0  0  0  0
   41.0237    6.9843   -0.7117 O   0  0  0  0  0  0  0  0  0  0  0  0
   41.0914    0.0585   -3.6573 C   0  0  0  0  0  0  0  0  0  0  0  0
   43.4833    5.0390   -8.8882 C   0  0  0  0  0  0  0  0  0  0  0  0
   43.8040    4.8248  -10.1704 O   0  0  0  0  0  0  0  0  0  0  0  0
   45.9447    4.1521   -4.9033 C   0  0  1  0  0  0  0  0  0  0  0  0
   44.8747    3.2672   -4.8438 O   0  0  0  0  0  0  0  0  0  0  0  0
   41.7199    3.2834   -6.3947 C   0  0  0  0  0  0  0  0  0  0  0  0
   40.2457    8.8955    0.8067 C   0  0  0  0  0  0  0  0  0  0  0  0
   40.6962    9.9398   -0.0794 N   0  0  0  0  0  0  0  0  0  0  0  0
   41.5109    1.7812   -6.1779 C   0  0  0  0  0  0  0  0  0  0  0  0
   40.0626    1.4462   -6.3699 N   0  0  0  0  0  0  0  0  0  0  0  0
   39.6445    0.0109   -5.9515 C   0  0  0  0  0  0  0  0  0  0  0  0
  1  2  1  1  0  0  0
  1  9  1  0  0  0  0
  1 35  1  0  0  0  0
  3  4  1  1  0  0  0
  3 11  1  0  0  0  0
  3 45  1  0  0  0  0
  5  6  1  0  0  0  0
  5 12  1  0  0  0  0
  5 37  1  1  0  0  0
  6 30  1  0  0  0  0
  7 14  1  0  0  0  0
  7 41  1  0  0  0  0
  7 23  1  6  0  0  0
  8 16  2  0  0  0  0
  8 42  1  0  0  0  0
  9 10  1  1  0  0  0
  9 18  1  0  0  0  0
 11 20  1  0  0  0  0
 12 13  1  6  0  0  0
 12 22  1  0  0  0  0
 13 47  1  0  0  0  0
 14 15  1  6  0  0  0
 14 24  1  0  0  0  0
 16 17  1  0  0  0  0
 17 26  2  0  0  0  0
 18 19  1  6  0  0  0
 18 27  1  0  0  0  0
 20 21  1  1  0  0  0
 20 29  1  0  0  0  0
 22 23  1  1  0  0  0
 22 30  1  0  0  0  0
 24 25  1  6  0  0  0
 24 31  1  0  0  0  0
 26 33  1  0  0  0  0
 27 28  1  1  0  0  0
 27 34  1  0  0  0  0
 29  2  1  6  0  0  0
 29 36  1  0  0  0  0
 30 38  1  1  0  0  0
 31 32  1  6  0  0  0
 31 40  1  0  0  0  0
 33 42  2  0  0  0  0
 34 35  1  0  0  0  0
 34 43  1  6  0  0  0
 36 37  1  1  0  0  0
 36 45  1  0  0  0  0
 38 39  1  0  0  0  0
 40 41  1  0  0  0  0
 40 48  1  6  0  0  0
 43 44  1  0  0  0  0
 45 46  1  6  0  0  0
 47 50  1  0  0  0  0
 48 49  1  0  0  0  0
 50 51  1  0  0  0  0
 51 52  1  0  0  0  0
 52  8  1  0  0  0  0
M  END
>  <CHROM.1>
171.74894701,-160.73291726,-158.91362948,50.38633253,120.30627903,151.88149895
45.61838970,-53.89990684,66.37750207,161.99982452,175.35660751,97.50254890
-170.04990760,22.82773602,-131.37306784,43.26296840,5.11641858,-4.60932151
-0.03233337,1.02800248,0.38685680

>  <Name>
2be0_lig

>  <RI>
0

>  <Rbt.Current_Directory>
/home/itssahil/PROJECTS/Mol_Feturizer/New_Systems/rnas/2be0

>  <Rbt.Executable>
rbdock ($Id: //depot/dev/client3/rdock/2013.1/src/exe/rbdock.cxx#4 $)

>  <Rbt.Library>
libRbt.so (2013.1, Build901 2013/11/27)

>  <Rbt.Parameter_File>
/export/apps/rDock/src/rDock_2013.1_src/data/scripts/dock_solv.prm

>  <Rbt.Receptor>
prm/pocket_docking_2.prm

>  <SCORE>
-5.68872

>  <SCORE.INTER>
-0.100913

>  <SCORE.INTER.CONST>
1

>  <SCORE.INTER.POLAR>
-0.607728

>  <SCORE.INTER.ROT>
15

>  <SCORE.INTER.SOLV>
16.986

>  <SCORE.INTER.VDW>
-17.3035

>  <SCORE.INTER.norm>
-0.00194064

>  <SCORE.INTRA>
-9.57237

>  <SCORE.INTRA.DIHEDRAL>
-24.3098

>  <SCORE.INTRA.DIHEDRAL.0>
47.8724

>  <SCORE.INTRA.POLAR>
0

>  <SCORE.INTRA.POLAR.0>
0

>  <SCORE.INTRA.REPUL>
0

>  <SCORE.INTRA.REPUL.0>
0

>  <SCORE.INTRA.SOLV>
-1.88488

>  <SCORE.INTRA.SOLV.lig_0>
-115.677

>  <SCORE.INTRA.VDW>
3.52495

>  <SCORE.INTRA.VDW.0>
-7.4833

>  <SCORE.INTRA.norm>
-0.184084

>  <SCORE.RESTR>
3.98456

>  <SCORE.RESTR.CAVITY>
3.98456

>  <SCORE.RESTR.norm>
0.0766262

>  <SCORE.SYSTEM>
0

>  <SCORE.SYSTEM.CONST>
0

>  <SCORE.SYSTEM.DIHEDRAL>
0

>  <SCORE.SYSTEM.SOLV>
0

>  <SCORE.SYSTEM.norm>
0

>  <SCORE.heavy>
52

>  <SCORE.norm>
-0.109398

>  <RMSD>
2.885

$$$$
2be0_lig
 OpenBabel11021811423D
libRbt.so/2013.1/901 2013/11/27
 52 56  0  0  0  0  0  0  0  0999 V2000
   44.8247    7.9034   -7.6345 C   0  0  2  0  0  0  0  0  0  0  0  0
   45.8548    7.0785   -8.1257 O   0  0  0  0  0  0  0  0  0  0  0  0
   48.5602    4.2712   -6.0834 C   0  0  2  0  0  0  0  0  0  0  0  0
   49.6307    3.7767   -5.1730 N   0  0  0  0  0  0  0  0  0  0  0  0
   44.5603    5.4784   -4.5074 C   0  0  2  0  0  0  0  0  0  0  0  0
   43.4105    4.7309   -4.9543 O   0  0  0  0  0  0  0  0  0  0  0  0
   41.4899    7.0831   -2.0177 C   0  0  1  0  0  0  0  0  0  0  0  0
   42.7862    1.2086   -2.0331 C   0  0  0  0  0  0  0  0  0  0  0  0
   43.5183    7.7777   -8.5195 C   0  0  2  0  0  0  0  0  0  0  0  0
   43.1225    6.3715   -8.6218 N   0  0  0  0  0  0  0  0  0  0  0  0
   49.1723    5.3782   -7.0571 C   0  0  0  0  0  0  0  0  0  0  0  0
   44.0519    6.4989   -3.4766 C   0  0  2  0  0  0  0  0  0  0  0  0
   44.0360    5.7248   -2.1968 O   0  0  0  0  0  0  0  0  0  0  0  0
   40.2139    7.9235   -1.4639 C   0  0  2  0  0  0  0  0  0  0  0  0
   40.5507    9.3834   -1.4937 N   0  0  0  0  0  0  0  0  0  0  0  0
   41.4586    0.6712   -2.0926 C   0  0  0  0  0  0  0  0  0  0  0  0
   40.9077    0.2952   -3.3456 N   0  0  0  0  0  0  0  0  0  0  0  0
   43.7767    8.4323   -9.9550 C   0  0  1  0  0  0  0  0  0  0  0  0
   42.5978    8.3027  -10.7344 O   0  0  0  0  0  0  0  0  0  0  0  0
   48.0241    5.9578   -8.0649 C   0  0  2  0  0  0  0  0  0  0  0  0
   48.5627    6.9534   -8.9481 N   0  0  0  0  0  0  0  0  0  0  0  0
   42.7236    6.8797   -4.1574 C   0  0  2  0  0  0  0  0  0  0  0  0
   41.7544    7.5397   -3.3564 O   0  0  0  0  0  0  0  0  0  0  0  0
   39.9240    7.4488   -0.0080 C   0  0  1  0  0  0  0  0  0  0  0  0
   39.5919    6.0175   -0.1015 O   0  0  0  0  0  0  0  0  0  0  0  0
   41.6152    0.4267   -4.5745 C   0  0  0  0  0  0  0  0  0  0  0  0
   44.1779    9.9227   -9.7547 C   0  0  2  0  0  0  0  0  0  0  0  0
   44.4353   10.5848  -11.0564 O   0  0  0  0  0  0  0  0  0  0  0  0
   46.8358    6.5818   -7.2234 C   0  0  2  0  0  0  0  0  0  0  0  0
   42.2331    5.5409   -4.7582 C   0  0  1  0  0  0  0  0  0  0  0  0
   41.2335    7.6887    0.9266 C   0  0  2  0  0  0  0  0  0  0  0  0
   41.5715    9.1172    1.0243 O   0  0  0  0  0  0  0  0  0  0  0  0
   42.9314    0.9506   -4.5780 C   0  0  0  0  0  0  0  0  0  0  0  0
   45.4800   10.0271   -8.8709 C   0  0  2  0  0  0  0  0  0  0  0  0
   45.1666    9.3604   -7.6170 O   0  0  0  0  0  0  0  0  0  0  0  0
   46.2792    5.4603   -6.2792 C   0  0  2  0  0  0  0  0  0  0  0  0
   45.2238    6.1207   -5.5912 O   0  0  0  0  0  0  0  0  0  0  0  0
   41.5825    5.7207   -6.1288 C   0  0  0  0  0  0  0  0  0  0  0  0
   40.3480    6.3967   -6.1292 O   0  0  0  0  0  0  0  0  0  0  0  0
   42.4738    6.8849    0.3196 C   0  0  1  0  0  0  0  0  0  0  0  0
   42.6904    7.3424   -1.1082 O   0  0  0  0  0  0  0  0  0  0  0  0
   43.5513    1.3586   -3.2960 C   0  0  0  0  0  0  0  0  0  0  0  0
   45.7962   11.4542   -8.6990 C   0  0  0  0  0  0  0  0  0  0  0  0
   47.1021   11.5936   -8.4382 O   0  0  0  0  0  0  0  0  0  0  0  0
   47.4109    4.9427   -5.2950 C   0  0  1  0  0  0  0  0  0  0  0  0
   46.9051    3.9429   -4.4727 O   0  0  0  0  0  0  0  0  0  0  0  0
   43.3294    4.4564   -1.8996 C   0  0  0  0  0  0  0  0  0  0  0  0
   43.6919    7.1594    1.2428 C   0  0  0  0  0  0  0  0  0  0  0  0
   43.7684    6.1707    2.2894 N   0  0  0  0  0  0  0  0  0  0  0  0
   43.4768    4.1969   -0.3969 C   0  0  0  0  0  0  0  0  0  0  0  0
   42.7619    2.9296   -0.0370 N   0  0  0  0  0  0  0  0  0  0  0  0
   43.3846    1.6243   -0.6015 C   0  0  0  0  0  0  0  0  0  0  0  0
  1  2  1  6  0  0  0
  1  9  1  0  0  0  0
  1 35  1  0  0  0  0
  3  4  1  1  0  0  0
  3 11  1  0  0  0  0
  3 45  1  0  0  0  0
  5  6  1  0  0  0  0
  5 12  1  0  0  0  0
  5 37  1  6  0  0  0
  6 30  1  0  0  0  0
  7 14  1  0  0  0  0
  7 41  1  0  0  0  0
  7 23  1  6  0  0  0
  8 16  2  0  0  0  0
  8 42  1  0  0  0  0
  9 10  1  6  0  0  0
  9 18  1  0  0  0  0
 11 20  1  0  0  0  0
 12 13  1  1  0  0  0
 12 22  1  0  0  0  0
 13 47  1  0  0  0  0
 14 15  1  1  0  0  0
 14 24  1  0  0  0  0
 16 17  1  0  0  0  0
 17 26  2  0  0  0  0
 18 19  1  6  0  0  0
 18 27  1  0  0  0  0
 20 21  1  6  0  0  0
 20 29  1  0  0  0  0
 22 23  1  1  0  0  0
 22 30  1  0  0  0  0
 24 25  1  6  0  0  0
 24 31  1  0  0  0  0
 26 33  1  0  0  0  0
 27 28  1  6  0  0  0
 27 34  1  0  0  0  0
 29  2  1  6  0  0  0
 29 36  1  0  0  0  0
 30 38  1  6  0  0  0
 31 32  1  6  0  0  0
 31 40  1  0  0  0  0
 33 42  2  0  0  0  0
 34 35  1  0  0  0  0
 34 43  1  1  0  0  0
 36 37  1  1  0  0  0
 36 45  1  0  0  0  0
 38 39  1  0  0  0  0
 40 41  1  0  0  0  0
 40 48  1  1  0  0  0
 43 44  1  0  0  0  0
 45 46  1  1  0  0  0
 47 50  1  0  0  0  0
 48 49  1  0  0  0  0
 50 51  1  0  0  0  0
 51 52  1  0  0  0  0
 52  8  1  0  0  0  0
M  END
>  <CHROM.1>
-152.15671904,-91.04480940,-172.87977212,-56.53559680,-172.03406085,-43.41411069
-168.04065480,174.92938407,-155.87270939,-172.23171349,90.43837202,179.26130933
67.93151460,-90.89536076,-73.52558888,43.85279134,6.16618552,-4.54428528
0.86536615,0.91662126,-0.56434046

>  <Name>
2be0_lig

>  <RI>
0

>  <Rbt.Current_Directory>
/home/itssahil/PROJECTS/Mol_Feturizer/New_Systems/rnas/2be0

>  <Rbt.Executable>
rbdock ($Id: //depot/dev/client3/rdock/2013.1/src/exe/rbdock.cxx#4 $)

>  <Rbt.Library>
libRbt.so (2013.1, Build901 2013/11/27)

>  <Rbt.Parameter_File>
/export/apps/rDock/src/rDock_2013.1_src/data/scripts/dock_solv.prm

>  <Rbt.Receptor>
prm/pocket_docking_2.prm

>  <SCORE>
-20.8193

>  <SCORE.INTER>
-12.2612

>  <SCORE.INTER.CONST>
1

>  <SCORE.INTER.POLAR>
-0.944383

>  <SCORE.INTER.ROT>
15

>  <SCORE.INTER.SOLV>
25.1755

>  <SCORE.INTER.VDW>
-27.018

>  <SCORE.INTER.norm>
-0.235791

>  <SCORE.INTRA>
-12.3171

>  <SCORE.INTRA.DIHEDRAL>
-31.5445

>  <SCORE.INTRA.DIHEDRAL.0>
47.8724

>  <SCORE.INTRA.POLAR>
0

>  <SCORE.INTRA.POLAR.0>
0

>  <SCORE.INTRA.REPUL>
0.00022116

>  <SCORE.INTRA.REPUL.0>
0

>  <SCORE.INTRA.SOLV>
0.40619

>  <SCORE.INTRA.SOLV.lig_0>
-115.677

>  <SCORE.INTRA.VDW>
3.25099

>  <SCORE.INTRA.VDW.0>
-7.4833

>  <SCORE.INTRA.norm>
-0.236867

>  <SCORE.RESTR>
3.75889

>  <SCORE.RESTR.CAVITY>
3.75889

>  <SCORE.RESTR.norm>
0.0722863

>  <SCORE.SYSTEM>
0

>  <SCORE.SYSTEM.CONST>
0

>  <SCORE.SYSTEM.DIHEDRAL>
0

>  <SCORE.SYSTEM.SOLV>
0

>  <SCORE.SYSTEM.norm>
0

>  <SCORE.heavy>
52

>  <SCORE.norm>
-0.400372

>  <RMSD>
2.890

$$$$
2be0_lig
 OpenBabel11021811423D
libRbt.so/2013.1/901 2013/11/27
 52 56  0  0  0  0  0  0  0  0999 V2000
   46.7435    6.7073   -7.5272 C   0  0  2  0  0  0  0  0  0  0  0  0
   46.7847    6.7042   -6.1197 O   0  0  0  0  0  0  0  0  0  0  0  0
   48.9394    2.9668   -5.2482 C   0  0  2  0  0  0  0  0  0  0  0  0
   49.8592    2.0116   -4.5692 N   0  0  0  0  0  0  0  0  0  0  0  0
   44.7201    4.1323   -3.8278 C   0  0  2  0  0  0  0  0  0  0  0  0
   43.6169    4.3041   -4.7410 O   0  0  0  0  0  0  0  0  0  0  0  0
   42.7207    6.5026   -0.5352 C   0  0  1  0  0  0  0  0  0  0  0  0
   43.5341   -1.9679   -4.4969 C   0  0  0  0  0  0  0  0  0  0  0  0
   45.6882    7.7562   -8.0675 C   0  0  2  0  0  0  0  0  0  0  0  0
   45.9693    9.0778   -7.5027 N   0  0  0  0  0  0  0  0  0  0  0  0
   49.7641    4.2585   -5.6949 C   0  0  0  0  0  0  0  0  0  0  0  0
   44.1907    4.4704   -2.4250 C   0  0  2  0  0  0  0  0  0  0  0  0
   43.5837    3.1844   -1.9611 O   0  0  0  0  0  0  0  0  0  0  0  0
   43.2831    5.2088    0.2717 C   0  0  2  0  0  0  0  0  0  0  0  0
   42.1908    4.1868    0.3619 N   0  0  0  0  0  0  0  0  0  0  0  0
   42.4559   -2.4687   -3.6961 C   0  0  0  0  0  0  0  0  0  0  0  0
   41.4717   -3.3050   -4.2854 N   0  0  0  0  0  0  0  0  0  0  0  0
   44.2093    7.2589   -7.7189 C   0  0  1  0  0  0  0  0  0  0  0  0
   43.2801    8.2154   -8.2043 O   0  0  0  0  0  0  0  0  0  0  0  0
   48.7863    5.3399   -6.4327 C   0  0  2  0  0  0  0  0  0  0  0  0
   49.5168    6.5062   -6.8417 N   0  0  0  0  0  0  0  0  0  0  0  0
   43.2805    5.6564   -2.7962 C   0  0  2  0  0  0  0  0  0  0  0  0
   42.3093    6.0488   -1.8374 O   0  0  0  0  0  0  0  0  0  0  0  0
   43.7202    5.6831    1.6905 C   0  0  1  0  0  0  0  0  0  0  0  0
   44.7983    6.6636    1.4815 O   0  0  0  0  0  0  0  0  0  0  0  0
   41.4953   -3.6810   -5.6587 C   0  0  0  0  0  0  0  0  0  0  0  0
   43.9919    5.8600   -8.3654 C   0  0  2  0  0  0  0  0  0  0  0  0
   42.6334    5.3427   -8.0721 O   0  0  0  0  0  0  0  0  0  0  0  0
   47.6165    5.7632   -5.4519 C   0  0  2  0  0  0  0  0  0  0  0  0
   42.6806    5.2340   -4.1585 C   0  0  1  0  0  0  0  0  0  0  0  0
   42.4577    6.3538    2.4665 C   0  0  2  0  0  0  0  0  0  0  0  0
   41.3760    5.3795    2.6785 O   0  0  0  0  0  0  0  0  0  0  0  0
   42.5372   -3.2175   -6.4992 C   0  0  0  0  0  0  0  0  0  0  0  0
   45.0521    4.8299   -7.8154 C   0  0  2  0  0  0  0  0  0  0  0  0
   46.3560    5.3926   -8.1286 O   0  0  0  0  0  0  0  0  0  0  0  0
   46.8474    4.4613   -5.0363 C   0  0  2  0  0  0  0  0  0  0  0  0
   45.8266    4.9569   -4.1786 O   0  0  0  0  0  0  0  0  0  0  0  0
   42.5553    6.4072   -5.1290 C   0  0  0  0  0  0  0  0  0  0  0  0
   43.5233    7.4188   -4.9845 O   0  0  0  0  0  0  0  0  0  0  0  0
   41.9069    7.5891    1.6159 C   0  0  1  0  0  0  0  0  0  0  0  0
   41.5388    7.0939    0.2325 O   0  0  0  0  0  0  0  0  0  0  0  0
   43.5885   -2.3412   -5.9324 C   0  0  0  0  0  0  0  0  0  0  0  0
   44.8110    3.5371   -8.4761 C   0  0  0  0  0  0  0  0  0  0  0  0
   45.7584    2.6649   -8.1093 O   0  0  0  0  0  0  0  0  0  0  0  0
   47.8186    3.4479   -4.2966 C   0  0  1  0  0  0  0  0  0  0  0  0
   47.1252    2.2962   -3.9442 O   0  0  0  0  0  0  0  0  0  0  0  0
   44.2657    2.0048   -1.3781 C   0  0  0  0  0  0  0  0  0  0  0  0
   40.7013    8.1798    2.3964 C   0  0  0  0  0  0  0  0  0  0  0  0
   40.1192    9.2824    1.6724 N   0  0  0  0  0  0  0  0  0  0  0  0
   44.8762    1.2142   -2.5398 C   0  0  0  0  0  0  0  0  0  0  0  0
   44.0167    0.0231   -2.8388 N   0  0  0  0  0  0  0  0  0  0  0  0
   44.6342   -1.0250   -3.8033 C   0  0  0  0  0  0  0  0  0  0  0  0
  1  2  1  1  0  0  0
  1  9  1  0  0  0  0
  1 35  1  0  0  0  0
  3  4  1  1  0  0  0
  3 11  1  0  0  0  0
  3 45  1  0  0  0  0
  5  6  1  0  0  0  0
  5 12  1  0  0  0  0
  5 37  1  6  0  0  0
  6 30  1  0  0  0  0
  7 14  1  0  0  0  0
  7 41  1  0  0  0  0
  7 23  1  6  0  0  0
  8 16  2  0  0  0  0
  8 42  1  0  0  0  0
  9 10  1  1  0  0  0
  9 18  1  0  0  0  0
 11 20  1  0  0  0  0
 12 13  1  6  0  0  0
 12 22  1  0  0  0  0
 13 47  1  0  0  0  0
 14 15  1  1  0  0  0
 14 24  1  0  0  0  0
 16 17  1  0  0  0  0
 17 26  2  0  0  0  0
 18 19  1  6  0  0  0
 18 27  1  0  0  0  0
 20 21  1  1  0  0  0
 20 29  1  0  0  0  0
 22 23  1  1  0  0  0
 22 30  1  0  0  0  0
 24 25  1  6  0  0  0
 24 31  1  0  0  0  0
 26 33  1  0  0  0  0
 27 28  1  1  0  0  0
 27 34  1  0  0  0  0
 29  2  1  6  0  0  0
 29 36  1  0  0  0  0
 30 38  1  6  0  0  0
 31 32  1  6  0  0  0
 31 40  1  0  0  0  0
 33 42  2  0  0  0  0
 34 35  1  0  0  0  0
 34 43  1  6  0  0  0
 36 37  1  1  0  0  0
 36 45  1  0  0  0  0
 38 39  1  0  0  0  0
 40 41  1  0  0  0  0
 40 48  1  1  0  0  0
 43 44  1  0  0  0  0
 45 46  1  6  0  0  0
 47 50  1  0  0  0  0
 48 49  1  0  0  0  0
 50 51  1  0  0  0  0
 51 52  1  0  0  0  0
 52  8  1  0  0  0  0
M  END
>  <CHROM.1>
176.06918624,-91.59029994,-70.84680643,81.00841872,-79.51575880,61.07505109
24.72701493,-85.54227652,175.28581503,165.49754522,-178.35619098,-102.28708802
-168.78784306,-159.25745840,-42.19279599,44.44139676,4.28922276,-3.92579262
-0.61151969,1.05595296,0.25011522

>  <Name>
2be0_lig

>  <RI>
0

>  <Rbt.Current_Directory>
/home/itssahil/PROJECTS/Mol_Feturizer/New_Systems/rnas/2be0

>  <Rbt.Executable>
rbdock ($Id: //depot/dev/client3/rdock/2013.1/src/exe/rbdock.cxx#4 $)

>  <Rbt.Library>
libRbt.so (2013.1, Build901 2013/11/27)

>  <Rbt.Parameter_File>
/export/apps/rDock/src/rDock_2013.1_src/data/scripts/dock_solv.prm

>  <Rbt.Receptor>
prm/pocket_docking_4.prm

>  <SCORE>
-21.9011

>  <SCORE.INTER>
-11.5511

>  <SCORE.INTER.CONST>
1

>  <SCORE.INTER.POLAR>
-0.959166

>  <SCORE.INTER.ROT>
15

>  <SCORE.INTER.SOLV>
18.7343

>  <SCORE.INTER.VDW>
-24.3483

>  <SCORE.INTER.norm>
-0.222136

>  <SCORE.INTRA>
-10.35

>  <SCORE.INTRA.DIHEDRAL>
-26.1811

>  <SCORE.INTRA.DIHEDRAL.0>
47.8724

>  <SCORE.INTRA.POLAR>
0

>  <SCORE.INTRA.POLAR.0>
0

>  <SCORE.INTRA.REPUL>
0

>  <SCORE.INTRA.REPUL.0>
0

>  <SCORE.INTRA.SOLV>
1.92309

>  <SCORE.INTRA.SOLV.lig_0>
-115.677

>  <SCORE.INTRA.VDW>
1.77898

>  <SCORE.INTRA.VDW.0>
-7.4833

>  <SCORE.INTRA.norm>
-0.199039

>  <SCORE.RESTR>
0

>  <SCORE.RESTR.CAVITY>
0

>  <SCORE.RESTR.norm>
0

>  <SCORE.SYSTEM>
0

>  <SCORE.SYSTEM.CONST>
0

>  <SCORE.SYSTEM.DIHEDRAL>
0

>  <SCORE.SYSTEM.SOLV>
0

>  <SCORE.SYSTEM.norm>
0

>  <SCORE.heavy>
52

>  <SCORE.norm>
-0.421175

>  <RMSD>
2.915

$$$$
2be0_lig
 OpenBabel11021811423D
libRbt.so/2013.1/901 2013/11/27
 52 56  0  0  0  0  0  0  0  0999 V2000
   46.5571    6.7324   -7.4045 C   0  0  2  0  0  0  0  0  0  0  0  0
   46.4377    6.7397   -6.0015 O   0  0  0  0  0  0  0  0  0  0  0  0
   47.9612    2.7259   -5.0323 C   0  0  2  0  0  0  0  0  0  0  0  0
   48.5848    1.6202   -4.2525 N   0  0  0  0  0  0  0  0  0  0  0  0
   43.6731    4.1639   -4.4787 C   0  0  2  0  0  0  0  0  0  0  0  0
   42.4891    4.9521   -4.7178 O   0  0  0  0  0  0  0  0  0  0  0  0
   41.7770    5.5774   -0.2997 C   0  0  1  0  0  0  0  0  0  0  0  0
   39.3457   -0.5641   -6.1033 C   0  0  0  0  0  0  0  0  0  0  0  0
   45.7302    7.9143   -8.0564 C   0  0  2  0  0  0  0  0  0  0  0  0
   46.1311    9.1889   -7.4570 N   0  0  0  0  0  0  0  0  0  0  0  0
   48.9809    3.9518   -5.1079 C   0  0  0  0  0  0  0  0  0  0  0  0
   43.5203    3.5486   -3.0785 C   0  0  2  0  0  0  0  0  0  0  0  0
   42.7232    2.3076   -3.3273 O   0  0  0  0  0  0  0  0  0  0  0  0
   43.0857    6.4655    0.0744 C   0  0  2  0  0  0  0  0  0  0  0  0
   44.0692    5.5925    0.7930 N   0  0  0  0  0  0  0  0  0  0  0  0
   38.5617   -1.5447   -5.4115 C   0  0  0  0  0  0  0  0  0  0  0  0
   38.5049   -2.8748   -5.9041 N   0  0  0  0  0  0  0  0  0  0  0  0
   44.1657    7.6364   -7.8807 C   0  0  1  0  0  0  0  0  0  0  0  0
   43.4434    8.7097   -8.4642 O   0  0  0  0  0  0  0  0  0  0  0  0
   48.3279    5.1939   -5.9451 C   0  0  2  0  0  0  0  0  0  0  0  0
   49.2366    6.3028   -6.0223 N   0  0  0  0  0  0  0  0  0  0  0  0
   42.8676    4.7472   -2.3644 C   0  0  2  0  0  0  0  0  0  0  0  0
   42.2222    4.4871   -1.1265 O   0  0  0  0  0  0  0  0  0  0  0  0
   42.6204    7.6439    0.9820 C   0  0  1  0  0  0  0  0  0  0  0  0
   41.6783    8.4366    0.1748 O   0  0  0  0  0  0  0  0  0  0  0  0
   39.1972   -3.2984   -7.0743 C   0  0  0  0  0  0  0  0  0  0  0  0
   43.8258    6.2752   -8.5544 C   0  0  2  0  0  0  0  0  0  0  0  0
   42.3830    5.9598   -8.4201 O   0  0  0  0  0  0  0  0  0  0  0  0
   46.9808    5.6588   -5.2532 C   0  0  2  0  0  0  0  0  0  0  0  0
   41.9335    5.3419   -3.4450 C   0  0  1  0  0  0  0  0  0  0  0  0
   41.9033    7.0644    2.3221 C   0  0  2  0  0  0  0  0  0  0  0  0
   42.8389    6.2707    3.1338 O   0  0  0  0  0  0  0  0  0  0  0  0
   39.9888   -2.3738   -7.7991 C   0  0  0  0  0  0  0  0  0  0  0  0
   44.6591    5.1113   -7.8923 C   0  0  2  0  0  0  0  0  0  0  0  0
   46.0569    5.4793   -8.0523 O   0  0  0  0  0  0  0  0  0  0  0  0
   46.0219    4.4194   -5.1944 C   0  0  2  0  0  0  0  0  0  0  0  0
   44.8566    4.9499   -4.5748 O   0  0  0  0  0  0  0  0  0  0  0  0
   41.9094    6.8693   -3.4181 C   0  0  0  0  0  0  0  0  0  0  0  0
   40.9765    7.4756   -4.2803 O   0  0  0  0  0  0  0  0  0  0  0  0
   40.6536    6.1596    1.9069 C   0  0  1  0  0  0  0  0  0  0  0  0
   41.1421    5.0575    0.9896 O   0  0  0  0  0  0  0  0  0  0  0  0
   40.0802   -0.9728   -7.3266 C   0  0  0  0  0  0  0  0  0  0  0  0
   44.3125    3.8583   -8.5823 C   0  0  0  0  0  0  0  0  0  0  0  0
   44.9646    2.8386   -8.0098 O   0  0  0  0  0  0  0  0  0  0  0  0
   46.6738    3.2452   -4.3496 C   0  0  1  0  0  0  0  0  0  0  0  0
   45.8170    2.1514   -4.3156 O   0  0  0  0  0  0  0  0  0  0  0  0
   43.0598    1.1600   -4.2025 C   0  0  0  0  0  0  0  0  0  0  0  0
   40.0184    5.6275    3.2203 C   0  0  0  0  0  0  0  0  0  0  0  0
   38.8809    4.7902    2.9308 N   0  0  0  0  0  0  0  0  0  0  0  0
   41.7437    0.4631   -4.5623 C   0  0  0  0  0  0  0  0  0  0  0  0
   40.8365    1.4361   -5.2529 N   0  0  0  0  0  0  0  0  0  0  0  0
   39.3928    0.9328   -5.5224 C   0  0  0  0  0  0  0  0  0  0  0  0
  1  2  1  1  0  0  0
  1  9  1  0  0  0  0
  1 35  1  0  0  0  0
  3  4  1  1  0  0  0
  3 11  1  0  0  0  0
  3 45  1  0  0  0  0
  5  6  1  0  0  0  0
  5 12  1  0  0  0  0
  5 37  1  1  0  0  0
  6 30  1  0  0  0  0
  7 14  1  0  0  0  0
  7 41  1  0  0  0  0
  7 23  1  6  0  0  0
  8 16  2  0  0  0  0
  8 42  1  0  0  0  0
  9 10  1  1  0  0  0
  9 18  1  0  0  0  0
 11 20  1  0  0  0  0
 12 13  1  6  0  0  0
 12 22  1  0  0  0  0
 13 47  1  0  0  0  0
 14 15  1  1  0  0  0
 14 24  1  0  0  0  0
 16 17  1  0  0  0  0
 17 26  2  0  0  0  0
 18 19  1  6  0  0  0
 18 27  1  0  0  0  0
 20 21  1  1  0  0  0
 20 29  1  0  0  0  0
 22 23  1  1  0  0  0
 22 30  1  0  0  0  0
 24 25  1  6  0  0  0
 24 31  1  0  0  0  0
 26 33  1  0  0  0  0
 27 28  1  1  0  0  0
 27 34  1  0  0  0  0
 29  2  1  6  0  0  0
 29 36  1  0  0  0  0
 30 38  1  6  0  0  0
 31 32  1  6  0  0  0
 31 40  1  0  0  0  0
 33 42  2  0  0  0  0
 34 35  1  0  0  0  0
 34 43  1  6  0  0  0
 36 37  1  1  0  0  0
 36 45  1  0  0  0  0
 38 39  1  0  0  0  0
 40 41  1  0  0  0  0
 40 48  1  1  0  0  0
 43 44  1  0  0  0  0
 45 46  1  6  0  0  0
 47 50  1  0  0  0  0
 48 49  1  0  0  0  0
 50 51  1  0  0  0  0
 51 52  1  0  0  0  0
 52  8  1  0  0  0  0
M  END
>  <CHROM.1>
172.56499122,-140.34842762,-59.83066557,58.80029966,-157.15123206,170.14087888
36.66117154,70.06521943,-177.61368046,172.58945437,-179.67677545,58.81121377
-172.57901979,-44.65005552,124.62059334,43.35126697,4.31940591,-4.17532743
-1.02043875,0.77833519,0.94965201

>  <Name>
2be0_lig

>  <RI>
0

>  <Rbt.Current_Directory>
/home/itssahil/PROJECTS/Mol_Feturizer/New_Systems/rnas/2be0

>  <Rbt.Executable>
rbdock ($Id: //depot/dev/client3/rdock/2013.1/src/exe/rbdock.cxx#4 $)

>  <Rbt.Library>
libRbt.so (2013.1, Build901 2013/11/27)

>  <Rbt.Parameter_File>
/export/apps/rDock/src/rDock_2013.1_src/data/scripts/dock_solv.prm

>  <Rbt.Receptor>
prm/pocket_docking_4.prm

>  <SCORE>
-15.6367

>  <SCORE.INTER>
0.985308

>  <SCORE.INTER.CONST>
1

>  <SCORE.INTER.POLAR>
-0.901652

>  <SCORE.INTER.ROT>
15

>  <SCORE.INTER.SOLV>
19.6747

>  <SCORE.INTER.VDW>
-16.4959

>  <SCORE.INTER.norm>
0.0189482

>  <SCORE.INTRA>
-16.6221

>  <SCORE.INTRA.DIHEDRAL>
-35.043

>  <SCORE.INTRA.DIHEDRAL.0>
47.8724

>  <SCORE.INTRA.POLAR>
0

>  <SCORE.INTRA.POLAR.0>
0

>  <SCORE.INTRA.REPUL>
0

>  <SCORE.INTRA.REPUL.0>
0

>  <SCORE.INTRA.SOLV>
-1.81562

>  <SCORE.INTRA.SOLV.lig_0>
-115.677

>  <SCORE.INTRA.VDW>
1.80723

>  <SCORE.INTRA.VDW.0>
-7.4833

>  <SCORE.INTRA.norm>
-0.319655

>  <SCORE.RESTR>
0

>  <SCORE.RESTR.CAVITY>
0

>  <SCORE.RESTR.norm>
0

>  <SCORE.SYSTEM>
0

>  <SCORE.SYSTEM.CONST>
0

>  <SCORE.SYSTEM.DIHEDRAL>
0

>  <SCORE.SYSTEM.SOLV>
0

>  <SCORE.SYSTEM.norm>
0

>  <SCORE.heavy>
52

>  <SCORE.norm>
-0.300707

>  <RMSD>
2.999

$$$$
2be0_lig
 OpenBabel11021811423D
libRbt.so/2013.1/901 2013/11/27
 52 56  0  0  0  0  0  0  0  0999 V2000
   44.0556    7.5765   -7.5172 C   0  0  2  0  0  0  0  0  0  0  0  0
   45.1614    6.7351   -7.7453 O   0  0  0  0  0  0  0  0  0  0  0  0
   47.4130    3.8620   -5.2863 C   0  0  2  0  0  0  0  0  0  0  0  0
   48.1806    3.3110   -4.1345 N   0  0  0  0  0  0  0  0  0  0  0  0
   42.7542    4.4280   -5.9399 C   0  0  2  0  0  0  0  0  0  0  0  0
   41.5100    5.1576   -5.9255 O   0  0  0  0  0  0  0  0  0  0  0  0
   41.5340    3.9220   -1.3366 C   0  0  1  0  0  0  0  0  0  0  0  0
   42.6971    0.1277   -3.3676 C   0  0  0  0  0  0  0  0  0  0  0  0
   43.0817    7.5942   -8.7649 C   0  0  2  0  0  0  0  0  0  0  0  0
   42.6942    6.2250   -9.1105 N   0  0  0  0  0  0  0  0  0  0  0  0
   48.1461    5.1746   -5.8230 C   0  0  0  0  0  0  0  0  0  0  0  0
   42.6620    3.3732   -4.8258 C   0  0  2  0  0  0  0  0  0  0  0  0
   41.9625    2.2277   -5.4859 O   0  0  0  0  0  0  0  0  0  0  0  0
   40.1001    4.3928   -0.7337 C   0  0  2  0  0  0  0  0  0  0  0  0
   39.5713    5.5157   -1.5733 N   0  0  0  0  0  0  0  0  0  0  0  0
   42.1952    0.7640   -2.1852 C   0  0  0  0  0  0  0  0  0  0  0  0
   43.1033    1.3150   -1.2436 N   0  0  0  0  0  0  0  0  0  0  0  0
   43.7888    8.3427   -9.9879 C   0  0  1  0  0  0  0  0  0  0  0  0
   42.9034    8.3410  -11.0971 O   0  0  0  0  0  0  0  0  0  0  0  0
   47.3260    5.8194   -7.0806 C   0  0  2  0  0  0  0  0  0  0  0  0
   47.9767    7.0001   -7.5743 N   0  0  0  0  0  0  0  0  0  0  0  0
   41.9236    4.2132   -3.7666 C   0  0  2  0  0  0  0  0  0  0  0  0
   41.3111    3.5084   -2.6967 O   0  0  0  0  0  0  0  0  0  0  0  0
   40.3286    4.8569    0.7365 C   0  0  1  0  0  0  0  0  0  0  0  0
   40.8282    3.6796    1.4657 O   0  0  0  0  0  0  0  0  0  0  0  0
   44.5168    1.2683   -1.4108 C   0  0  0  0  0  0  0  0  0  0  0  0
   44.1537    9.7878   -9.5400 C   0  0  2  0  0  0  0  0  0  0  0  0
   44.8189   10.5333  -10.6358 O   0  0  0  0  0  0  0  0  0  0  0  0
   45.8487    6.1754   -6.6328 C   0  0  2  0  0  0  0  0  0  0  0  0
   40.9365    5.0592   -4.6057 C   0  0  1  0  0  0  0  0  0  0  0  0
   41.4077    6.0735    0.7745 C   0  0  2  0  0  0  0  0  0  0  0  0
   40.9153    7.2537    0.0472 O   0  0  0  0  0  0  0  0  0  0  0  0
   45.0713    0.6532   -2.5602 C   0  0  0  0  0  0  0  0  0  0  0  0
   45.1233    9.7493   -8.2967 C   0  0  2  0  0  0  0  0  0  0  0  0
   44.4194    9.0060   -7.2637 O   0  0  0  0  0  0  0  0  0  0  0  0
   45.1793    4.8588   -6.1060 C   0  0  2  0  0  0  0  0  0  0  0  0
   43.8715    5.2897   -5.7489 O   0  0  0  0  0  0  0  0  0  0  0  0
   40.7930    6.4845   -4.0747 C   0  0  0  0  0  0  0  0  0  0  0  0
   41.9641    7.2646   -4.1097 O   0  0  0  0  0  0  0  0  0  0  0  0
   42.7846    5.5826    0.1293 C   0  0  1  0  0  0  0  0  0  0  0  0
   42.5091    5.0974   -1.2790 O   0  0  0  0  0  0  0  0  0  0  0  0
   44.1657    0.0622   -3.5726 C   0  0  0  0  0  0  0  0  0  0  0  0
   45.4142   11.1384   -7.9073 C   0  0  0  0  0  0  0  0  0  0  0  0
   46.3304   11.6520   -8.7377 O   0  0  0  0  0  0  0  0  0  0  0  0
   45.9828    4.2775   -4.8676 C   0  0  1  0  0  0  0  0  0  0  0  0
   45.3835    3.1065   -4.4192 O   0  0  0  0  0  0  0  0  0  0  0  0
   40.5049    1.9987   -5.6246 C   0  0  0  0  0  0  0  0  0  0  0  0
   43.7678    6.7834    0.1827 C   0  0  0  0  0  0  0  0  0  0  0  0
   44.7766    6.6590   -0.8399 N   0  0  0  0  0  0  0  0  0  0  0  0
   39.9946    1.4939   -4.2710 C   0  0  0  0  0  0  0  0  0  0  0  0
   40.1940    0.0109   -4.1843 N   0  0  0  0  0  0  0  0  0  0  0  0
   41.6464   -0.4857   -4.4164 C   0  0  0  0  0  0  0  0  0  0  0  0
  1  2  1  6  0  0  0
  1  9  1  0  0  0  0
  1 35  1  0  0  0  0
  3  4  1  1  0  0  0
  3 11  1  0  0  0  0
  3 45  1  0  0  0  0
  5  6  1  0  0  0  0
  5 12  1  0  0  0  0
  5 37  1  1  0  0  0
  6 30  1  0  0  0  0
  7 14  1  0  0  0  0
  7 41  1  0  0  0  0
  7 23  1  6  0  0  0
  8 16  2  0  0  0  0
  8 42  1  0  0  0  0
  9 10  1  6  0  0  0
  9 18  1  0  0  0  0
 11 20  1  0  0  0  0
 12 13  1  6  0  0  0
 12 22  1  0  0  0  0
 13 47  1  0  0  0  0
 14 15  1  6  0  0  0
 14 24  1  0  0  0  0
 16 17  1  0  0  0  0
 17 26  2  0  0  0  0
 18 19  1  6  0  0  0
 18 27  1  0  0  0  0
 20 21  1  1  0  0  0
 20 29  1  0  0  0  0
 22 23  1  1  0  0  0
 22 30  1  0  0  0  0
 24 25  1  1  0  0  0
 24 31  1  0  0  0  0
 26 33  1  0  0  0  0
 27 28  1  6  0  0  0
 27 34  1  0  0  0  0
 29  2  1  6  0  0  0
 29 36  1  0  0  0  0
 30 38  1  1  0  0  0
 31 32  1  6  0  0  0
 31 40  1  0  0  0  0
 33 42  2  0  0  0  0
 34 35  1  0  0  0  0
 34 43  1  1  0  0  0
 36 37  1  1  0  0  0
 36 45  1  0  0  0  0
 38 39  1  0  0  0  0
 40 41  1  0  0  0  0
 40 48  1  6  0  0  0
 43 44  1  0  0  0  0
 45 46  1  6  0  0  0
 47 50  1  0  0  0  0
 48 49  1  0  0  0  0
 50 51  1  0  0  0  0
 51 52  1  0  0  0  0
 52  8  1  0  0  0  0
M  END
>  <CHROM.1>
-155.68812919,-161.83764382,116.39109045,-86.42144432,-77.27846578,130.87962169
-156.20870783,-53.22390618,-78.43263527,144.55313936,-155.22719403,-84.78977693
55.45642434,59.37207686,14.76849884,43.36474413,5.14997009,-4.66566967,0.88160093
1.02261300,-0.26952131

>  <Name>
2be0_lig

>  <RI>
2.10017e+07

>  <Rbt.Current_Directory>
/home/itssahil/PROJECTS/Mol_Feturizer/New_Systems/rnas/2be0

>  <Rbt.Executable>
rbdock ($Id: //depot/dev/client3/rdock/2013.1/src/exe/rbdock.cxx#4 $)

>  <Rbt.Library>
libRbt.so (2013.1, Build901 2013/11/27)

>  <Rbt.Parameter_File>
/export/apps/rDock/src/rDock_2013.1_src/data/scripts/dock_solv.prm

>  <Rbt.Receptor>
prm/pocket_docking_3.prm

>  <SCORE>
-18.1899

>  <SCORE.INTER>
-13.5006

>  <SCORE.INTER.CONST>
1

>  <SCORE.INTER.POLAR>
-1.83584

>  <SCORE.INTER.ROT>
15

>  <SCORE.INTER.SOLV>
21.5141

>  <SCORE.INTER.VDW>
-23.6524

>  <SCORE.INTER.norm>
-0.259628

>  <SCORE.INTRA>
-4.6892

>  <SCORE.INTRA.DIHEDRAL>
-12.5549

>  <SCORE.INTRA.DIHEDRAL.0>
47.8724

>  <SCORE.INTRA.POLAR>
0

>  <SCORE.INTRA.POLAR.0>
0

>  <SCORE.INTRA.REPUL>
0.00355377

>  <SCORE.INTRA.REPUL.0>
0

>  <SCORE.INTRA.SOLV>
3.8399

>  <SCORE.INTRA.SOLV.lig_0>
-115.677

>  <SCORE.INTRA.VDW>
-0.349475

>  <SCORE.INTRA.VDW.0>
-7.4833

>  <SCORE.INTRA.norm>
-0.090177

>  <SCORE.RESTR>
0

>  <SCORE.RESTR.CAVITY>
0

>  <SCORE.RESTR.norm>
0

>  <SCORE.SYSTEM>
0

>  <SCORE.SYSTEM.CONST>
0

>  <SCORE.SYSTEM.DIHEDRAL>
0

>  <SCORE.SYSTEM.SOLV>
0

>  <SCORE.SYSTEM.norm>
0

>  <SCORE.heavy>
52

>  <SCORE.norm>
-0.349805

>  <RMSD>
3.118

$$$$
2be0_lig
 OpenBabel11021811423D
libRbt.so/2013.1/901 2013/11/27
 52 56  0  0  0  0  0  0  0  0999 V2000
   45.8323    6.4795   -7.5877 C   0  0  2  0  0  0  0  0  0  0  0  0
   45.3515    6.4295   -6.2651 O   0  0  0  0  0  0  0  0  0  0  0  0
   46.5517    2.3628   -5.0852 C   0  0  2  0  0  0  0  0  0  0  0  0
   46.9675    1.2272   -4.2151 N   0  0  0  0  0  0  0  0  0  0  0  0
   42.4566    3.8129   -4.7031 C   0  0  2  0  0  0  0  0  0  0  0  0
   41.2373    3.8515   -5.4727 O   0  0  0  0  0  0  0  0  0  0  0  0
   40.4001    7.1082   -2.0020 C   0  0  1  0  0  0  0  0  0  0  0  0
   41.0714   -1.5474   -3.3282 C   0  0  0  0  0  0  0  0  0  0  0  0
   45.5701    7.8979   -8.2396 C   0  0  2  0  0  0  0  0  0  0  0  0
   46.1349    8.9468   -7.3879 N   0  0  0  0  0  0  0  0  0  0  0  0
   47.5842    3.5665   -4.9025 C   0  0  0  0  0  0  0  0  0  0  0  0
   42.0947    4.2587   -3.2773 C   0  0  2  0  0  0  0  0  0  0  0  0
   41.6230    2.9976   -2.6258 O   0  0  0  0  0  0  0  0  0  0  0  0
   41.9690    7.2482   -1.6017 C   0  0  2  0  0  0  0  0  0  0  0  0
   42.3171    6.1578   -0.6344 N   0  0  0  0  0  0  0  0  0  0  0  0
   41.0957   -2.9771   -3.2284 C   0  0  0  0  0  0  0  0  0  0  0  0
   40.8139   -3.7670   -4.3737 N   0  0  0  0  0  0  0  0  0  0  0  0
   44.0018    8.0991   -8.4760 C   0  0  1  0  0  0  0  0  0  0  0  0
   43.7878    9.3779   -9.0532 O   0  0  0  0  0  0  0  0  0  0  0  0
   47.1548    4.8402   -5.8315 C   0  0  2  0  0  0  0  0  0  0  0  0
   48.0774    5.9295   -5.6779 N   0  0  0  0  0  0  0  0  0  0  0  0
   41.0815    5.3651   -3.6264 C   0  0  2  0  0  0  0  0  0  0  0  0
   40.2221    5.8047   -2.5849 O   0  0  0  0  0  0  0  0  0  0  0  0
   42.1744    8.6516   -0.9558 C   0  0  1  0  0  0  0  0  0  0  0  0
   41.8214    9.6360   -1.9921 O   0  0  0  0  0  0  0  0  0  0  0  0
   40.4996   -3.2059   -5.6443 C   0  0  0  0  0  0  0  0  0  0  0  0
   43.4889    6.9544   -9.3972 C   0  0  2  0  0  0  0  0  0  0  0  0
   42.0336    7.0856   -9.6503 O   0  0  0  0  0  0  0  0  0  0  0  0
   45.6963    5.3211   -5.4429 C   0  0  2  0  0  0  0  0  0  0  0  0
   40.3349    4.7917   -4.8544 C   0  0  1  0  0  0  0  0  0  0  0  0
   41.2201    8.8072    0.3522 C   0  0  2  0  0  0  0  0  0  0  0  0
   41.5671    7.8261    1.3922 O   0  0  0  0  0  0  0  0  0  0  0  0
   40.4616   -1.7987   -5.8040 C   0  0  0  0  0  0  0  0  0  0  0  0
   43.7593    5.5505   -8.7314 C   0  0  2  0  0  0  0  0  0  0  0  0
   45.1945    5.4846   -8.5061 O   0  0  0  0  0  0  0  0  0  0  0  0
   44.7266    4.1029   -5.6289 C   0  0  2  0  0  0  0  0  0  0  0  0
   43.4625    4.6468   -5.2690 O   0  0  0  0  0  0  0  0  0  0  0  0
   40.0224    5.8622   -5.8987 C   0  0  0  0  0  0  0  0  0  0  0  0
   38.6551    6.0792   -6.1531 O   0  0  0  0  0  0  0  0  0  0  0  0
   39.6935    8.6146   -0.0780 C   0  0  1  0  0  0  0  0  0  0  0  0
   39.5486    7.2608   -0.7421 O   0  0  0  0  0  0  0  0  0  0  0  0
   40.7475   -0.9302   -4.6386 C   0  0  0  0  0  0  0  0  0  0  0  0
   43.2747    4.5117   -9.6545 C   0  0  0  0  0  0  0  0  0  0  0  0
   43.3346    3.3170   -9.0529 O   0  0  0  0  0  0  0  0  0  0  0  0
   45.1544    2.8969   -4.6909 C   0  0  1  0  0  0  0  0  0  0  0  0
   44.2922    1.8224   -4.8749 O   0  0  0  0  0  0  0  0  0  0  0  0
   42.0537    2.4153   -1.3329 C   0  0  0  0  0  0  0  0  0  0  0  0
   38.8346    8.7620    1.2073 C   0  0  0  0  0  0  0  0  0  0  0  0
   37.4968    8.2736    0.9824 N   0  0  0  0  0  0  0  0  0  0  0  0
   40.8973    1.5530   -0.8166 C   0  0  0  0  0  0  0  0  0  0  0  0
   40.4914    0.5756   -1.8780 N   0  0  0  0  0  0  0  0  0  0  0  0
   41.3956   -0.6788   -2.0164 C   0  0  0  0  0  0  0  0  0  0  0  0
  1  2  1  1  0  0  0
  1  9  1  0  0  0  0
  1 35  1  0  0  0  0
  3  4  1  1  0  0  0
  3 11  1  0  0  0  0
  3 45  1  0  0  0  0
  5  6  1  0  0  0  0
  5 12  1  0  0  0  0
  5 37  1  6  0  0  0
  6 30  1  0  0  0  0
  7 14  1  0  0  0  0
  7 41  1  0  0  0  0
  7 23  1  1  0  0  0
  8 16  2  0  0  0  0
  8 42  1  0  0  0  0
  9 10  1  1  0  0  0
  9 18  1  0  0  0  0
 11 20  1  0  0  0  0
 12 13  1  1  0  0  0
 12 22  1  0  0  0  0
 13 47  1  0  0  0  0
 14 15  1  1  0  0  0
 14 24  1  0  0  0  0
 16 17  1  0  0  0  0
 17 26  2  0  0  0  0
 18 19  1  6  0  0  0
 18 27  1  0  0  0  0
 20 21  1  1  0  0  0
 20 29  1  0  0  0  0
 22 23  1  1  0  0  0
 22 30  1  0  0  0  0
 24 25  1  6  0  0  0
 24 31  1  0  0  0  0
 26 33  1  0  0  0  0
 27 28  1  1  0  0  0
 27 34  1  0  0  0  0
 29  2  1  6  0  0  0
 29 36  1  0  0  0  0
 30 38  1  6  0  0  0
 31 32  1  1  0  0  0
 31 40  1  0  0  0  0
 33 42  2  0  0  0  0
 34 35  1  0  0  0  0
 34 43  1  6  0  0  0
 36 37  1  1  0  0  0
 36 45  1  0  0  0  0
 38 39  1  0  0  0  0
 40 41  1  0  0  0  0
 40 48  1  1  0  0  0
 43 44  1  0  0  0  0
 45 46  1  6  0  0  0
 47 50  1  0  0  0  0
 48 49  1  0  0  0  0
 50 51  1  0  0  0  0
 51 52  1  0  0  0  0
 52  8  1  0  0  0  0
M  END
>  <CHROM.1>
-169.38368672,-123.26329699,-50.38671026,129.17882534,154.37359052,108.87638951
33.63926624,125.80857134,-172.33710576,-150.46823977,-165.43626982,53.26893724
79.23726289,-169.64936420,-140.34876132,42.59396370,4.63610034,-4.43916740
-0.05631789,0.96898436,0.12651338

>  <Name>
2be0_lig

>  <RI>
0

>  <Rbt.Current_Directory>
/home/itssahil/PROJECTS/Mol_Feturizer/New_Systems/rnas/2be0

>  <Rbt.Executable>
rbdock ($Id: //depot/dev/client3/rdock/2013.1/src/exe/rbdock.cxx#4 $)

>  <Rbt.Library>
libRbt.so (2013.1, Build901 2013/11/27)

>  <Rbt.Parameter_File>
/export/apps/rDock/src/rDock_2013.1_src/data/scripts/dock_solv.prm

>  <Rbt.Receptor>
prm/pocket_docking_4.prm

>  <SCORE>
-5.61756

>  <SCORE.INTER>
-3.76906

>  <SCORE.INTER.CONST>
1

>  <SCORE.INTER.POLAR>
-0.934188

>  <SCORE.INTER.ROT>
15

>  <SCORE.INTER.SOLV>
16.5112

>  <SCORE.INTER.VDW>
-18.5025

>  <SCORE.INTER.norm>
-0.072482

>  <SCORE.INTRA>
-1.89203

>  <SCORE.INTRA.DIHEDRAL>
-10.1593

>  <SCORE.INTRA.DIHEDRAL.0>
47.8724

>  <SCORE.INTRA.POLAR>
0

>  <SCORE.INTRA.POLAR.0>
0

>  <SCORE.INTRA.REPUL>
0

>  <SCORE.INTRA.REPUL.0>
0

>  <SCORE.INTRA.SOLV>
-0.958432

>  <SCORE.INTRA.SOLV.lig_0>
-115.677

>  <SCORE.INTRA.VDW>
3.66684

>  <SCORE.INTRA.VDW.0>
-7.4833

>  <SCORE.INTRA.norm>
-0.0363852

>  <SCORE.RESTR>
0.043538

>  <SCORE.RESTR.CAVITY>
0.043538

>  <SCORE.RESTR.norm>
0.000837268

>  <SCORE.SYSTEM>
0

>  <SCORE.SYSTEM.CONST>
0

>  <SCORE.SYSTEM.DIHEDRAL>
0

>  <SCORE.SYSTEM.SOLV>
0

>  <SCORE.SYSTEM.norm>
0

>  <SCORE.heavy>
52

>  <SCORE.norm>
-0.10803

>  <RMSD>
3.164

$$$$
2be0_lig
 OpenBabel11021811423D
libRbt.so/2013.1/901 2013/11/27
 52 56  0  0  0  0  0  0  0  0999 V2000
   46.5208    6.8055   -7.6609 C   0  0  2  0  0  0  0  0  0  0  0  0
   46.4478    6.9692   -6.2642 O   0  0  0  0  0  0  0  0  0  0  0  0
   46.6742    2.8152   -4.8277 C   0  0  2  0  0  0  0  0  0  0  0  0
   47.0210    1.6554   -3.9593 N   0  0  0  0  0  0  0  0  0  0  0  0
   43.3949    5.7068   -3.7753 C   0  0  2  0  0  0  0  0  0  0  0  0
   42.4813    6.8229   -3.7839 O   0  0  0  0  0  0  0  0  0  0  0  0
   41.9569    6.6816    0.2533 C   0  0  1  0  0  0  0  0  0  0  0  0
   39.0212    0.9106   -6.0184 C   0  0  0  0  0  0  0  0  0  0  0  0
   46.0552    8.1161   -8.4168 C   0  0  2  0  0  0  0  0  0  0  0  0
   46.8255    9.2652   -7.9366 N   0  0  0  0  0  0  0  0  0  0  0  0
   48.0154    3.5696   -5.2524 C   0  0  0  0  0  0  0  0  0  0  0  0
   43.5465    5.2699   -2.3095 C   0  0  2  0  0  0  0  0  0  0  0  0
   42.3889    4.3464   -2.0984 O   0  0  0  0  0  0  0  0  0  0  0  0
   41.9853    7.3188    1.7481 C   0  0  2  0  0  0  0  0  0  0  0  0
   42.9103    6.5040    2.6003 N   0  0  0  0  0  0  0  0  0  0  0  0
   38.6614   -0.4737   -6.1131 C   0  0  0  0  0  0  0  0  0  0  0  0
   37.4730   -0.8464   -6.7943 N   0  0  0  0  0  0  0  0  0  0  0  0
   44.4829    8.3232   -8.2145 C   0  0  1  0  0  0  0  0  0  0  0  0
   44.0876    9.5056   -8.8925 O   0  0  0  0  0  0  0  0  0  0  0  0
   47.6768    4.8596   -6.1964 C   0  0  2  0  0  0  0  0  0  0  0  0
   48.8757    5.5460   -6.5873 N   0  0  0  0  0  0  0  0  0  0  0  0
   43.5465    6.6609   -1.6478 C   0  0  2  0  0  0  0  0  0  0  0  0
   43.3049    6.7099   -0.2493 O   0  0  0  0  0  0  0  0  0  0  0  0
   40.5325    7.2822    2.3113 C   0  0  1  0  0  0  0  0  0  0  0  0
   39.7228    8.1217    1.4129 O   0  0  0  0  0  0  0  0  0  0  0  0
   36.5979    0.0994   -7.4008 C   0  0  0  0  0  0  0  0  0  0  0  0
   43.7436    7.0674   -8.7608 C   0  0  2  0  0  0  0  0  0  0  0  0
   42.2757    7.1996   -8.5964 O   0  0  0  0  0  0  0  0  0  0  0  0
   46.7229    5.8579   -5.4200 C   0  0  2  0  0  0  0  0  0  0  0  0
   42.5203    7.4569   -2.4889 C   0  0  1  0  0  0  0  0  0  0  0  0
   39.9845    5.7509    2.3378 C   0  0  2  0  0  0  0  0  0  0  0  0
   40.7895    4.9059    3.2336 O   0  0  0  0  0  0  0  0  0  0  0  0
   36.9021    1.4817   -7.3405 C   0  0  0  0  0  0  0  0  0  0  0  0
   44.2209    5.7730   -7.9964 C   0  0  2  0  0  0  0  0  0  0  0  0
   45.6603    5.7017   -8.1911 O   0  0  0  0  0  0  0  0  0  0  0  0
   45.4300    5.0670   -5.0176 C   0  0  2  0  0  0  0  0  0  0  0  0
   44.6522    6.0517   -4.3477 O   0  0  0  0  0  0  0  0  0  0  0  0
   42.9502    8.9055   -2.7146 C   0  0  0  0  0  0  0  0  0  0  0  0
   41.9519    9.7626   -3.2147 O   0  0  0  0  0  0  0  0  0  0  0  0
   40.0194    5.1486    0.8584 C   0  0  1  0  0  0  0  0  0  0  0  0
   41.4368    5.2467    0.3329 O   0  0  0  0  0  0  0  0  0  0  0  0
   38.1307    1.9224   -6.6401 C   0  0  0  0  0  0  0  0  0  0  0  0
   43.5062    4.6208   -8.5688 C   0  0  0  0  0  0  0  0  0  0  0  0
   42.2195    4.6663   -8.2012 O   0  0  0  0  0  0  0  0  0  0  0  0
   45.7920    3.8411   -4.0777 C   0  0  1  0  0  0  0  0  0  0  0  0
   44.6379    3.1449   -3.7386 O   0  0  0  0  0  0  0  0  0  0  0  0
   42.0996    3.0650   -2.7844 C   0  0  0  0  0  0  0  0  0  0  0  0
   39.4983    3.6884    0.9473 C   0  0  0  0  0  0  0  0  0  0  0  0
   40.5016    2.8256    1.5199 N   0  0  0  0  0  0  0  0  0  0  0  0
   41.2908    3.3969   -4.0426 C   0  0  0  0  0  0  0  0  0  0  0  0
   40.1638    2.4188   -4.1836 N   0  0  0  0  0  0  0  0  0  0  0  0
   40.3721    1.3032   -5.2429 C   0  0  0  0  0  0  0  0  0  0  0  0
  1  2  1  1  0  0  0
  1  9  1  0  0  0  0
  1 35  1  0  0  0  0
  3  4  1  1  0  0  0
  3 11  1  0  0  0  0
  3 45  1  0  0  0  0
  5  6  1  0  0  0  0
  5 12  1  0  0  0  0
  5 37  1  1  0  0  0
  6 30  1  0  0  0  0
  7 14  1  0  0  0  0
  7 41  1  0  0  0  0
  7 23  1  1  0  0  0
  8 16  2  0  0  0  0
  8 42  1  0  0  0  0
  9 10  1  1  0  0  0
  9 18  1  0  0  0  0
 11 20  1  0  0  0  0
 12 13  1  1  0  0  0
 12 22  1  0  0  0  0
 13 47  1  0  0  0  0
 14 15  1  1  0  0  0
 14 24  1  0  0  0  0
 16 17  1  0  0  0  0
 17 26  2  0  0  0  0
 18 19  1  6  0  0  0
 18 27  1  0  0  0  0
 20 21  1  1  0  0  0
 20 29  1  0  0  0  0
 22 23  1  1  0  0  0
 22 30  1  0  0  0  0
 24 25  1  6  0  0  0
 24 31  1  0  0  0  0
 26 33  1  0  0  0  0
 27 28  1  1  0  0  0
 27 34  1  0  0  0  0
 29  2  1  6  0  0  0
 29 36  1  0  0  0  0
 30 38  1  6  0  0  0
 31 32  1  1  0  0  0
 31 40  1  0  0  0  0
 33 42  2  0  0  0  0
 34 35  1  0  0  0  0
 34 43  1  6  0  0  0
 36 37  1  1  0  0  0
 36 45  1  0  0  0  0
 38 39  1  0  0  0  0
 40 41  1  0  0  0  0
 40 48  1  1  0  0  0
 43 44  1  0  0  0  0
 45 46  1  6  0  0  0
 47 50  1  0  0  0  0
 48 49  1  0  0  0  0
 50 51  1  0  0  0  0
 51 52  1  0  0  0  0
 52  8  1  0  0  0  0
M  END
>  <CHROM.1>
174.88699126,-149.70907094,-158.30723655,61.88626460,-88.14021565,-82.83963053
25.70629897,76.87422899,-71.28439540,-177.70108025,-75.07105745,-136.75262364
-102.90805150,-143.60155429,-129.86314419,42.85692705,5.15017331,-3.98662241
-0.87008470,0.67787728,1.20940362

>  <Name>
2be0_lig

>  <RI>
2.10017e+07

>  <Rbt.Current_Directory>
/home/itssahil/PROJECTS/Mol_Feturizer/New_Systems/rnas/2be0

>  <Rbt.Executable>
rbdock ($Id: //depot/dev/client3/rdock/2013.1/src/exe/rbdock.cxx#4 $)

>  <Rbt.Library>
libRbt.so (2013.1, Build901 2013/11/27)

>  <Rbt.Parameter_File>
/export/apps/rDock/src/rDock_2013.1_src/data/scripts/dock_solv.prm

>  <Rbt.Receptor>
prm/pocket_docking_3.prm

>  <SCORE>
-5.40612

>  <SCORE.INTER>
-1.24888

>  <SCORE.INTER.CONST>
1

>  <SCORE.INTER.POLAR>
-0.300318

>  <SCORE.INTER.ROT>
15

>  <SCORE.INTER.SOLV>
19.9955

>  <SCORE.INTER.VDW>
-20.0967

>  <SCORE.INTER.norm>
-0.024017

>  <SCORE.INTRA>
-4.27826

>  <SCORE.INTRA.DIHEDRAL>
-22.3293

>  <SCORE.INTRA.DIHEDRAL.0>
47.8724

>  <SCORE.INTRA.POLAR>
0

>  <SCORE.INTRA.POLAR.0>
0

>  <SCORE.INTRA.REPUL>
0.430509

>  <SCORE.INTRA.REPUL.0>
0

>  <SCORE.INTRA.SOLV>
-0.589692

>  <SCORE.INTRA.SOLV.lig_0>
-115.677

>  <SCORE.INTRA.VDW>
5.02868

>  <SCORE.INTRA.VDW.0>
-7.4833

>  <SCORE.INTRA.norm>
-0.0822741

>  <SCORE.RESTR>
0.121022

>  <SCORE.RESTR.CAVITY>
0.121022

>  <SCORE.RESTR.norm>
0.00232735

>  <SCORE.SYSTEM>
0

>  <SCORE.SYSTEM.CONST>
0

>  <SCORE.SYSTEM.DIHEDRAL>
0

>  <SCORE.SYSTEM.SOLV>
0

>  <SCORE.SYSTEM.norm>
0

>  <SCORE.heavy>
52

>  <SCORE.norm>
-0.103964

>  <RMSD>
3.378

$$$$
2be0_lig
 OpenBabel11021811423D
libRbt.so/2013.1/901 2013/11/27
 52 56  0  0  0  0  0  0  0  0999 V2000
   46.0626    6.2222   -7.6583 C   0  0  2  0  0  0  0  0  0  0  0  0
   45.6936    5.8208   -6.3601 O   0  0  0  0  0  0  0  0  0  0  0  0
   48.9333    2.9847   -5.4479 C   0  0  2  0  0  0  0  0  0  0  0  0
   49.6997    1.9219   -4.7389 N   0  0  0  0  0  0  0  0  0  0  0  0
   44.7992    2.1354   -6.4540 C   0  0  2  0  0  0  0  0  0  0  0  0
   43.5381    1.8199   -7.0788 O   0  0  0  0  0  0  0  0  0  0  0  0
   42.8320    4.4576   -3.0845 C   0  0  1  0  0  0  0  0  0  0  0  0
   40.2155   -0.4215   -3.0608 C   0  0  0  0  0  0  0  0  0  0  0  0
   45.4879    7.6570   -7.9998 C   0  0  2  0  0  0  0  0  0  0  0  0
   45.8982    8.6133   -6.9694 N   0  0  0  0  0  0  0  0  0  0  0  0
   48.6275    4.1759   -4.4301 C   0  0  0  0  0  0  0  0  0  0  0  0
   44.4848    2.5564   -5.0095 C   0  0  2  0  0  0  0  0  0  0  0  0
   44.4246    1.2565   -4.2719 O   0  0  0  0  0  0  0  0  0  0  0  0
   41.9288    4.1299   -1.7737 C   0  0  2  0  0  0  0  0  0  0  0  0
   40.4920    4.4043   -2.0995 N   0  0  0  0  0  0  0  0  0  0  0  0
   39.0727    0.0023   -2.3063 C   0  0  0  0  0  0  0  0  0  0  0  0
   38.0851    0.8147   -2.9224 N   0  0  0  0  0  0  0  0  0  0  0  0
   43.8976    7.5786   -8.1440 C   0  0  1  0  0  0  0  0  0  0  0  0
   43.4022    8.8746   -8.4422 O   0  0  0  0  0  0  0  0  0  0  0  0
   47.7739    5.3585   -5.1666 C   0  0  2  0  0  0  0  0  0  0  0  0
   47.4941    6.4376   -4.2618 N   0  0  0  0  0  0  0  0  0  0  0  0
   43.1899    3.3484   -5.2715 C   0  0  2  0  0  0  0  0  0  0  0  0
   42.3592    3.6153   -4.1510 O   0  0  0  0  0  0  0  0  0  0  0  0
   42.4210    5.0458   -0.6126 C   0  0  1  0  0  0  0  0  0  0  0  0
   43.8263    4.6807   -0.3695 O   0  0  0  0  0  0  0  0  0  0  0  0
   38.1689    1.2434   -4.2778 C   0  0  0  0  0  0  0  0  0  0  0  0
   43.5517    6.5542   -9.2635 C   0  0  2  0  0  0  0  0  0  0  0  0
   42.0844    6.4347   -9.4415 O   0  0  0  0  0  0  0  0  0  0  0  0
   46.4142    4.7701   -5.7274 C   0  0  2  0  0  0  0  0  0  0  0  0
   42.4930    2.5351   -6.3882 C   0  0  1  0  0  0  0  0  0  0  0  0
   42.2854    6.6090   -1.0413 C   0  0  2  0  0  0  0  0  0  0  0  0
   40.8832    6.9810   -1.2864 O   0  0  0  0  0  0  0  0  0  0  0  0
   39.2748    0.8549   -5.0734 C   0  0  0  0  0  0  0  0  0  0  0  0
   44.1327    5.1323   -8.9057 C   0  0  2  0  0  0  0  0  0  0  0  0
   45.5659    5.3159   -8.7409 O   0  0  0  0  0  0  0  0  0  0  0  0
   46.7694    3.6008   -6.7100 C   0  0  2  0  0  0  0  0  0  0  0  0
   45.4916    3.1628   -7.1558 O   0  0  0  0  0  0  0  0  0  0  0  0
   41.8082    3.4298   -7.4200 C   0  0  0  0  0  0  0  0  0  0  0  0
   41.1798    2.7560   -8.4841 O   0  0  0  0  0  0  0  0  0  0  0  0
   43.1484    6.8751   -2.3594 C   0  0  1  0  0  0  0  0  0  0  0  0
   42.6696    5.9338   -3.4453 O   0  0  0  0  0  0  0  0  0  0  0  0
   40.3334    0.0077   -4.4768 C   0  0  0  0  0  0  0  0  0  0  0  0
   43.7939    4.2157  -10.0062 C   0  0  0  0  0  0  0  0  0  0  0  0
   44.3220    4.6748  -11.1478 O   0  0  0  0  0  0  0  0  0  0  0  0
   47.5702    2.4576   -5.9555 C   0  0  1  0  0  0  0  0  0  0  0  0
   47.8862    1.4344   -6.8414 O   0  0  0  0  0  0  0  0  0  0  0  0
   43.5367    0.0973   -4.5250 C   0  0  0  0  0  0  0  0  0  0  0  0
   42.9723    8.3739   -2.7257 C   0  0  0  0  0  0  0  0  0  0  0  0
   41.6151    8.6407   -3.1327 N   0  0  0  0  0  0  0  0  0  0  0  0
   43.6529   -0.8354   -3.3151 C   0  0  0  0  0  0  0  0  0  0  0  0
   42.4744   -1.7610   -3.2837 N   0  0  0  0  0  0  0  0  0  0  0  0
   41.3165   -1.3414   -2.3384 C   0  0  0  0  0  0  0  0  0  0  0  0
  1  2  1  1  0  0  0
  1  9  1  0  0  0  0
  1 35  1  0  0  0  0
  3  4  1  1  0  0  0
  3 11  1  0  0  0  0
  3 45  1  0  0  0  0
  5  6  1  0  0  0  0
  5 12  1  0  0  0  0
  5 37  1  6  0  0  0
  6 30  1  0  0  0  0
  7 14  1  0  0  0  0
  7 41  1  0  0  0  0
  7 23  1  6  0  0  0
  8 16  2  0  0  0  0
  8 42  1  0  0  0  0
  9 10  1  1  0  0  0
  9 18  1  0  0  0  0
 11 20  1  0  0  0  0
 12 13  1  1  0  0  0
 12 22  1  0  0  0  0
 13 47  1  0  0  0  0
 14 15  1  6  0  0  0
 14 24  1  0  0  0  0
 16 17  1  0  0  0  0
 17 26  2  0  0  0  0
 18 19  1  6  0  0  0
 18 27  1  0  0  0  0
 20 21  1  1  0  0  0
 20 29  1  0  0  0  0
 22 23  1  1  0  0  0
 22 30  1  0  0  0  0
 24 25  1  6  0  0  0
 24 31  1  0  0  0  0
 26 33  1  0  0  0  0
 27 28  1  1  0  0  0
 27 34  1  0  0  0  0
 29  2  1  6  0  0  0
 29 36  1  0  0  0  0
 30 38  1  6  0  0  0
 31 32  1  6  0  0  0
 31 40  1  0  0  0  0
 33 42  2  0  0  0  0
 34 35  1  0  0  0  0
 34 43  1  6  0  0  0
 36 37  1  1  0  0  0
 36 45  1  0  0  0  0
 38 39  1  0  0  0  0
 40 41  1  0  0  0  0
 40 48  1  6  0  0  0
 43 44  1  0  0  0  0
 45 46  1  6  0  0  0
 47 50  1  0  0  0  0
 48 49  1  0  0  0  0
 50 51  1  0  0  0  0
 51 52  1  0  0  0  0
 52  8  1  0  0  0  0
M  END
>  <CHROM.1>
-161.74443560,-178.87789082,-159.69753321,-58.65539844,-167.54119032,64.66552183
78.88518853,62.29630828,59.18745293,-90.46174744,-67.08489867,161.07360872
-97.83049461,90.43736078,178.22331341,43.66847631,3.90837179,-5.26781426
0.54007550,0.78754582,0.05818619

>  <Name>
2be0_lig

>  <RI>
0

>  <Rbt.Current_Directory>
/home/itssahil/PROJECTS/Mol_Feturizer/New_Systems/rnas/2be0

>  <Rbt.Executable>
rbdock ($Id: //depot/dev/client3/rdock/2013.1/src/exe/rbdock.cxx#4 $)

>  <Rbt.Library>
libRbt.so (2013.1, Build901 2013/11/27)

>  <Rbt.Parameter_File>
/export/apps/rDock/src/rDock_2013.1_src/data/scripts/dock_solv.prm

>  <Rbt.Receptor>
prm/pocket_docking_4.prm

>  <SCORE>
-14.444

>  <SCORE.INTER>
1.05183

>  <SCORE.INTER.CONST>
1

>  <SCORE.INTER.POLAR>
-1.12862

>  <SCORE.INTER.ROT>
15

>  <SCORE.INTER.SOLV>
19.6456

>  <SCORE.INTER.VDW>
-15.6852

>  <SCORE.INTER.norm>
0.0202275

>  <SCORE.INTRA>
-15.7168

>  <SCORE.INTRA.DIHEDRAL>
-34.2249

>  <SCORE.INTRA.DIHEDRAL.0>
47.8724

>  <SCORE.INTRA.POLAR>
0

>  <SCORE.INTRA.POLAR.0>
0

>  <SCORE.INTRA.REPUL>
0

>  <SCORE.INTRA.REPUL.0>
0

>  <SCORE.INTRA.SOLV>
-0.218746

>  <SCORE.INTRA.SOLV.lig_0>
-115.677

>  <SCORE.INTRA.VDW>
1.50507

>  <SCORE.INTRA.VDW.0>
-7.4833

>  <SCORE.INTRA.norm>
-0.302246

>  <SCORE.RESTR>
0.220925

>  <SCORE.RESTR.CAVITY>
0.220925

>  <SCORE.RESTR.norm>
0.00424856

>  <SCORE.SYSTEM>
0

>  <SCORE.SYSTEM.CONST>
0

>  <SCORE.SYSTEM.DIHEDRAL>
0

>  <SCORE.SYSTEM.SOLV>
0

>  <SCORE.SYSTEM.norm>
0

>  <SCORE.heavy>
52

>  <SCORE.norm>
-0.27777

>  <RMSD>
3.405

$$$$
2be0_lig
 OpenBabel11021811423D
libRbt.so/2013.1/901 2013/11/27
 52 56  0  0  0  0  0  0  0  0999 V2000
   44.5871    8.3351   -7.7306 C   0  0  2  0  0  0  0  0  0  0  0  0
   45.3722    7.1884   -7.9579 O   0  0  0  0  0  0  0  0  0  0  0  0
   46.8824    3.8369   -5.5377 C   0  0  2  0  0  0  0  0  0  0  0  0
   47.4696    3.1032   -4.3817 N   0  0  0  0  0  0  0  0  0  0  0  0
   42.4690    5.3893   -6.4007 C   0  0  2  0  0  0  0  0  0  0  0  0
   41.3949    6.3450   -6.2860 O   0  0  0  0  0  0  0  0  0  0  0  0
   41.3614    3.3093   -2.5173 C   0  0  1  0  0  0  0  0  0  0  0  0
   39.4238   -1.5568   -5.3245 C   0  0  0  0  0  0  0  0  0  0  0  0
   43.5304    8.5455   -8.8903 C   0  0  2  0  0  0  0  0  0  0  0  0
   42.7299    7.3307   -9.0576 N   0  0  0  0  0  0  0  0  0  0  0  0
   47.8892    4.9899   -5.9909 C   0  0  0  0  0  0  0  0  0  0  0  0
   42.1275    4.2239   -5.4585 C   0  0  2  0  0  0  0  0  0  0  0  0
   41.2398    3.3520   -6.2886 O   0  0  0  0  0  0  0  0  0  0  0  0
   42.4149    4.0622   -1.5353 C   0  0  2  0  0  0  0  0  0  0  0  0
   43.4292    4.7764   -2.3760 N   0  0  0  0  0  0  0  0  0  0  0  0
   40.8276   -1.4720   -5.0466 C   0  0  0  0  0  0  0  0  0  0  0  0
   41.6631   -2.5916   -5.2982 N   0  0  0  0  0  0  0  0  0  0  0  0
   44.2863    8.9541  -10.2385 C   0  0  1  0  0  0  0  0  0  0  0  0
   43.3233    9.1303  -11.2659 O   0  0  0  0  0  0  0  0  0  0  0  0
   47.2745    5.8296   -7.2506 C   0  0  2  0  0  0  0  0  0  0  0  0
   48.1721    6.8688   -7.6695 N   0  0  0  0  0  0  0  0  0  0  0  0
   41.5313    5.0321   -4.2906 C   0  0  2  0  0  0  0  0  0  0  0  0
   40.7513    4.3172   -3.3434 O   0  0  0  0  0  0  0  0  0  0  0  0
   43.0943    2.9801   -0.6429 C   0  0  1  0  0  0  0  0  0  0  0  0
   42.0152    2.3603    0.1438 O   0  0  0  0  0  0  0  0  0  0  0  0
   41.1736   -3.8224   -5.8212 C   0  0  0  0  0  0  0  0  0  0  0  0
   45.0983   10.2556   -9.9760 C   0  0  2  0  0  0  0  0  0  0  0  0
   45.8274   10.6837  -11.1943 O   0  0  0  0  0  0  0  0  0  0  0  0
   45.8808    6.4638   -6.8446 C   0  0  2  0  0  0  0  0  0  0  0  0
   40.7640    6.1731   -5.0003 C   0  0  1  0  0  0  0  0  0  0  0  0
   43.8468    1.8811   -1.5766 C   0  0  2  0  0  0  0  0  0  0  0  0
   44.9265    2.4936   -2.3662 O   0  0  0  0  0  0  0  0  0  0  0  0
   39.7954   -3.9650   -6.1164 C   0  0  0  0  0  0  0  0  0  0  0  0
   46.1444   10.0264   -8.8181 C   0  0  2  0  0  0  0  0  0  0  0  0
   45.3725    9.6072   -7.6591 O   0  0  0  0  0  0  0  0  0  0  0  0
   44.9359    5.2943   -6.3990 C   0  0  2  0  0  0  0  0  0  0  0  0
   43.7273    5.9703   -6.0740 O   0  0  0  0  0  0  0  0  0  0  0  0
   40.8866    7.5050   -4.2620 C   0  0  0  0  0  0  0  0  0  0  0  0
   42.2012    7.9598   -4.0473 O   0  0  0  0  0  0  0  0  0  0  0  0
   42.7847    1.2015   -2.5580 C   0  0  1  0  0  0  0  0  0  0  0  0
   42.1161    2.2908   -3.3710 O   0  0  0  0  0  0  0  0  0  0  0  0
   38.8811   -2.8257   -5.8707 C   0  0  0  0  0  0  0  0  0  0  0  0
   46.8637   11.2921   -8.6018 C   0  0  0  0  0  0  0  0  0  0  0  0
   45.9834   12.2662   -8.3391 O   0  0  0  0  0  0  0  0  0  0  0  0
   45.5481    4.5207   -5.1564 C   0  0  1  0  0  0  0  0  0  0  0  0
   44.7048    3.4820   -4.7804 O   0  0  0  0  0  0  0  0  0  0  0  0
   40.7626    1.9805   -5.9924 C   0  0  0  0  0  0  0  0  0  0  0  0
   43.5589    0.1745   -3.4284 C   0  0  0  0  0  0  0  0  0  0  0  0
   44.0930   -0.8846   -2.6088 N   0  0  0  0  0  0  0  0  0  0  0  0
   39.4702    2.1157   -5.1809 C   0  0  0  0  0  0  0  0  0  0  0  0
   39.2742    0.8860   -4.3464 N   0  0  0  0  0  0  0  0  0  0  0  0
   38.5026   -0.2739   -5.0314 C   0  0  0  0  0  0  0  0  0  0  0  0
  1  2  1  6  0  0  0
  1  9  1  0  0  0  0
  1 35  1  0  0  0  0
  3  4  1  1  0  0  0
  3 11  1  0  0  0  0
  3 45  1  0  0  0  0
  5  6  1  0  0  0  0
  5 12  1  0  0  0  0
  5 37  1  1  0  0  0
  6 30  1  0  0  0  0
  7 14  1  0  0  0  0
  7 41  1  0  0  0  0
  7 23  1  6  0  0  0
  8 16  2  0  0  0  0
  8 42  1  0  0  0  0
  9 10  1  6  0  0  0
  9 18  1  0  0  0  0
 11 20  1  0  0  0  0
 12 13  1  6  0  0  0
 12 22  1  0  0  0  0
 13 47  1  0  0  0  0
 14 15  1  6  0  0  0
 14 24  1  0  0  0  0
 16 17  1  0  0  0  0
 17 26  2  0  0  0  0
 18 19  1  6  0  0  0
 18 27  1  0  0  0  0
 20 21  1  1  0  0  0
 20 29  1  0  0  0  0
 22 23  1  6  0  0  0
 22 30  1  0  0  0  0
 24 25  1  6  0  0  0
 24 31  1  0  0  0  0
 26 33  1  0  0  0  0
 27 28  1  6  0  0  0
 27 34  1  0  0  0  0
 29  2  1  6  0  0  0
 29 36  1  0  0  0  0
 30 38  1  1  0  0  0
 31 32  1  6  0  0  0
 31 40  1  0  0  0  0
 33 42  2  0  0  0  0
 34 35  1  0  0  0  0
 34 43  1  1  0  0  0
 36 37  1  1  0  0  0
 36 45  1  0  0  0  0
 38 39  1  0  0  0  0
 40 41  1  0  0  0  0
 40 48  1  6  0  0  0
 43 44  1  0  0  0  0
 45 46  1  6  0  0  0
 47 50  1  0  0  0  0
 48 49  1  0  0  0  0
 50 51  1  0  0  0  0
 51 52  1  0  0  0  0
 52  8  1  0  0  0  0
M  END
>  <CHROM.1>
-149.78864914,-166.28521786,66.00701429,169.71672191,87.86168372,65.06628292
-148.11959421,-59.62655624,56.12696944,141.55969952,64.41178138,-154.65349804
-88.36790503,111.87440776,-5.10501404,43.25727739,4.46902696,-5.62802002
1.06914193,-0.69799830,-0.79661756

>  <Name>
2be0_lig

>  <RI>
2.10017e+07

>  <Rbt.Current_Directory>
/home/itssahil/PROJECTS/Mol_Feturizer/New_Systems/rnas/2be0

>  <Rbt.Executable>
rbdock ($Id: //depot/dev/client3/rdock/2013.1/src/exe/rbdock.cxx#4 $)

>  <Rbt.Library>
libRbt.so (2013.1, Build901 2013/11/27)

>  <Rbt.Parameter_File>
/export/apps/rDock/src/rDock_2013.1_src/data/scripts/dock_solv.prm

>  <Rbt.Receptor>
prm/pocket_docking_3.prm

>  <SCORE>
-17.9263

>  <SCORE.INTER>
-8.19256

>  <SCORE.INTER.CONST>
1

>  <SCORE.INTER.POLAR>
-0.959166

>  <SCORE.INTER.ROT>
15

>  <SCORE.INTER.SOLV>
19.1507

>  <SCORE.INTER.VDW>
-22.2481

>  <SCORE.INTER.norm>
-0.157549

>  <SCORE.INTRA>
-9.79273

>  <SCORE.INTRA.DIHEDRAL>
-25.1797

>  <SCORE.INTRA.DIHEDRAL.0>
47.8724

>  <SCORE.INTRA.POLAR>
0

>  <SCORE.INTRA.POLAR.0>
0

>  <SCORE.INTRA.REPUL>
0.000465287

>  <SCORE.INTRA.REPUL.0>
0

>  <SCORE.INTRA.SOLV>
7.65316

>  <SCORE.INTRA.SOLV.lig_0>
-115.677

>  <SCORE.INTRA.VDW>
-1.0318

>  <SCORE.INTRA.VDW.0>
-7.4833

>  <SCORE.INTRA.norm>
-0.188322

>  <SCORE.RESTR>
0.0590292

>  <SCORE.RESTR.CAVITY>
0.0590292

>  <SCORE.RESTR.norm>
0.00113518

>  <SCORE.SYSTEM>
0

>  <SCORE.SYSTEM.CONST>
0

>  <SCORE.SYSTEM.DIHEDRAL>
0

>  <SCORE.SYSTEM.SOLV>
0

>  <SCORE.SYSTEM.norm>
0

>  <SCORE.heavy>
52

>  <SCORE.norm>
-0.344736

>  <RMSD>
3.765

$$$$
2be0_lig
 OpenBabel11021811423D
libRbt.so/2013.1/901 2013/11/27
 52 56  0  0  0  0  0  0  0  0999 V2000
   44.1750    8.6977   -7.1924 C   0  0  2  0  0  0  0  0  0  0  0  0
   43.2792    8.0444   -8.0605 O   0  0  0  0  0  0  0  0  0  0  0  0
   42.9907    4.2699  -10.3057 C   0  0  2  0  0  0  0  0  0  0  0  0
   43.3978    2.9699  -10.9090 N   0  0  0  0  0  0  0  0  0  0  0  0
   42.0196    4.7797   -5.9127 C   0  0  2  0  0  0  0  0  0  0  0  0
   40.7497    5.3684   -5.5646 O   0  0  0  0  0  0  0  0  0  0  0  0
   41.7393    6.5359   -1.5230 C   0  0  1  0  0  0  0  0  0  0  0  0
   40.5798   -2.0871   -4.9792 C   0  0  0  0  0  0  0  0  0  0  0  0
   45.5031    9.1142   -7.9465 C   0  0  2  0  0  0  0  0  0  0  0  0
   45.1720    9.9116   -9.1293 N   0  0  0  0  0  0  0  0  0  0  0  0
   43.9686    5.4180  -10.8291 C   0  0  0  0  0  0  0  0  0  0  0  0
   42.7328    4.4515   -4.5912 C   0  0  2  0  0  0  0  0  0  0  0  0
   42.1897    3.1066   -4.2256 O   0  0  0  0  0  0  0  0  0  0  0  0
   42.8271    7.5582   -0.8804 C   0  0  2  0  0  0  0  0  0  0  0  0
   43.8352    6.7632   -0.1074 N   0  0  0  0  0  0  0  0  0  0  0  0
   41.1744   -2.4972   -6.2174 C   0  0  0  0  0  0  0  0  0  0  0  0
   40.3483   -2.7567   -7.3422 N   0  0  0  0  0  0  0  0  0  0  0  0
   46.3405    7.8054   -8.3225 C   0  0  1  0  0  0  0  0  0  0  0  0
   47.5217    8.1996   -9.0034 O   0  0  0  0  0  0  0  0  0  0  0  0
   43.5638    6.8609  -10.1781 C   0  0  2  0  0  0  0  0  0  0  0  0
   44.4349    7.9032  -10.6431 N   0  0  0  0  0  0  0  0  0  0  0  0
   42.3120    5.6928   -3.7819 C   0  0  2  0  0  0  0  0  0  0  0  0
   42.4591    5.6232   -2.3712 O   0  0  0  0  0  0  0  0  0  0  0  0
   42.0628    8.5454    0.0525 C   0  0  1  0  0  0  0  0  0  0  0  0
   41.1198    9.2775   -0.8090 O   0  0  0  0  0  0  0  0  0  0  0  0
   38.9301   -2.6314   -7.3080 C   0  0  0  0  0  0  0  0  0  0  0  0
   46.6591    7.0278   -7.0125 C   0  0  2  0  0  0  0  0  0  0  0  0
   47.4344    5.7965   -7.2988 O   0  0  0  0  0  0  0  0  0  0  0  0
   43.6341    6.7760   -8.5978 C   0  0  2  0  0  0  0  0  0  0  0  0
   40.8589    5.9480   -4.2483 C   0  0  1  0  0  0  0  0  0  0  0  0
   41.2783    7.7192    1.2135 C   0  0  2  0  0  0  0  0  0  0  0  0
   42.2146    6.9845    2.0785 O   0  0  0  0  0  0  0  0  0  0  0  0
   38.2862   -2.2284   -6.1122 C   0  0  0  0  0  0  0  0  0  0  0  0
   45.3247    6.6224   -6.2760 C   0  0  2  0  0  0  0  0  0  0  0  0
   44.6116    7.8653   -6.0277 O   0  0  0  0  0  0  0  0  0  0  0  0
   42.6673    5.6303   -8.1378 C   0  0  2  0  0  0  0  0  0  0  0  0
   42.8004    5.6533   -6.7218 O   0  0  0  0  0  0  0  0  0  0  0  0
   40.5450    7.4365   -4.3892 C   0  0  0  0  0  0  0  0  0  0  0  0
   41.5958    8.3114   -4.0551 O   0  0  0  0  0  0  0  0  0  0  0  0
   40.2564    6.6937    0.5376 C   0  0  1  0  0  0  0  0  0  0  0  0
   41.0324    5.7861   -0.3944 O   0  0  0  0  0  0  0  0  0  0  0  0
   39.1039   -1.9464   -4.9097 C   0  0  0  0  0  0  0  0  0  0  0  0
   45.6888    5.9124   -5.0393 C   0  0  0  0  0  0  0  0  0  0  0  0
   46.7850    6.4706   -4.5106 O   0  0  0  0  0  0  0  0  0  0  0  0
   43.1071    4.2401   -8.7633 C   0  0  1  0  0  0  0  0  0  0  0  0
   42.2353    3.2378   -8.3549 O   0  0  0  0  0  0  0  0  0  0  0  0
   42.5526    1.7853   -4.7901 C   0  0  0  0  0  0  0  0  0  0  0  0
   39.5480    5.9291    1.6888 C   0  0  0  0  0  0  0  0  0  0  0  0
   39.9183    4.5358    1.6756 N   0  0  0  0  0  0  0  0  0  0  0  0
   41.6290    0.7474   -4.1442 C   0  0  0  0  0  0  0  0  0  0  0  0
   42.3961   -0.5157   -3.8937 N   0  0  0  0  0  0  0  0  0  0  0  0
   41.5390   -1.7989   -3.7233 C   0  0  0  0  0  0  0  0  0  0  0  0
  1  2  1  6  0  0  0
  1  9  1  0  0  0  0
  1 35  1  0  0  0  0
  3  4  1  6  0  0  0
  3 11  1  0  0  0  0
  3 45  1  0  0  0  0
  5  6  1  0  0  0  0
  5 12  1  0  0  0  0
  5 37  1  6  0  0  0
  6 30  1  0  0  0  0
  7 14  1  0  0  0  0
  7 41  1  0  0  0  0
  7 23  1  6  0  0  0
  8 16  2  0  0  0  0
  8 42  1  0  0  0  0
  9 10  1  6  0  0  0
  9 18  1  0  0  0  0
 11 20  1  0  0  0  0
 12 13  1  1  0  0  0
 12 22  1  0  0  0  0
 13 47  1  0  0  0  0
 14 15  1  1  0  0  0
 14 24  1  0  0  0  0
 16 17  1  0  0  0  0
 17 26  2  0  0  0  0
 18 19  1  1  0  0  0
 18 27  1  0  0  0  0
 20 21  1  6  0  0  0
 20 29  1  0  0  0  0
 22 23  1  1  0  0  0
 22 30  1  0  0  0  0
 24 25  1  6  0  0  0
 24 31  1  0  0  0  0
 26 33  1  0  0  0  0
 27 28  1  6  0  0  0
 27 34  1  0  0  0  0
 29  2  1  1  0  0  0
 29 36  1  0  0  0  0
 30 38  1  6  0  0  0
 31 32  1  6  0  0  0
 31 40  1  0  0  0  0
 33 42  2  0  0  0  0
 34 35  1  0  0  0  0
 34 43  1  1  0  0  0
 36 37  1  1  0  0  0
 36 45  1  0  0  0  0
 38 39  1  0  0  0  0
 40 41  1  0  0  0  0
 40 48  1  1  0  0  0
 43 44  1  0  0  0  0
 45 46  1  1  0  0  0
 47 50  1  0  0  0  0
 48 49  1  0  0  0  0
 50 51  1  0  0  0  0
 51 52  1  0  0  0  0
 52  8  1  0  0  0  0
M  END
>  <CHROM.1>
65.97376798,-88.43364686,-109.97509076,77.26040206,-175.75995489,-161.21441438
-124.03922488,-117.39858299,36.87656076,177.19381660,-113.46851657,-142.48938228
-159.23817517,56.76531334,70.07882099,42.70992369,5.02490656,-5.13044231
-0.11299320,1.06394232,0.85878328

>  <Name>
2be0_lig

>  <RI>
0

>  <Rbt.Current_Directory>
/home/itssahil/PROJECTS/Mol_Feturizer/New_Systems/rnas/2be0

>  <Rbt.Executable>
rbdock ($Id: //depot/dev/client3/rdock/2013.1/src/exe/rbdock.cxx#4 $)

>  <Rbt.Library>
libRbt.so (2013.1, Build901 2013/11/27)

>  <Rbt.Parameter_File>
/export/apps/rDock/src/rDock_2013.1_src/data/scripts/dock_solv.prm

>  <Rbt.Receptor>
prm/pocket_docking_2.prm

>  <SCORE>
6.32022

>  <SCORE.INTER>
0.866788

>  <SCORE.INTER.CONST>
1

>  <SCORE.INTER.POLAR>
-0.575527

>  <SCORE.INTER.ROT>
15

>  <SCORE.INTER.SOLV>
16.7362

>  <SCORE.INTER.VDW>
-16.6825

>  <SCORE.INTER.norm>
0.016669

>  <SCORE.INTRA>
-0.215368

>  <SCORE.INTRA.DIHEDRAL>
-10.2469

>  <SCORE.INTRA.DIHEDRAL.0>
47.8724

>  <SCORE.INTRA.POLAR>
0

>  <SCORE.INTRA.POLAR.0>
0

>  <SCORE.INTRA.REPUL>
0

>  <SCORE.INTRA.REPUL.0>
0

>  <SCORE.INTRA.SOLV>
4.0148

>  <SCORE.INTRA.SOLV.lig_0>
-115.677

>  <SCORE.INTRA.VDW>
2.9007

>  <SCORE.INTRA.VDW.0>
-7.4833

>  <SCORE.INTRA.norm>
-0.0041417

>  <SCORE.RESTR>
5.6688

>  <SCORE.RESTR.CAVITY>
5.6688

>  <SCORE.RESTR.norm>
0.109015

>  <SCORE.SYSTEM>
0

>  <SCORE.SYSTEM.CONST>
0

>  <SCORE.SYSTEM.DIHEDRAL>
0

>  <SCORE.SYSTEM.SOLV>
0

>  <SCORE.SYSTEM.norm>
0

>  <SCORE.heavy>
52

>  <SCORE.norm>
0.121543

>  <RMSD>
3.802

$$$$
2be0_lig
 OpenBabel11021811423D
libRbt.so/2013.1/901 2013/11/27
 52 56  0  0  0  0  0  0  0  0999 V2000
   44.1528    9.1303   -7.4428 C   0  0  2  0  0  0  0  0  0  0  0  0
   43.2935    8.4594   -8.3341 O   0  0  0  0  0  0  0  0  0  0  0  0
   42.7763    4.4224  -10.0092 C   0  0  2  0  0  0  0  0  0  0  0  0
   43.1061    3.0291  -10.4208 N   0  0  0  0  0  0  0  0  0  0  0  0
   41.9113    5.5903   -5.7295 C   0  0  2  0  0  0  0  0  0  0  0  0
   40.9666    6.4469   -5.0556 O   0  0  0  0  0  0  0  0  0  0  0  0
   42.7012    6.5418   -1.2547 C   0  0  1  0  0  0  0  0  0  0  0  0
   40.7217   -1.1133   -5.0207 C   0  0  0  0  0  0  0  0  0  0  0  0
   45.3536    9.8174   -8.2121 C   0  0  2  0  0  0  0  0  0  0  0  0
   44.8321   10.6899   -9.2663 N   0  0  0  0  0  0  0  0  0  0  0  0
   43.8063    5.4286  -10.6984 C   0  0  0  0  0  0  0  0  0  0  0  0
   42.7773    4.9409   -4.6382 C   0  0  2  0  0  0  0  0  0  0  0  0
   41.9738    3.7520   -4.2158 O   0  0  0  0  0  0  0  0  0  0  0  0
   43.8422    7.4030   -0.4814 C   0  0  2  0  0  0  0  0  0  0  0  0
   44.9221    6.4694   -0.0255 N   0  0  0  0  0  0  0  0  0  0  0  0
   40.4657   -0.6429   -6.3503 C   0  0  0  0  0  0  0  0  0  0  0  0
   40.1200   -1.5686   -7.3694 N   0  0  0  0  0  0  0  0  0  0  0  0
   46.3317    8.6947   -8.7939 C   0  0  1  0  0  0  0  0  0  0  0  0
   47.3957    9.3304   -9.4853 O   0  0  0  0  0  0  0  0  0  0  0  0
   43.4870    6.9700  -10.2602 C   0  0  2  0  0  0  0  0  0  0  0  0
   44.4057    7.8858  -10.8756 N   0  0  0  0  0  0  0  0  0  0  0  0
   42.9104    6.1497   -3.6927 C   0  0  2  0  0  0  0  0  0  0  0  0
   43.3397    5.8859   -2.3651 O   0  0  0  0  0  0  0  0  0  0  0  0
   43.1673    8.1089    0.7332 C   0  0  1  0  0  0  0  0  0  0  0  0
   42.1440    9.0052    0.1704 O   0  0  0  0  0  0  0  0  0  0  0  0
   40.0126   -2.9700   -7.1400 C   0  0  0  0  0  0  0  0  0  0  0  0
   46.8473    7.8253   -7.6105 C   0  0  2  0  0  0  0  0  0  0  0  0
   47.7600    6.7595   -8.0903 O   0  0  0  0  0  0  0  0  0  0  0  0
   43.5738    7.1096   -8.6846 C   0  0  2  0  0  0  0  0  0  0  0  0
   41.5214    6.8260   -3.7792 C   0  0  1  0  0  0  0  0  0  0  0  0
   42.5002    7.0013    1.7202 C   0  0  2  0  0  0  0  0  0  0  0  0
   43.5173    6.1016    2.2862 O   0  0  0  0  0  0  0  0  0  0  0  0
   40.2532   -3.4933   -5.8456 C   0  0  0  0  0  0  0  0  0  0  0  0
   45.6375    7.1502   -6.8569 C   0  0  2  0  0  0  0  0  0  0  0  0
   44.7820    8.2407   -6.4167 O   0  0  0  0  0  0  0  0  0  0  0  0
   42.5540    6.0961   -8.0587 C   0  0  2  0  0  0  0  0  0  0  0  0
   42.7069    6.3152   -6.6616 O   0  0  0  0  0  0  0  0  0  0  0  0
   41.6140    8.3509   -3.7686 C   0  0  0  0  0  0  0  0  0  0  0  0
   42.1682    8.9160   -2.6047 O   0  0  0  0  0  0  0  0  0  0  0  0
   41.4216    6.1470    0.9079 C   0  0  1  0  0  0  0  0  0  0  0  0
   42.1080    5.5183   -0.2872 O   0  0  0  0  0  0  0  0  0  0  0  0
   40.6182   -2.5685   -4.7475 C   0  0  0  0  0  0  0  0  0  0  0  0
   46.1836    6.3622   -5.7403 C   0  0  0  0  0  0  0  0  0  0  0  0
   46.3330    7.1509   -4.6687 O   0  0  0  0  0  0  0  0  0  0  0  0
   42.9115    4.6086   -8.4794 C   0  0  1  0  0  0  0  0  0  0  0  0
   41.9934    3.7242   -7.9257 O   0  0  0  0  0  0  0  0  0  0  0  0
   41.3953    2.6854   -5.0667 C   0  0  0  0  0  0  0  0  0  0  0  0
   40.8291    5.1036    1.8937 C   0  0  0  0  0  0  0  0  0  0  0  0
   39.7656    5.6879    2.6723 N   0  0  0  0  0  0  0  0  0  0  0  0
   42.4894    1.6350   -5.2832 C   0  0  0  0  0  0  0  0  0  0  0  0
   42.4713    0.6548   -4.1493 N   0  0  0  0  0  0  0  0  0  0  0  0
   41.1095   -0.0431   -3.8872 C   0  0  0  0  0  0  0  0  0  0  0  0
  1  2  1  6  0  0  0
  1  9  1  0  0  0  0
  1 35  1  0  0  0  0
  3  4  1  1  0  0  0
  3 11  1  0  0  0  0
  3 45  1  0  0  0  0
  5  6  1  0  0  0  0
  5 12  1  0  0  0  0
  5 37  1  6  0  0  0
  6 30  1  0  0  0  0
  7 14  1  0  0  0  0
  7 41  1  0  0  0  0
  7 23  1  6  0  0  0
  8 16  2  0  0  0  0
  8 42  1  0  0  0  0
  9 10  1  6  0  0  0
  9 18  1  0  0  0  0
 11 20  1  0  0  0  0
 12 13  1  1  0  0  0
 12 22  1  0  0  0  0
 13 47  1  0  0  0  0
 14 15  1  1  0  0  0
 14 24  1  0  0  0  0
 16 17  1  0  0  0  0
 17 26  2  0  0  0  0
 18 19  1  1  0  0  0
 18 27  1  0  0  0  0
 20 21  1  6  0  0  0
 20 29  1  0  0  0  0
 22 23  1  1  0  0  0
 22 30  1  0  0  0  0
 24 25  1  6  0  0  0
 24 31  1  0  0  0  0
 26 33  1  0  0  0  0
 27 28  1  6  0  0  0
 27 34  1  0  0  0  0
 29  2  1  6  0  0  0
 29 36  1  0  0  0  0
 30 38  1  6  0  0  0
 31 32  1  6  0  0  0
 31 40  1  0  0  0  0
 33 42  2  0  0  0  0
 34 35  1  0  0  0  0
 34 43  1  1  0  0  0
 36 37  1  1  0  0  0
 36 45  1  0  0  0  0
 38 39  1  0  0  0  0
 40 41  1  0  0  0  0
 40 48  1  1  0  0  0
 43 44  1  0  0  0  0
 45 46  1  1  0  0  0
 47 50  1  0  0  0  0
 48 49  1  0  0  0  0
 50 51  1  0  0  0  0
 51 52  1  0  0  0  0
 52  8  1  0  0  0  0
M  END
>  <CHROM.1>
87.60787291,-111.46620869,-119.72191216,52.14708002,85.27498809,-137.14691171
-131.63350769,-178.52281093,86.31637322,178.50597371,83.78725586,86.34296153
55.15563218,71.38685108,-65.46739162,43.03059555,5.41763531,-5.07221350,-0.63800425
1.12600782,1.09473530

>  <Name>
2be0_lig

>  <RI>
0

>  <Rbt.Current_Directory>
/home/itssahil/PROJECTS/Mol_Feturizer/New_Systems/rnas/2be0

>  <Rbt.Executable>
rbdock ($Id: //depot/dev/client3/rdock/2013.1/src/exe/rbdock.cxx#4 $)

>  <Rbt.Library>
libRbt.so (2013.1, Build901 2013/11/27)

>  <Rbt.Parameter_File>
/export/apps/rDock/src/rDock_2013.1_src/data/scripts/dock_solv.prm

>  <Rbt.Receptor>
prm/pocket_docking_2.prm

>  <SCORE>
2.70182

>  <SCORE.INTER>
-4.32438

>  <SCORE.INTER.CONST>
1

>  <SCORE.INTER.POLAR>
-1.16048

>  <SCORE.INTER.ROT>
15

>  <SCORE.INTER.SOLV>
25.9225

>  <SCORE.INTER.VDW>
-21.2555

>  <SCORE.INTER.norm>
-0.0831611

>  <SCORE.INTRA>
0.339887

>  <SCORE.INTRA.DIHEDRAL>
-7.8342

>  <SCORE.INTRA.DIHEDRAL.0>
47.8724

>  <SCORE.INTRA.POLAR>
0

>  <SCORE.INTRA.POLAR.0>
0

>  <SCORE.INTRA.REPUL>
0.00620138

>  <SCORE.INTRA.REPUL.0>
0

>  <SCORE.INTRA.SOLV>
2.30998

>  <SCORE.INTRA.SOLV.lig_0>
-115.677

>  <SCORE.INTRA.VDW>
3.07099

>  <SCORE.INTRA.VDW.0>
-7.4833

>  <SCORE.INTRA.norm>
0.00653628

>  <SCORE.RESTR>
6.68631

>  <SCORE.RESTR.CAVITY>
6.68631

>  <SCORE.RESTR.norm>
0.128583

>  <SCORE.SYSTEM>
0

>  <SCORE.SYSTEM.CONST>
0

>  <SCORE.SYSTEM.DIHEDRAL>
0

>  <SCORE.SYSTEM.SOLV>
0

>  <SCORE.SYSTEM.norm>
0

>  <SCORE.heavy>
52

>  <SCORE.norm>
0.0519582

>  <RMSD>
3.823

$$$$
2be0_lig
 OpenBabel11021811423D
libRbt.so/2013.1/901 2013/11/27
 52 56  0  0  0  0  0  0  0  0999 V2000
   45.1057    4.3980   -7.9610 C   0  0  2  0  0  0  0  0  0  0  0  0
   43.9269    5.0484   -7.5485 O   0  0  0  0  0  0  0  0  0  0  0  0
   44.4226    8.9012   -9.6177 C   0  0  2  0  0  0  0  0  0  0  0  0
   44.0706   10.2173  -10.2206 N   0  0  0  0  0  0  0  0  0  0  0  0
   43.0528    6.7076   -5.6328 C   0  0  2  0  0  0  0  0  0  0  0  0
   42.1592    7.5835   -4.9154 O   0  0  0  0  0  0  0  0  0  0  0  0
   43.6003    6.3370   -0.8926 C   0  0  1  0  0  0  0  0  0  0  0  0
   41.7346    0.1471   -2.9337 C   0  0  0  0  0  0  0  0  0  0  0  0
   45.5077    3.2460   -6.9525 C   0  0  2  0  0  0  0  0  0  0  0  0
   44.3816    2.3267   -6.7760 N   0  0  0  0  0  0  0  0  0  0  0  0
   43.5278    7.7626  -10.2895 C   0  0  0  0  0  0  0  0  0  0  0  0
   43.4161    5.5631   -4.6734 C   0  0  2  0  0  0  0  0  0  0  0  0
   42.2935    4.5902   -4.8488 O   0  0  0  0  0  0  0  0  0  0  0  0
   43.6789    5.2072    0.2731 C   0  0  2  0  0  0  0  0  0  0  0  0
   42.4440    4.3610    0.2059 N   0  0  0  0  0  0  0  0  0  0  0  0
   40.5346    0.2708   -3.7081 C   0  0  0  0  0  0  0  0  0  0  0  0
   40.1097   -0.8102   -4.5241 N   0  0  0  0  0  0  0  0  0  0  0  0
   45.9803    3.8863   -5.5659 C   0  0  1  0  0  0  0  0  0  0  0  0
   46.3285    2.8383   -4.6746 O   0  0  0  0  0  0  0  0  0  0  0  0
   43.8739    6.3018   -9.6442 C   0  0  2  0  0  0  0  0  0  0  0  0
   43.0769    5.2680  -10.2419 N   0  0  0  0  0  0  0  0  0  0  0  0
   43.5282    6.3754   -3.3694 C   0  0  2  0  0  0  0  0  0  0  0  0
   43.4976    5.6467   -2.1509 O   0  0  0  0  0  0  0  0  0  0  0  0
   43.7769    5.9411    1.6446 C   0  0  1  0  0  0  0  0  0  0  0  0
   45.0244    6.7217    1.6042 O   0  0  0  0  0  0  0  0  0  0  0  0
   40.8258   -2.0374   -4.6199 C   0  0  0  0  0  0  0  0  0  0  0  0
   47.1826    4.8350   -5.8427 C   0  0  2  0  0  0  0  0  0  0  0  0
   47.6644    5.4644   -4.5894 O   0  0  0  0  0  0  0  0  0  0  0  0
   43.6195    6.3312   -8.0809 C   0  0  2  0  0  0  0  0  0  0  0  0
   42.3965    7.4221   -3.5018 C   0  0  1  0  0  0  0  0  0  0  0  0
   42.4851    6.9076    1.8519 C   0  0  2  0  0  0  0  0  0  0  0  0
   41.2343    6.1341    1.8929 O   0  0  0  0  0  0  0  0  0  0  0  0
   42.0184   -2.2181   -3.8768 C   0  0  0  0  0  0  0  0  0  0  0  0
   46.7630    5.9746   -6.8490 C   0  0  2  0  0  0  0  0  0  0  0  0
   46.2990    5.2971   -8.0493 O   0  0  0  0  0  0  0  0  0  0  0  0
   44.5107    7.4695   -7.4735 C   0  0  2  0  0  0  0  0  0  0  0  0
   44.2145    7.3962   -6.0842 O   0  0  0  0  0  0  0  0  0  0  0  0
   42.8025    8.7913   -2.9588 C   0  0  0  0  0  0  0  0  0  0  0  0
   41.7857    9.7646   -2.9486 O   0  0  0  0  0  0  0  0  0  0  0  0
   42.4194    7.9696    0.6600 C   0  0  1  0  0  0  0  0  0  0  0  0
   42.3731    7.2158   -0.6531 O   0  0  0  0  0  0  0  0  0  0  0  0
   42.5047   -1.1193   -3.0106 C   0  0  0  0  0  0  0  0  0  0  0  0
   47.9415    6.8232   -7.0878 C   0  0  0  0  0  0  0  0  0  0  0  0
   48.8415    6.1439   -7.8098 O   0  0  0  0  0  0  0  0  0  0  0  0
   44.1276    8.8763   -8.0993 C   0  0  1  0  0  0  0  0  0  0  0  0
   44.9324    9.8722   -7.5589 O   0  0  0  0  0  0  0  0  0  0  0  0
   42.0340    3.3417   -4.0938 C   0  0  0  0  0  0  0  0  0  0  0  0
   41.1660    8.8533    0.9041 C   0  0  0  0  0  0  0  0  0  0  0  0
   41.1152    9.9356   -0.0472 N   0  0  0  0  0  0  0  0  0  0  0  0
   41.4320    3.7452   -2.7439 C   0  0  0  0  0  0  0  0  0  0  0  0
   41.1263    2.5138   -1.9459 N   0  0  0  0  0  0  0  0  0  0  0  0
   42.1906    1.3858   -2.0183 C   0  0  0  0  0  0  0  0  0  0  0  0
  1  2  1  1  0  0  0
  1  9  1  0  0  0  0
  1 35  1  0  0  0  0
  3  4  1  6  0  0  0
  3 11  1  0  0  0  0
  3 45  1  0  0  0  0
  5  6  1  0  0  0  0
  5 12  1  0  0  0  0
  5 37  1  1  0  0  0
  6 30  1  0  0  0  0
  7 14  1  0  0  0  0
  7 41  1  0  0  0  0
  7 23  1  6  0  0  0
  8 16  2  0  0  0  0
  8 42  1  0  0  0  0
  9 10  1  1  0  0  0
  9 18  1  0  0  0  0
 11 20  1  0  0  0  0
 12 13  1  1  0  0  0
 12 22  1  0  0  0  0
 13 47  1  0  0  0  0
 14 15  1  1  0  0  0
 14 24  1  0  0  0  0
 16 17  1  0  0  0  0
 17 26  2  0  0  0  0
 18 19  1  1  0  0  0
 18 27  1  0  0  0  0
 20 21  1  6  0  0  0
 20 29  1  0  0  0  0
 22 23  1  1  0  0  0
 22 30  1  0  0  0  0
 24 25  1  6  0  0  0
 24 31  1  0  0  0  0
 26 33  1  0  0  0  0
 27 28  1  1  0  0  0
 27 34  1  0  0  0  0
 29  2  1  1  0  0  0
 29 36  1  0  0  0  0
 30 38  1  6  0  0  0
 31 32  1  6  0  0  0
 31 40  1  0  0  0  0
 33 42  2  0  0  0  0
 34 35  1  0  0  0  0
 34 43  1  6  0  0  0
 36 37  1  1  0  0  0
 36 45  1  0  0  0  0
 38 39  1  0  0  0  0
 40 41  1  0  0  0  0
 40 48  1  1  0  0  0
 43 44  1  0  0  0  0
 45 46  1  1  0  0  0
 47 50  1  0  0  0  0
 48 49  1  0  0  0  0
 50 51  1  0  0  0  0
 51 52  1  0  0  0  0
 52  8  1  0  0  0  0
M  END
>  <CHROM.1>
161.79097770,-119.66529183,-174.54719789,-174.12490567,77.44313156,179.85960887
44.81040149,68.63164453,70.21926992,-17.18538849,173.60508184,179.00349137
40.59918801,-105.27164652,8.21092858,43.58831054,5.41222621,-4.37559829,0.17422186
-1.21307078,-2.67326330

>  <Name>
2be0_lig

>  <RI>
0

>  <Rbt.Current_Directory>
/home/itssahil/PROJECTS/Mol_Feturizer/New_Systems/rnas/2be0

>  <Rbt.Executable>
rbdock ($Id: //depot/dev/client3/rdock/2013.1/src/exe/rbdock.cxx#4 $)

>  <Rbt.Library>
libRbt.so (2013.1, Build901 2013/11/27)

>  <Rbt.Parameter_File>
/export/apps/rDock/src/rDock_2013.1_src/data/scripts/dock_solv.prm

>  <Rbt.Receptor>
prm/pocket_docking_2.prm

>  <SCORE>
-11.5034

>  <SCORE.INTER>
-13.6379

>  <SCORE.INTER.CONST>
1

>  <SCORE.INTER.POLAR>
-0.980303

>  <SCORE.INTER.ROT>
15

>  <SCORE.INTER.SOLV>
18.5972

>  <SCORE.INTER.VDW>
-25.6233

>  <SCORE.INTER.norm>
-0.262267

>  <SCORE.INTRA>
-3.02943

>  <SCORE.INTRA.DIHEDRAL>
-27.2539

>  <SCORE.INTRA.DIHEDRAL.0>
47.8724

>  <SCORE.INTRA.POLAR>
0

>  <SCORE.INTRA.POLAR.0>
0

>  <SCORE.INTRA.REPUL>
0

>  <SCORE.INTRA.REPUL.0>
0

>  <SCORE.INTRA.SOLV>
3.54426

>  <SCORE.INTRA.SOLV.lig_0>
-115.677

>  <SCORE.INTRA.VDW>
8.82538

>  <SCORE.INTRA.VDW.0>
-7.4833

>  <SCORE.INTRA.norm>
-0.0582582

>  <SCORE.RESTR>
5.16387

>  <SCORE.RESTR.CAVITY>
5.16387

>  <SCORE.RESTR.norm>
0.0993051

>  <SCORE.SYSTEM>
0

>  <SCORE.SYSTEM.CONST>
0

>  <SCORE.SYSTEM.DIHEDRAL>
0

>  <SCORE.SYSTEM.SOLV>
0

>  <SCORE.SYSTEM.norm>
0

>  <SCORE.heavy>
52

>  <SCORE.norm>
-0.22122

>  <RMSD>
4.256

$$$$
2be0_lig
 OpenBabel11021811423D
libRbt.so/2013.1/901 2013/11/27
 52 56  0  0  0  0  0  0  0  0999 V2000
   46.4328    3.8382   -7.1983 C   0  0  2  0  0  0  0  0  0  0  0  0
   45.1199    3.7979   -6.6910 O   0  0  0  0  0  0  0  0  0  0  0  0
   43.2697    6.9605   -9.1293 C   0  0  2  0  0  0  0  0  0  0  0  0
   42.2111    7.7761   -9.7878 N   0  0  0  0  0  0  0  0  0  0  0  0
   43.5533    5.0152   -4.8256 C   0  0  2  0  0  0  0  0  0  0  0  0
   42.1163    5.0577   -4.9429 O   0  0  0  0  0  0  0  0  0  0  0  0
   41.5017    6.9076   -0.9359 C   0  0  1  0  0  0  0  0  0  0  0  0
   42.2214   -0.7274   -3.8325 C   0  0  0  0  0  0  0  0  0  0  0  0
   47.4927    3.4943   -6.0740 C   0  0  2  0  0  0  0  0  0  0  0  0
   47.1599    2.2092   -5.4558 N   0  0  0  0  0  0  0  0  0  0  0  0
   43.1057    5.4356   -9.5719 C   0  0  0  0  0  0  0  0  0  0  0  0
   43.8751    5.0108   -3.3226 C   0  0  2  0  0  0  0  0  0  0  0  0
   43.7845    3.5650   -2.9500 O   0  0  0  0  0  0  0  0  0  0  0  0
   42.1386    8.4021   -0.9832 C   0  0  2  0  0  0  0  0  0  0  0  0
   43.3897    8.4174   -0.1584 N   0  0  0  0  0  0  0  0  0  0  0  0
   42.0114   -2.1121   -3.5268 C   0  0  0  0  0  0  0  0  0  0  0  0
   40.6912   -2.6328   -3.4949 N   0  0  0  0  0  0  0  0  0  0  0  0
   47.5422    4.6790   -5.0017 C   0  0  1  0  0  0  0  0  0  0  0  0
   48.4914    4.3482   -3.9998 O   0  0  0  0  0  0  0  0  0  0  0  0
   44.2420    4.5030   -8.8584 C   0  0  2  0  0  0  0  0  0  0  0  0
   44.1068    3.1284   -9.2503 N   0  0  0  0  0  0  0  0  0  0  0  0
   42.7887    5.9935   -2.8462 C   0  0  2  0  0  0  0  0  0  0  0  0
   42.4924    6.0038   -1.4575 O   0  0  0  0  0  0  0  0  0  0  0  0
   41.0805    9.3913   -0.4079 C   0  0  1  0  0  0  0  0  0  0  0  0
   39.9113    9.3054   -1.2984 O   0  0  0  0  0  0  0  0  0  0  0  0
   39.5379   -1.8383   -3.7536 C   0  0  0  0  0  0  0  0  0  0  0  0
   47.9135    5.9987   -5.7384 C   0  0  2  0  0  0  0  0  0  0  0  0
   47.9711    7.1391   -4.7923 O   0  0  0  0  0  0  0  0  0  0  0  0
   44.1216    4.6200   -7.2832 C   0  0  2  0  0  0  0  0  0  0  0  0
   41.5760    5.6480   -3.7428 C   0  0  1  0  0  0  0  0  0  0  0  0
   40.6927    8.9679    1.1140 C   0  0  2  0  0  0  0  0  0  0  0  0
   41.8567    9.0511    2.0098 O   0  0  0  0  0  0  0  0  0  0  0  0
   39.6833   -0.4634   -4.0625 C   0  0  0  0  0  0  0  0  0  0  0  0
   46.8472    6.3238   -6.8540 C   0  0  2  0  0  0  0  0  0  0  0  0
   46.8351    5.1730   -7.7431 O   0  0  0  0  0  0  0  0  0  0  0  0
   44.2784    6.1334   -6.9036 C   0  0  2  0  0  0  0  0  0  0  0  0
   44.1678    6.1172   -5.4856 O   0  0  0  0  0  0  0  0  0  0  0  0
   40.7943    6.8893   -4.1697 C   0  0  0  0  0  0  0  0  0  0  0  0
   39.7081    6.6537   -5.0334 O   0  0  0  0  0  0  0  0  0  0  0  0
   40.1171    7.4774    1.1204 C   0  0  1  0  0  0  0  0  0  0  0  0
   41.1561    6.5586    0.5113 O   0  0  0  0  0  0  0  0  0  0  0  0
   41.0405    0.1286   -4.1075 C   0  0  0  0  0  0  0  0  0  0  0  0
   47.2617    7.5652   -7.5273 C   0  0  0  0  0  0  0  0  0  0  0  0
   46.6577    8.6102   -6.9478 O   0  0  0  0  0  0  0  0  0  0  0  0
   43.1423    7.0042   -7.5881 C   0  0  1  0  0  0  0  0  0  0  0  0
   43.3010    8.3430   -7.2506 O   0  0  0  0  0  0  0  0  0  0  0  0
   42.5860    2.6933   -2.9378 C   0  0  0  0  0  0  0  0  0  0  0  0
   39.7763    7.1257    2.5941 C   0  0  0  0  0  0  0  0  0  0  0  0
   39.3420    5.7551    2.7012 N   0  0  0  0  0  0  0  0  0  0  0  0
   42.9126    1.4862   -2.0525 C   0  0  0  0  0  0  0  0  0  0  0  0
   44.0656    0.7321   -2.6428 N   0  0  0  0  0  0  0  0  0  0  0  0
   43.7261   -0.1658   -3.8629 C   0  0  0  0  0  0  0  0  0  0  0  0
  1  2  1  1  0  0  0
  1  9  1  0  0  0  0
  1 35  1  0  0  0  0
  3  4  1  6  0  0  0
  3 11  1  0  0  0  0
  3 45  1  0  0  0  0
  5  6  1  0  0  0  0
  5 12  1  0  0  0  0
  5 37  1  6  0  0  0
  6 30  1  0  0  0  0
  7 14  1  0  0  0  0
  7 41  1  0  0  0  0
  7 23  1  1  0  0  0
  8 16  2  0  0  0  0
  8 42  1  0  0  0  0
  9 10  1  1  0  0  0
  9 18  1  0  0  0  0
 11 20  1  0  0  0  0
 12 13  1  1  0  0  0
 12 22  1  0  0  0  0
 13 47  1  0  0  0  0
 14 15  1  1  0  0  0
 14 24  1  0  0  0  0
 16 17  1  0  0  0  0
 17 26  2  0  0  0  0
 18 19  1  1  0  0  0
 18 27  1  0  0  0  0
 20 21  1  1  0  0  0
 20 29  1  0  0  0  0
 22 23  1  1  0  0  0
 22 30  1  0  0  0  0
 24 25  1  6  0  0  0
 24 31  1  0  0  0  0
 26 33  1  0  0  0  0
 27 28  1  1  0  0  0
 27 34  1  0  0  0  0
 29  2  1  1  0  0  0
 29 36  1  0  0  0  0
 30 38  1  6  0  0  0
 31 32  1  1  0  0  0
 31 40  1  0  0  0  0
 33 42  2  0  0  0  0
 34 35  1  0  0  0  0
 34 43  1  6  0  0  0
 36 37  1  1  0  0  0
 36 45  1  0  0  0  0
 38 39  1  0  0  0  0
 40 41  1  0  0  0  0
 40 48  1  1  0  0  0
 43 44  1  0  0  0  0
 45 46  1  1  0  0  0
 47 50  1  0  0  0  0
 48 49  1  0  0  0  0
 50 51  1  0  0  0  0
 51 52  1  0  0  0  0
 52  8  1  0  0  0  0
M  END
>  <CHROM.1>
151.42324132,-76.27779944,-72.15296647,-66.49740788,-161.07188008,179.17922752
45.30053318,61.24071064,-93.66834278,-20.18219824,-175.71236982,-61.64946673
-77.15899430,-29.54442503,-106.93981668,43.32811948,5.02522686,-4.14997572
0.45379525,-0.95817088,-2.87967588

>  <Name>
2be0_lig

>  <RI>
0

>  <Rbt.Current_Directory>
/home/itssahil/PROJECTS/Mol_Feturizer/New_Systems/rnas/2be0

>  <Rbt.Executable>
rbdock ($Id: //depot/dev/client3/rdock/2013.1/src/exe/rbdock.cxx#4 $)

>  <Rbt.Library>
libRbt.so (2013.1, Build901 2013/11/27)

>  <Rbt.Parameter_File>
/export/apps/rDock/src/rDock_2013.1_src/data/scripts/dock_solv.prm

>  <Rbt.Receptor>
prm/pocket_docking_2.prm

>  <SCORE>
20.8149

>  <SCORE.INTER>
19.5428

>  <SCORE.INTER.CONST>
1

>  <SCORE.INTER.POLAR>
-1.17018

>  <SCORE.INTER.ROT>
15

>  <SCORE.INTER.SOLV>
17.7454

>  <SCORE.INTER.VDW>
-2.586

>  <SCORE.INTER.norm>
0.375824

>  <SCORE.INTRA>
-4.42095

>  <SCORE.INTRA.DIHEDRAL>
-29.1473

>  <SCORE.INTRA.DIHEDRAL.0>
47.8724

>  <SCORE.INTRA.POLAR>
0

>  <SCORE.INTRA.POLAR.0>
0

>  <SCORE.INTRA.REPUL>
0

>  <SCORE.INTRA.REPUL.0>
0

>  <SCORE.INTRA.SOLV>
-1.72937

>  <SCORE.INTRA.SOLV.lig_0>
-115.677

>  <SCORE.INTRA.VDW>
11.0174

>  <SCORE.INTRA.VDW.0>
-7.4833

>  <SCORE.INTRA.norm>
-0.0850183

>  <SCORE.RESTR>
5.69302

>  <SCORE.RESTR.CAVITY>
5.69302

>  <SCORE.RESTR.norm>
0.109481

>  <SCORE.SYSTEM>
0

>  <SCORE.SYSTEM.CONST>
0

>  <SCORE.SYSTEM.DIHEDRAL>
0

>  <SCORE.SYSTEM.SOLV>
0

>  <SCORE.SYSTEM.norm>
0

>  <SCORE.heavy>
52

>  <SCORE.norm>
0.400287

>  <RMSD>
4.341

$$$$
2be0_lig
 OpenBabel11021811423D
libRbt.so/2013.1/901 2013/11/27
 52 56  0  0  0  0  0  0  0  0999 V2000
   46.7583    6.6323   -5.4056 C   0  0  2  0  0  0  0  0  0  0  0  0
   45.3878    6.8896   -5.6015 O   0  0  0  0  0  0  0  0  0  0  0  0
   42.4346    6.8201   -8.8641 C   0  0  2  0  0  0  0  0  0  0  0  0
   41.8682    6.6441  -10.2307 N   0  0  0  0  0  0  0  0  0  0  0  0
   43.3334    3.5466   -5.6660 C   0  0  2  0  0  0  0  0  0  0  0  0
   41.9384    3.9051   -5.7423 O   0  0  0  0  0  0  0  0  0  0  0  0
   41.9417    5.8134   -1.6744 C   0  0  1  0  0  0  0  0  0  0  0  0
   40.0595   -1.1517   -5.0908 C   0  0  0  0  0  0  0  0  0  0  0  0
   47.5120    6.4575   -6.7866 C   0  0  2  0  0  0  0  0  0  0  0  0
   47.2670    7.6251   -7.6359 N   0  0  0  0  0  0  0  0  0  0  0  0
   43.6487    7.8543   -8.9307 C   0  0  0  0  0  0  0  0  0  0  0  0
   43.6822    3.4394   -4.1729 C   0  0  2  0  0  0  0  0  0  0  0  0
   43.2855    2.0409   -3.8208 O   0  0  0  0  0  0  0  0  0  0  0  0
   42.8587    7.1140   -2.0041 C   0  0  2  0  0  0  0  0  0  0  0  0
   44.2218    6.9015   -1.4189 N   0  0  0  0  0  0  0  0  0  0  0  0
   39.3872   -2.3774   -5.4076 C   0  0  0  0  0  0  0  0  0  0  0  0
   38.7023   -2.5045   -6.6445 N   0  0  0  0  0  0  0  0  0  0  0  0
   47.0424    5.0993   -7.4870 C   0  0  1  0  0  0  0  0  0  0  0  0
   47.7229    4.9655   -8.7251 O   0  0  0  0  0  0  0  0  0  0  0  0
   44.3084    8.0648   -7.4507 C   0  0  2  0  0  0  0  0  0  0  0  0
   45.4009    8.9952   -7.4965 N   0  0  0  0  0  0  0  0  0  0  0  0
   42.8496    4.6256   -3.6508 C   0  0  2  0  0  0  0  0  0  0  0  0
   42.5961    4.6706   -2.2543 O   0  0  0  0  0  0  0  0  0  0  0  0
   42.1685    8.3591   -1.3697 C   0  0  1  0  0  0  0  0  0  0  0  0
   40.8559    8.4794   -2.0254 O   0  0  0  0  0  0  0  0  0  0  0  0
   38.6429   -1.4584   -7.6089 C   0  0  0  0  0  0  0  0  0  0  0  0
   47.3499    3.9145   -6.5258 C   0  0  2  0  0  0  0  0  0  0  0  0
   46.9309    2.6226   -7.1214 O   0  0  0  0  0  0  0  0  0  0  0  0
   44.8184    6.6749   -6.8872 C   0  0  2  0  0  0  0  0  0  0  0  0
   41.5696    4.5734   -4.5184 C   0  0  1  0  0  0  0  0  0  0  0  0
   42.0068    8.1481    0.2351 C   0  0  2  0  0  0  0  0  0  0  0  0
   43.3150    8.0267    0.8972 O   0  0  0  0  0  0  0  0  0  0  0  0
   39.2895   -0.2243   -7.3517 C   0  0  0  0  0  0  0  0  0  0  0  0
   46.5912    4.1067   -5.1565 C   0  0  2  0  0  0  0  0  0  0  0  0
   47.0392    5.3850   -4.6273 O   0  0  0  0  0  0  0  0  0  0  0  0
   43.5940    5.6957   -6.8525 C   0  0  2  0  0  0  0  0  0  0  0  0
   44.1588    4.5013   -6.3255 O   0  0  0  0  0  0  0  0  0  0  0  0
   41.0693    5.9646   -4.9036 C   0  0  0  0  0  0  0  0  0  0  0  0
   40.0420    5.9941   -5.8653 O   0  0  0  0  0  0  0  0  0  0  0  0
   41.1414    6.8343    0.5136 C   0  0  1  0  0  0  0  0  0  0  0  0
   41.8215    5.6595   -0.1586 O   0  0  0  0  0  0  0  0  0  0  0  0
   40.0173   -0.0411   -6.0746 C   0  0  0  0  0  0  0  0  0  0  0  0
   46.9365    2.9719   -4.2853 C   0  0  0  0  0  0  0  0  0  0  0  0
   46.0069    2.8435   -3.3303 O   0  0  0  0  0  0  0  0  0  0  0  0
   42.9981    5.4907   -8.3086 C   0  0  1  0  0  0  0  0  0  0  0  0
   41.9085    4.6294   -8.2595 O   0  0  0  0  0  0  0  0  0  0  0  0
   43.5750    1.2900   -2.5763 C   0  0  0  0  0  0  0  0  0  0  0  0
   41.0304    6.6786    2.0548 C   0  0  0  0  0  0  0  0  0  0  0  0
   41.2901    5.3158    2.4471 N   0  0  0  0  0  0  0  0  0  0  0  0
   42.3165    0.4890   -2.2271 C   0  0  0  0  0  0  0  0  0  0  0  0
   41.4505    0.3650   -3.4442 N   0  0  0  0  0  0  0  0  0  0  0  0
   40.8277   -1.0366   -3.6848 C   0  0  0  0  0  0  0  0  0  0  0  0
  1  2  1  6  0  0  0
  1  9  1  0  0  0  0
  1 35  1  0  0  0  0
  3  4  1  6  0  0  0
  3 11  1  0  0  0  0
  3 45  1  0  0  0  0
  5  6  1  0  0  0  0
  5 12  1  0  0  0  0
  5 37  1  1  0  0  0
  6 30  1  0  0  0  0
  7 14  1  0  0  0  0
  7 41  1  0  0  0  0
  7 23  1  1  0  0  0
  8 16  2  0  0  0  0
  8 42  1  0  0  0  0
  9 10  1  6  0  0  0
  9 18  1  0  0  0  0
 11 20  1  0  0  0  0
 12 13  1  1  0  0  0
 12 22  1  0  0  0  0
 13 47  1  0  0  0  0
 14 15  1  1  0  0  0
 14 24  1  0  0  0  0
 16 17  1  0  0  0  0
 17 26  2  0  0  0  0
 18 19  1  6  0  0  0
 18 27  1  0  0  0  0
 20 21  1  6  0  0  0
 20 29  1  0  0  0  0
 22 23  1  1  0  0  0
 22 30  1  0  0  0  0
 24 25  1  6  0  0  0
 24 31  1  0  0  0  0
 26 33  1  0  0  0  0
 27 28  1  6  0  0  0
 27 34  1  0  0  0  0
 29  2  1  1  0  0  0
 29 36  1  0  0  0  0
 30 38  1  6  0  0  0
 31 32  1  1  0  0  0
 31 40  1  0  0  0  0
 33 42  2  0  0  0  0
 34 35  1  0  0  0  0
 34 43  1  1  0  0  0
 36 37  1  6  0  0  0
 36 45  1  0  0  0  0
 38 39  1  0  0  0  0
 40 41  1  0  0  0  0
 40 48  1  1  0  0  0
 43 44  1  0  0  0  0
 45 46  1  1  0  0  0
 47 50  1  0  0  0  0
 48 49  1  0  0  0  0
 50 51  1  0  0  0  0
 51 52  1  0  0  0  0
 52  8  1  0  0  0  0
M  END
>  <CHROM.1>
13.47906159,5.48050527,-59.06372857,169.57345296,140.31970631,173.80773839
-116.40168453,53.87994567,-159.27589342,156.03288119,-134.19267359,19.09259417
137.04584193,-173.07324608,-177.19798094,43.20523429,4.53702373,-4.69806853
-0.49208902,-0.90126116,-2.21413259

>  <Name>
2be0_lig

>  <RI>
0

>  <Rbt.Current_Directory>
/home/itssahil/PROJECTS/Mol_Feturizer/New_Systems/rnas/2be0

>  <Rbt.Executable>
rbdock ($Id: //depot/dev/client3/rdock/2013.1/src/exe/rbdock.cxx#4 $)

>  <Rbt.Library>
libRbt.so (2013.1, Build901 2013/11/27)

>  <Rbt.Parameter_File>
/export/apps/rDock/src/rDock_2013.1_src/data/scripts/dock_solv.prm

>  <Rbt.Receptor>
prm/pocket_docking_2.prm

>  <SCORE>
12.3457

>  <SCORE.INTER>
2.32148

>  <SCORE.INTER.CONST>
1

>  <SCORE.INTER.POLAR>
-1.4206

>  <SCORE.INTER.ROT>
15

>  <SCORE.INTER.SOLV>
22.4245

>  <SCORE.INTER.VDW>
-14.7919

>  <SCORE.INTER.norm>
0.0446438

>  <SCORE.INTRA>
6.45258

>  <SCORE.INTRA.DIHEDRAL>
-6.30763

>  <SCORE.INTRA.DIHEDRAL.0>
47.8724

>  <SCORE.INTRA.POLAR>
0

>  <SCORE.INTRA.POLAR.0>
0

>  <SCORE.INTRA.REPUL>
0.00266743

>  <SCORE.INTRA.REPUL.0>
0

>  <SCORE.INTRA.SOLV>
6.27878

>  <SCORE.INTRA.SOLV.lig_0>
-115.677

>  <SCORE.INTRA.VDW>
6.45367

>  <SCORE.INTRA.VDW.0>
-7.4833

>  <SCORE.INTRA.norm>
0.124088

>  <SCORE.RESTR>
3.57164

>  <SCORE.RESTR.CAVITY>
3.57164

>  <SCORE.RESTR.norm>
0.0686853

>  <SCORE.SYSTEM>
0

>  <SCORE.SYSTEM.CONST>
0

>  <SCORE.SYSTEM.DIHEDRAL>
0

>  <SCORE.SYSTEM.SOLV>
0

>  <SCORE.SYSTEM.norm>
0

>  <SCORE.heavy>
52

>  <SCORE.norm>
0.237417

>  <RMSD>
4.346

$$$$
2be0_lig
 OpenBabel11021811423D
libRbt.so/2013.1/901 2013/11/27
 52 56  0  0  0  0  0  0  0  0999 V2000
   46.5251    9.6070   -7.5713 C   0  0  2  0  0  0  0  0  0  0  0  0
   46.3486    8.2320   -7.8187 O   0  0  0  0  0  0  0  0  0  0  0  0
   47.0138    4.4072   -5.7450 C   0  0  2  0  0  0  0  0  0  0  0  0
   47.5881    3.4187   -4.7899 N   0  0  0  0  0  0  0  0  0  0  0  0
   43.7193    7.6680   -5.0236 C   0  0  2  0  0  0  0  0  0  0  0  0
   43.2968    8.8767   -4.3595 O   0  0  0  0  0  0  0  0  0  0  0  0
   42.4962    7.3143   -0.6552 C   0  0  1  0  0  0  0  0  0  0  0  0
   43.2809    5.5640   -8.8165 C   0  0  0  0  0  0  0  0  0  0  0  0
   45.2682   10.4415   -8.0503 C   0  0  2  0  0  0  0  0  0  0  0  0
   44.0527    9.9034   -7.4359 N   0  0  0  0  0  0  0  0  0  0  0  0
   48.1936    5.0410   -6.6138 C   0  0  0  0  0  0  0  0  0  0  0  0
   43.4408    6.5090   -4.0532 C   0  0  2  0  0  0  0  0  0  0  0  0
   42.0070    6.1718   -4.3138 O   0  0  0  0  0  0  0  0  0  0  0  0
   42.3946    6.4645    0.7264 C   0  0  2  0  0  0  0  0  0  0  0  0
   41.8818    5.0924    0.4099 N   0  0  0  0  0  0  0  0  0  0  0  0
   43.5967    6.8440   -8.2537 C   0  0  0  0  0  0  0  0  0  0  0  0
   44.0280    7.8978   -9.1013 N   0  0  0  0  0  0  0  0  0  0  0  0
   45.1891   10.4252   -9.6470 C   0  0  1  0  0  0  0  0  0  0  0  0
   44.0530   11.1714  -10.0551 O   0  0  0  0  0  0  0  0  0  0  0  0
   47.6059    6.1435   -7.6668 C   0  0  2  0  0  0  0  0  0  0  0  0
   48.6576    6.7197   -8.4563 N   0  0  0  0  0  0  0  0  0  0  0  0
   43.8366    7.2037   -2.7366 C   0  0  2  0  0  0  0  0  0  0  0  0
   43.3895    6.6025   -1.5303 O   0  0  0  0  0  0  0  0  0  0  0  0
   41.4185    7.2172    1.6802 C   0  0  1  0  0  0  0  0  0  0  0  0
   42.0260    8.5341    1.9334 O   0  0  0  0  0  0  0  0  0  0  0  0
   44.1693    7.7507  -10.5107 C   0  0  0  0  0  0  0  0  0  0  0  0
   46.5093   11.0230  -10.2144 C   0  0  2  0  0  0  0  0  0  0  0  0
   46.4967   11.0307  -11.6973 O   0  0  0  0  0  0  0  0  0  0  0  0
   46.8464    7.2883   -6.8780 C   0  0  2  0  0  0  0  0  0  0  0  0
   43.3392    8.6554   -2.9348 C   0  0  1  0  0  0  0  0  0  0  0  0
   39.9595    7.3683    0.9769 C   0  0  2  0  0  0  0  0  0  0  0  0
   39.3463    6.0558    0.7205 O   0  0  0  0  0  0  0  0  0  0  0  0
   43.8705    6.5090  -11.1238 C   0  0  0  0  0  0  0  0  0  0  0  0
   47.7490   10.1790   -9.7261 C   0  0  2  0  0  0  0  0  0  0  0  0
   47.7036   10.2062   -8.2728 O   0  0  0  0  0  0  0  0  0  0  0  0
   45.7088    6.6135   -6.0356 C   0  0  2  0  0  0  0  0  0  0  0  0
   45.0946    7.7214   -5.3885 O   0  0  0  0  0  0  0  0  0  0  0  0
   44.3040    9.6867   -2.3520 C   0  0  0  0  0  0  0  0  0  0  0  0
   44.2111    9.8853   -0.9616 O   0  0  0  0  0  0  0  0  0  0  0  0
   40.1130    8.1659   -0.3990 C   0  0  1  0  0  0  0  0  0  0  0  0
   41.1037    7.4267   -1.2748 O   0  0  0  0  0  0  0  0  0  0  0  0
   43.4173    5.3771  -10.2826 C   0  0  0  0  0  0  0  0  0  0  0  0
   48.9642   10.8024  -10.2745 C   0  0  0  0  0  0  0  0  0  0  0  0
   48.9438   10.7203  -11.6107 O   0  0  0  0  0  0  0  0  0  0  0  0
   46.3167    5.5726   -5.0039 C   0  0  1  0  0  0  0  0  0  0  0  0
   45.2962    4.9764   -4.2729 O   0  0  0  0  0  0  0  0  0  0  0  0
   41.0866    6.7778   -5.3047 C   0  0  0  0  0  0  0  0  0  0  0  0
   38.6968    8.2691   -1.0276 C   0  0  0  0  0  0  0  0  0  0  0  0
   37.6829    7.9784   -0.0446 N   0  0  0  0  0  0  0  0  0  0  0  0
   41.5820    6.3658   -6.6947 C   0  0  0  0  0  0  0  0  0  0  0  0
   41.8409    4.8895   -6.7146 N   0  0  0  0  0  0  0  0  0  0  0  0
   42.7940    4.3903   -7.8337 C   0  0  0  0  0  0  0  0  0  0  0  0
  1  2  1  6  0  0  0
  1  9  1  0  0  0  0
  1 35  1  0  0  0  0
  3  4  1  1  0  0  0
  3 11  1  0  0  0  0
  3 45  1  0  0  0  0
  5  6  1  0  0  0  0
  5 12  1  0  0  0  0
  5 37  1  1  0  0  0
  6 30  1  0  0  0  0
  7 14  1  0  0  0  0
  7 41  1  0  0  0  0
  7 23  1  6  0  0  0
  8 16  2  0  0  0  0
  8 42  1  0  0  0  0
  9 10  1  1  0  0  0
  9 18  1  0  0  0  0
 11 20  1  0  0  0  0
 12 13  1  1  0  0  0
 12 22  1  0  0  0  0
 13 47  1  0  0  0  0
 14 15  1  6  0  0  0
 14 24  1  0  0  0  0
 16 17  1  0  0  0  0
 17 26  2  0  0  0  0
 18 19  1  1  0  0  0
 18 27  1  0  0  0  0
 20 21  1  1  0  0  0
 20 29  1  0  0  0  0
 22 23  1  1  0  0  0
 22 30  1  0  0  0  0
 24 25  1  6  0  0  0
 24 31  1  0  0  0  0
 26 33  1  0  0  0  0
 27 28  1  6  0  0  0
 27 34  1  0  0  0  0
 29  2  1  6  0  0  0
 29 36  1  0  0  0  0
 30 38  1  1  0  0  0
 31 32  1  6  0  0  0
 31 40  1  0  0  0  0
 33 42  2  0  0  0  0
 34 35  1  0  0  0  0
 34 43  1  1  0  0  0
 36 37  1  1  0  0  0
 36 45  1  0  0  0  0
 38 39  1  0  0  0  0
 40 41  1  0  0  0  0
 40 48  1  6  0  0  0
 43 44  1  0  0  0  0
 45 46  1  6  0  0  0
 47 50  1  0  0  0  0
 48 49  1  0  0  0  0
 50 51  1  0  0  0  0
 51 52  1  0  0  0  0
 52  8  1  0  0  0  0
M  END
>  <CHROM.1>
-143.15174108,178.93340272,-170.38505804,1.92662666,68.51814166,-117.45476809
-134.28537288,163.19748687,-64.20497747,151.85857575,16.25484885,48.27356603
-159.24664350,-2.56431827,39.54166148,44.12301520,7.63527095,-5.40950036
0.53161933,0.96092363,-0.44261346

>  <Name>
2be0_lig

>  <RI>
224

>  <Rbt.Current_Directory>
/home/itssahil/PROJECTS/Mol_Feturizer/New_Systems/rnas/2be0

>  <Rbt.Executable>
rbdock ($Id: //depot/dev/client3/rdock/2013.1/src/exe/rbdock.cxx#4 $)

>  <Rbt.Library>
libRbt.so (2013.1, Build901 2013/11/27)

>  <Rbt.Parameter_File>
/export/apps/rDock/src/rDock_2013.1_src/data/scripts/dock_solv.prm

>  <Rbt.Receptor>
prm/blind_docking_100.prm

>  <SCORE>
50.7871

>  <SCORE.INTER>
30.7219

>  <SCORE.INTER.CONST>
1

>  <SCORE.INTER.POLAR>
-0.430466

>  <SCORE.INTER.ROT>
15

>  <SCORE.INTER.SOLV>
28.5861

>  <SCORE.INTER.VDW>
-1.21256

>  <SCORE.INTER.norm>
0.590805

>  <SCORE.INTRA>
13.192

>  <SCORE.INTRA.DIHEDRAL>
-10.6044

>  <SCORE.INTRA.DIHEDRAL.0>
47.8724

>  <SCORE.INTRA.POLAR>
0

>  <SCORE.INTRA.POLAR.0>
0

>  <SCORE.INTRA.REPUL>
0.121058

>  <SCORE.INTRA.REPUL.0>
0

>  <SCORE.INTRA.SOLV>
8.24126

>  <SCORE.INTRA.SOLV.lig_0>
-115.677

>  <SCORE.INTRA.VDW>
13.7682

>  <SCORE.INTRA.VDW.0>
-7.4833

>  <SCORE.INTRA.norm>
0.253692

>  <SCORE.RESTR>
6.87329

>  <SCORE.RESTR.CAVITY>
6.87329

>  <SCORE.RESTR.norm>
0.132179

>  <SCORE.SYSTEM>
0

>  <SCORE.SYSTEM.CONST>
0

>  <SCORE.SYSTEM.DIHEDRAL>
0

>  <SCORE.SYSTEM.SOLV>
0

>  <SCORE.SYSTEM.norm>
0

>  <SCORE.heavy>
52

>  <SCORE.norm>
0.976676

>  <RMSD>
4.473

$$$$
2be0_lig
 OpenBabel11021811423D
libRbt.so/2013.1/901 2013/11/27
 52 56  0  0  0  0  0  0  0  0999 V2000
   48.1462    4.0724   -5.5679 C   0  0  2  0  0  0  0  0  0  0  0  0
   47.7388    5.4175   -5.4810 O   0  0  0  0  0  0  0  0  0  0  0  0
   44.6307    8.0135   -7.2050 C   0  0  2  0  0  0  0  0  0  0  0  0
   43.3896    8.4170   -7.9235 N   0  0  0  0  0  0  0  0  0  0  0  0
   44.3889    4.8968   -4.1369 C   0  0  2  0  0  0  0  0  0  0  0  0
   43.0682    5.4599   -4.2748 O   0  0  0  0  0  0  0  0  0  0  0  0
   42.3430    5.2080    0.2000 C   0  0  1  0  0  0  0  0  0  0  0  0
   40.3623   -0.4994   -5.0917 C   0  0  0  0  0  0  0  0  0  0  0  0
   49.4218    3.8007   -4.6709 C   0  0  2  0  0  0  0  0  0  0  0  0
   49.1606    4.2293   -3.2951 N   0  0  0  0  0  0  0  0  0  0  0  0
   45.5291    7.1193   -8.1754 C   0  0  0  0  0  0  0  0  0  0  0  0
   44.3754    4.0437   -2.8584 C   0  0  2  0  0  0  0  0  0  0  0  0
   43.8429    2.7256   -3.3233 O   0  0  0  0  0  0  0  0  0  0  0  0
   40.7398    4.9429    0.1737 C   0  0  2  0  0  0  0  0  0  0  0  0
   40.2196    5.2791   -1.1909 N   0  0  0  0  0  0  0  0  0  0  0  0
   40.0001   -1.6740   -4.3541 C   0  0  0  0  0  0  0  0  0  0  0  0
   40.0905   -2.9485   -4.9726 N   0  0  0  0  0  0  0  0  0  0  0  0
   50.6891    4.5458   -5.2991 C   0  0  1  0  0  0  0  0  0  0  0  0
   51.8188    4.2962   -4.4772 O   0  0  0  0  0  0  0  0  0  0  0  0
   46.8968    6.6432   -7.4186 C   0  0  2  0  0  0  0  0  0  0  0  0
   47.7153    5.8395   -8.2821 N   0  0  0  0  0  0  0  0  0  0  0  0
   43.5004    4.9547   -1.9766 C   0  0  2  0  0  0  0  0  0  0  0  0
   42.9313    4.3725   -0.8131 O   0  0  0  0  0  0  0  0  0  0  0  0
   40.0868    5.8523    1.2579 C   0  0  1  0  0  0  0  0  0  0  0  0
   40.6545    5.4258    2.5476 O   0  0  0  0  0  0  0  0  0  0  0  0
   40.5289   -3.1293   -6.3154 C   0  0  0  0  0  0  0  0  0  0  0  0
   50.9015    4.0239   -6.7499 C   0  0  2  0  0  0  0  0  0  0  0  0
   52.0656    4.6842   -7.3887 O   0  0  0  0  0  0  0  0  0  0  0  0
   46.5310    5.8192   -6.1161 C   0  0  2  0  0  0  0  0  0  0  0  0
   42.4563    5.5179   -2.9699 C   0  0  1  0  0  0  0  0  0  0  0  0
   40.4273    7.4135    0.9533 C   0  0  2  0  0  0  0  0  0  0  0  0
   39.8633    7.8468   -0.3346 O   0  0  0  0  0  0  0  0  0  0  0  0
   40.9011   -2.0054   -7.0933 C   0  0  0  0  0  0  0  0  0  0  0  0
   49.6209    4.3030   -7.6271 C   0  0  2  0  0  0  0  0  0  0  0  0
   48.5197    3.6367   -6.9502 O   0  0  0  0  0  0  0  0  0  0  0  0
   45.6424    6.7357   -5.2053 C   0  0  2  0  0  0  0  0  0  0  0  0
   45.3886    5.9089   -4.0760 O   0  0  0  0  0  0  0  0  0  0  0  0
   42.1248    6.9843   -2.6978 C   0  0  0  0  0  0  0  0  0  0  0  0
   41.3531    7.6242   -3.6859 O   0  0  0  0  0  0  0  0  0  0  0  0
   42.0118    7.6189    0.9404 C   0  0  1  0  0  0  0  0  0  0  0  0
   42.6090    6.6845   -0.0915 O   0  0  0  0  0  0  0  0  0  0  0  0
   40.8237   -0.6529   -6.4940 C   0  0  0  0  0  0  0  0  0  0  0  0
   49.8722    3.7705   -8.9760 C   0  0  0  0  0  0  0  0  0  0  0  0
   48.9116    4.1918   -9.8081 O   0  0  0  0  0  0  0  0  0  0  0  0
   44.3105    7.1537   -5.9594 C   0  0  1  0  0  0  0  0  0  0  0  0
   43.5395    7.9733   -5.1437 O   0  0  0  0  0  0  0  0  0  0  0  0
   43.5997    1.5004   -2.5256 C   0  0  0  0  0  0  0  0  0  0  0  0
   42.2755    9.1185    0.6351 C   0  0  0  0  0  0  0  0  0  0  0  0
   43.6911    9.3916    0.6188 N   0  0  0  0  0  0  0  0  0  0  0  0
   42.5862    0.6502   -3.2984 C   0  0  0  0  0  0  0  0  0  0  0  0
   41.6341    1.5492   -4.0278 N   0  0  0  0  0  0  0  0  0  0  0  0
   40.2515    0.9294   -4.3661 C   0  0  0  0  0  0  0  0  0  0  0  0
  1  2  1  6  0  0  0
  1  9  1  0  0  0  0
  1 35  1  0  0  0  0
  3  4  1  6  0  0  0
  3 11  1  0  0  0  0
  3 45  1  0  0  0  0
  5  6  1  0  0  0  0
  5 12  1  0  0  0  0
  5 37  1  1  0  0  0
  6 30  1  0  0  0  0
  7 14  1  0  0  0  0
  7 41  1  0  0  0  0
  7 23  1  6  0  0  0
  8 16  2  0  0  0  0
  8 42  1  0  0  0  0
  9 10  1  1  0  0  0
  9 18  1  0  0  0  0
 11 20  1  0  0  0  0
 12 13  1  6  0  0  0
 12 22  1  0  0  0  0
 13 47  1  0  0  0  0
 14 15  1  6  0  0  0
 14 24  1  0  0  0  0
 16 17  1  0  0  0  0
 17 26  2  0  0  0  0
 18 19  1  1  0  0  0
 18 27  1  0  0  0  0
 20 21  1  6  0  0  0
 20 29  1  0  0  0  0
 22 23  1  1  0  0  0
 22 30  1  0  0  0  0
 24 25  1  1  0  0  0
 24 31  1  0  0  0  0
 26 33  1  0  0  0  0
 27 28  1  6  0  0  0
 27 34  1  0  0  0  0
 29  2  1  1  0  0  0
 29 36  1  0  0  0  0
 30 38  1  1  0  0  0
 31 32  1  6  0  0  0
 31 40  1  0  0  0  0
 33 42  2  0  0  0  0
 34 35  1  0  0  0  0
 34 43  1  6  0  0  0
 36 37  1  1  0  0  0
 36 45  1  0  0  0  0
 38 39  1  0  0  0  0
 40 41  1  0  0  0  0
 40 48  1  6  0  0  0
 43 44  1  0  0  0  0
 45 46  1  1  0  0  0
 47 50  1  0  0  0  0
 48 49  1  0  0  0  0
 50 51  1  0  0  0  0
 51 52  1  0  0  0  0
 52  8  1  0  0  0  0
M  END
>  <CHROM.1>
-173.88056061,-66.03784973,111.27873191,-179.72364636,158.59592755,166.95917789
-105.71890662,53.81954900,-169.26681957,-79.41075715,179.43228743,-33.40973551
-155.99080475,-50.55092297,108.19448847,44.35409706,4.58908023,-4.05070079
-0.33760090,0.56010565,0.56036045

>  <Name>
2be0_lig

>  <RI>
0

>  <Rbt.Current_Directory>
/home/itssahil/PROJECTS/Mol_Feturizer/New_Systems/rnas/2be0

>  <Rbt.Executable>
rbdock ($Id: //depot/dev/client3/rdock/2013.1/src/exe/rbdock.cxx#4 $)

>  <Rbt.Library>
libRbt.so (2013.1, Build901 2013/11/27)

>  <Rbt.Parameter_File>
/export/apps/rDock/src/rDock_2013.1_src/data/scripts/dock_solv.prm

>  <Rbt.Receptor>
prm/pocket_docking_2.prm

>  <SCORE>
9.37302

>  <SCORE.INTER>
7.17043

>  <SCORE.INTER.CONST>
1

>  <SCORE.INTER.POLAR>
-0.277937

>  <SCORE.INTER.ROT>
15

>  <SCORE.INTER.SOLV>
22.3567

>  <SCORE.INTER.VDW>
-15.3455

>  <SCORE.INTER.norm>
0.137893

>  <SCORE.INTRA>
-4.95638

>  <SCORE.INTRA.DIHEDRAL>
-25.4212

>  <SCORE.INTRA.DIHEDRAL.0>
47.8724

>  <SCORE.INTRA.POLAR>
0

>  <SCORE.INTRA.POLAR.0>
0

>  <SCORE.INTRA.REPUL>
0

>  <SCORE.INTRA.REPUL.0>
0

>  <SCORE.INTRA.SOLV>
5.22187

>  <SCORE.INTRA.SOLV.lig_0>
-115.677

>  <SCORE.INTRA.VDW>
5.14329

>  <SCORE.INTRA.VDW.0>
-7.4833

>  <SCORE.INTRA.norm>
-0.0953151

>  <SCORE.RESTR>
7.15897

>  <SCORE.RESTR.CAVITY>
7.15897

>  <SCORE.RESTR.norm>
0.137673

>  <SCORE.SYSTEM>
0

>  <SCORE.SYSTEM.CONST>
0

>  <SCORE.SYSTEM.DIHEDRAL>
0

>  <SCORE.SYSTEM.SOLV>
0

>  <SCORE.SYSTEM.norm>
0

>  <SCORE.heavy>
52

>  <SCORE.norm>
0.18025

>  <RMSD>
4.535

$$$$
2be0_lig
 OpenBabel11021811423D
libRbt.so/2013.1/901 2013/11/27
 52 56  0  0  0  0  0  0  0  0999 V2000
   44.7967    7.2127   -7.4905 C   0  0  2  0  0  0  0  0  0  0  0  0
   45.8935    6.5283   -8.0484 O   0  0  0  0  0  0  0  0  0  0  0  0
   48.6535    3.5651   -6.3242 C   0  0  2  0  0  0  0  0  0  0  0  0
   49.7079    2.9847   -5.4461 N   0  0  0  0  0  0  0  0  0  0  0  0
   44.3227    4.2575   -5.0639 C   0  0  2  0  0  0  0  0  0  0  0  0
   42.9590    4.4258   -5.5024 O   0  0  0  0  0  0  0  0  0  0  0  0
   41.9917    7.1315   -2.0009 C   0  0  1  0  0  0  0  0  0  0  0  0
   41.2418    4.4108    1.2945 C   0  0  0  0  0  0  0  0  0  0  0  0
   43.5141    7.0858   -8.4095 C   0  0  2  0  0  0  0  0  0  0  0  0
   43.2306    5.6733   -8.6724 N   0  0  0  0  0  0  0  0  0  0  0  0
   49.2475    4.8380   -7.0827 C   0  0  0  0  0  0  0  0  0  0  0  0
   44.3303    4.4838   -3.5437 C   0  0  2  0  0  0  0  0  0  0  0  0
   43.9681    3.1427   -2.9889 O   0  0  0  0  0  0  0  0  0  0  0  0
   43.0095    8.3812   -2.2098 C   0  0  2  0  0  0  0  0  0  0  0  0
   44.1286    8.2599   -1.2205 N   0  0  0  0  0  0  0  0  0  0  0  0
   42.3919    5.2649    1.2432 C   0  0  0  0  0  0  0  0  0  0  0  0
   42.5828    6.2486    2.2487 N   0  0  0  0  0  0  0  0  0  0  0  0
   43.7364    7.9127   -9.7595 C   0  0  1  0  0  0  0  0  0  0  0  0
   42.5800    7.7800  -10.5715 O   0  0  0  0  0  0  0  0  0  0  0  0
   48.1154    5.5139   -8.0478 C   0  0  2  0  0  0  0  0  0  0  0  0
   48.6380    6.6593   -8.7380 N   0  0  0  0  0  0  0  0  0  0  0  0
   43.3159    5.6409   -3.4726 C   0  0  2  0  0  0  0  0  0  0  0  0
   42.7494    5.9248   -2.2018 O   0  0  0  0  0  0  0  0  0  0  0  0
   42.2050    9.6965   -1.9816 C   0  0  1  0  0  0  0  0  0  0  0  0
   41.1520    9.7172   -3.0102 O   0  0  0  0  0  0  0  0  0  0  0  0
   41.6743    6.4398    3.3286 C   0  0  0  0  0  0  0  0  0  0  0  0
   44.0175    9.3982   -9.3899 C   0  0  2  0  0  0  0  0  0  0  0  0
   44.2368   10.2177  -10.6062 O   0  0  0  0  0  0  0  0  0  0  0  0
   46.8591    5.9428   -7.1834 C   0  0  2  0  0  0  0  0  0  0  0  0
   42.2737    5.2696   -4.5542 C   0  0  1  0  0  0  0  0  0  0  0  0
   41.5659    9.7053   -0.4858 C   0  0  2  0  0  0  0  0  0  0  0  0
   42.6128    9.6843    0.5477 O   0  0  0  0  0  0  0  0  0  0  0  0
   40.5203    5.6247    3.4324 C   0  0  0  0  0  0  0  0  0  0  0  0
   45.2975    9.5038   -8.4745 C   0  0  2  0  0  0  0  0  0  0  0  0
   45.0233    8.6807   -7.3073 O   0  0  0  0  0  0  0  0  0  0  0  0
   46.3226    4.6629   -6.4533 C   0  0  2  0  0  0  0  0  0  0  0  0
   45.2037    5.1579   -5.7279 O   0  0  0  0  0  0  0  0  0  0  0  0
   41.7729    6.4903   -5.3245 C   0  0  0  0  0  0  0  0  0  0  0  0
   40.8469    6.2215   -6.3498 O   0  0  0  0  0  0  0  0  0  0  0  0
   40.6121    8.4359   -0.3081 C   0  0  1  0  0  0  0  0  0  0  0  0
   41.4207    7.1850   -0.5843 O   0  0  0  0  0  0  0  0  0  0  0  0
   40.2751    4.5837    2.4074 C   0  0  0  0  0  0  0  0  0  0  0  0
   45.4992   10.9232   -8.1416 C   0  0  0  0  0  0  0  0  0  0  0  0
   45.9271   11.5796   -9.2273 O   0  0  0  0  0  0  0  0  0  0  0  0
   47.4359    4.0510   -5.5028 C   0  0  1  0  0  0  0  0  0  0  0  0
   46.9490    2.9126   -4.8716 O   0  0  0  0  0  0  0  0  0  0  0  0
   44.2988    2.5795   -1.6586 C   0  0  0  0  0  0  0  0  0  0  0  0
   40.0422    8.4911    1.1354 C   0  0  0  0  0  0  0  0  0  0  0  0
   39.2364    9.6727    1.3178 N   0  0  0  0  0  0  0  0  0  0  0  0
   43.5183    3.3882   -0.6173 C   0  0  0  0  0  0  0  0  0  0  0  0
   42.0745    3.4518   -1.0149 N   0  0  0  0  0  0  0  0  0  0  0  0
   41.0521    3.3057    0.1443 C   0  0  0  0  0  0  0  0  0  0  0  0
  1  2  1  6  0  0  0
  1  9  1  0  0  0  0
  1 35  1  0  0  0  0
  3  4  1  1  0  0  0
  3 11  1  0  0  0  0
  3 45  1  0  0  0  0
  5  6  1  0  0  0  0
  5 12  1  0  0  0  0
  5 37  1  6  0  0  0
  6 30  1  0  0  0  0
  7 14  1  0  0  0  0
  7 41  1  0  0  0  0
  7 23  1  1  0  0  0
  8 16  2  0  0  0  0
  8 42  1  0  0  0  0
  9 10  1  6  0  0  0
  9 18  1  0  0  0  0
 11 20  1  0  0  0  0
 12 13  1  1  0  0  0
 12 22  1  0  0  0  0
 13 47  1  0  0  0  0
 14 15  1  1  0  0  0
 14 24  1  0  0  0  0
 16 17  1  0  0  0  0
 17 26  2  0  0  0  0
 18 19  1  6  0  0  0
 18 27  1  0  0  0  0
 20 21  1  1  0  0  0
 20 29  1  0  0  0  0
 22 23  1  1  0  0  0
 22 30  1  0  0  0  0
 24 25  1  6  0  0  0
 24 31  1  0  0  0  0
 26 33  1  0  0  0  0
 27 28  1  6  0  0  0
 27 34  1  0  0  0  0
 29  2  1  6  0  0  0
 29 36  1  0  0  0  0
 30 38  1  6  0  0  0
 31 32  1  1  0  0  0
 31 40  1  0  0  0  0
 33 42  2  0  0  0  0
 34 35  1  0  0  0  0
 34 43  1  1  0  0  0
 36 37  1  1  0  0  0
 36 45  1  0  0  0  0
 38 39  1  0  0  0  0
 40 41  1  0  0  0  0
 40 48  1  1  0  0  0
 43 44  1  0  0  0  0
 45 46  1  6  0  0  0
 47 50  1  0  0  0  0
 48 49  1  0  0  0  0
 50 51  1  0  0  0  0
 51 52  1  0  0  0  0
 52  8  1  0  0  0  0
M  END
>  <CHROM.1>
-148.45209546,-123.50912808,-64.10256298,154.39689431,67.98157122,168.53093516
-168.30526461,62.13537490,-71.76744291,171.52190592,62.94533969,50.94471205
139.78659361,57.63538348,-8.32410311,43.75341889,6.49485486,-4.08135020,0.83876319
0.86854802,-0.88855416

>  <Name>
2be0_lig

>  <RI>
2.10017e+07

>  <Rbt.Current_Directory>
/home/itssahil/PROJECTS/Mol_Feturizer/New_Systems/rnas/2be0

>  <Rbt.Executable>
rbdock ($Id: //depot/dev/client3/rdock/2013.1/src/exe/rbdock.cxx#4 $)

>  <Rbt.Library>
libRbt.so (2013.1, Build901 2013/11/27)

>  <Rbt.Parameter_File>
/export/apps/rDock/src/rDock_2013.1_src/data/scripts/dock_solv.prm

>  <Rbt.Receptor>
prm/pocket_docking_3.prm

>  <SCORE>
-30.4315

>  <SCORE.INTER>
-17.8072

>  <SCORE.INTER.CONST>
1

>  <SCORE.INTER.POLAR>
-1.32717

>  <SCORE.INTER.ROT>
15

>  <SCORE.INTER.SOLV>
19.8102

>  <SCORE.INTER.VDW>
-27.651

>  <SCORE.INTER.norm>
-0.342446

>  <SCORE.INTRA>
-12.6896

>  <SCORE.INTRA.DIHEDRAL>
-29.3976

>  <SCORE.INTRA.DIHEDRAL.0>
47.8724

>  <SCORE.INTRA.POLAR>
0

>  <SCORE.INTRA.POLAR.0>
0

>  <SCORE.INTRA.REPUL>
0

>  <SCORE.INTRA.REPUL.0>
0

>  <SCORE.INTRA.SOLV>
3.51453

>  <SCORE.INTRA.SOLV.lig_0>
-115.677

>  <SCORE.INTRA.VDW>
0.251955

>  <SCORE.INTRA.VDW.0>
-7.4833

>  <SCORE.INTRA.norm>
-0.244031

>  <SCORE.RESTR>
0.0652754

>  <SCORE.RESTR.CAVITY>
0.0652754

>  <SCORE.RESTR.norm>
0.0012553

>  <SCORE.SYSTEM>
0

>  <SCORE.SYSTEM.CONST>
0

>  <SCORE.SYSTEM.DIHEDRAL>
0

>  <SCORE.SYSTEM.SOLV>
0

>  <SCORE.SYSTEM.norm>
0

>  <SCORE.heavy>
52

>  <SCORE.norm>
-0.585221

>  <RMSD>
4.536

$$$$
2be0_lig
 OpenBabel11021811423D
libRbt.so/2013.1/901 2013/11/27
 52 56  0  0  0  0  0  0  0  0999 V2000
   44.5383    6.3103   -5.6311 C   0  0  2  0  0  0  0  0  0  0  0  0
   43.5032    6.3463   -6.5851 O   0  0  0  0  0  0  0  0  0  0  0  0
   41.5955    3.5904   -9.4376 C   0  0  2  0  0  0  0  0  0  0  0  0
   41.4363    2.4509  -10.3840 N   0  0  0  0  0  0  0  0  0  0  0  0
   41.4973    3.3917   -4.8182 C   0  0  2  0  0  0  0  0  0  0  0  0
   40.1740    3.8583   -5.1522 O   0  0  0  0  0  0  0  0  0  0  0  0
   41.8260    6.5089   -1.4269 C   0  0  1  0  0  0  0  0  0  0  0  0
   37.7948   -1.4961   -3.1999 C   0  0  0  0  0  0  0  0  0  0  0  0
   45.8920    6.8680   -6.2329 C   0  0  2  0  0  0  0  0  0  0  0  0
   45.6740    8.2059   -6.7871 N   0  0  0  0  0  0  0  0  0  0  0  0
   42.8005    4.5144   -9.9301 C   0  0  0  0  0  0  0  0  0  0  0  0
   41.7672    3.8253   -3.3685 C   0  0  2  0  0  0  0  0  0  0  0  0
   41.1562    2.7281   -2.5560 O   0  0  0  0  0  0  0  0  0  0  0  0
   42.8284    5.3802   -0.8248 C   0  0  2  0  0  0  0  0  0  0  0  0
   42.0410    4.4601    0.0579 N   0  0  0  0  0  0  0  0  0  0  0  0
   37.6845   -0.3106   -3.9982 C   0  0  0  0  0  0  0  0  0  0  0  0
   36.7692   -0.2758   -5.0827 N   0  0  0  0  0  0  0  0  0  0  0  0
   46.4518    5.8497   -7.3309 C   0  0  1  0  0  0  0  0  0  0  0  0
   47.6599    6.3710   -7.8627 O   0  0  0  0  0  0  0  0  0  0  0  0
   43.0177    5.7712   -8.9087 C   0  0  2  0  0  0  0  0  0  0  0  0
   44.0980    6.6118   -9.3420 N   0  0  0  0  0  0  0  0  0  0  0  0
   41.0973    5.2119   -3.4088 C   0  0  2  0  0  0  0  0  0  0  0  0
   40.7979    5.8200   -2.1610 O   0  0  0  0  0  0  0  0  0  0  0  0
   43.9409    6.1117   -0.0147 C   0  0  1  0  0  0  0  0  0  0  0  0
   44.6539    6.9677   -0.9771 O   0  0  0  0  0  0  0  0  0  0  0  0
   35.9372   -1.3779   -5.4308 C   0  0  0  0  0  0  0  0  0  0  0  0
   46.6661    4.4633   -6.6569 C   0  0  2  0  0  0  0  0  0  0  0  0
   47.1829    3.4715   -7.6308 O   0  0  0  0  0  0  0  0  0  0  0  0
   43.3172    5.2321   -7.4495 C   0  0  2  0  0  0  0  0  0  0  0  0
   39.8588    4.9846   -4.3080 C   0  0  1  0  0  0  0  0  0  0  0  0
   43.2722    6.9960    1.1756 C   0  0  2  0  0  0  0  0  0  0  0  0
   42.5574    6.1470    2.1413 O   0  0  0  0  0  0  0  0  0  0  0  0
   36.0015   -2.5758   -4.6773 C   0  0  0  0  0  0  0  0  0  0  0  0
   45.3076    3.9250   -6.0635 C   0  0  2  0  0  0  0  0  0  0  0  0
   44.8526    4.9376   -5.1241 O   0  0  0  0  0  0  0  0  0  0  0  0
   42.1126    4.3249   -7.0193 C   0  0  2  0  0  0  0  0  0  0  0  0
   42.4791    3.9130   -5.7081 O   0  0  0  0  0  0  0  0  0  0  0  0
   39.5834    6.1703   -5.2313 C   0  0  0  0  0  0  0  0  0  0  0  0
   38.6559    5.9320   -6.2628 O   0  0  0  0  0  0  0  0  0  0  0  0
   42.2595    8.0580    0.5435 C   0  0  1  0  0  0  0  0  0  0  0  0
   41.2254    7.3094   -0.2719 O   0  0  0  0  0  0  0  0  0  0  0  0
   36.9415   -2.6631   -3.5358 C   0  0  0  0  0  0  0  0  0  0  0  0
   45.5767    2.6274   -5.4234 C   0  0  0  0  0  0  0  0  0  0  0  0
   44.4541    2.1685   -4.8559 O   0  0  0  0  0  0  0  0  0  0  0  0
   41.9498    3.0995   -8.0139 C   0  0  1  0  0  0  0  0  0  0  0  0
   40.8729    2.3116   -7.6254 O   0  0  0  0  0  0  0  0  0  0  0  0
   41.4636    1.2787   -2.5917 C   0  0  0  0  0  0  0  0  0  0  0  0
   41.6462    8.8619    1.7222 C   0  0  0  0  0  0  0  0  0  0  0  0
   40.7119    9.8454    1.2337 N   0  0  0  0  0  0  0  0  0  0  0  0
   40.3699    0.5637   -1.7917 C   0  0  0  0  0  0  0  0  0  0  0  0
   40.1889   -0.8253   -2.3252 N   0  0  0  0  0  0  0  0  0  0  0  0
   38.8378   -1.5067   -1.9783 C   0  0  0  0  0  0  0  0  0  0  0  0
  1  2  1  6  0  0  0
  1  9  1  0  0  0  0
  1 35  1  0  0  0  0
  3  4  1  6  0  0  0
  3 11  1  0  0  0  0
  3 45  1  0  0  0  0
  5  6  1  0  0  0  0
  5 12  1  0  0  0  0
  5 37  1  6  0  0  0
  6 30  1  0  0  0  0
  7 14  1  0  0  0  0
  7 41  1  0  0  0  0
  7 23  1  1  0  0  0
  8 16  2  0  0  0  0
  8 42  1  0  0  0  0
  9 10  1  6  0  0  0
  9 18  1  0  0  0  0
 11 20  1  0  0  0  0
 12 13  1  1  0  0  0
 12 22  1  0  0  0  0
 13 47  1  0  0  0  0
 14 15  1  1  0  0  0
 14 24  1  0  0  0  0
 16 17  1  0  0  0  0
 17 26  2  0  0  0  0
 18 19  1  1  0  0  0
 18 27  1  0  0  0  0
 20 21  1  6  0  0  0
 20 29  1  0  0  0  0
 22 23  1  1  0  0  0
 22 30  1  0  0  0  0
 24 25  1  6  0  0  0
 24 31  1  0  0  0  0
 26 33  1  0  0  0  0
 27 28  1  6  0  0  0
 27 34  1  0  0  0  0
 29  2  1  1  0  0  0
 29 36  1  0  0  0  0
 30 38  1  6  0  0  0
 31 32  1  1  0  0  0
 31 40  1  0  0  0  0
 33 42  2  0  0  0  0
 34 35  1  0  0  0  0
 34 43  1  1  0  0  0
 36 37  1  1  0  0  0
 36 45  1  0  0  0  0
 38 39  1  0  0  0  0
 40 41  1  0  0  0  0
 40 48  1  1  0  0  0
 43 44  1  0  0  0  0
 45 46  1  1  0  0  0
 47 50  1  0  0  0  0
 48 49  1  0  0  0  0
 50 51  1  0  0  0  0
 51 52  1  0  0  0  0
 52  8  1  0  0  0  0
M  END
>  <CHROM.1>
88.59607129,-24.53776338,-72.27448122,57.76754863,-168.31694541,80.92750767
-138.15491015,51.06350096,177.27356051,162.01113330,-179.83269920,151.46349027
-159.97348799,102.06845353,-41.11901533,42.06372409,4.13779801,-4.38756356
-0.21518495,-0.78664040,-2.02778081

>  <Name>
2be0_lig

>  <RI>
0

>  <Rbt.Current_Directory>
/home/itssahil/PROJECTS/Mol_Feturizer/New_Systems/rnas/2be0

>  <Rbt.Executable>
rbdock ($Id: //depot/dev/client3/rdock/2013.1/src/exe/rbdock.cxx#4 $)

>  <Rbt.Library>
libRbt.so (2013.1, Build901 2013/11/27)

>  <Rbt.Parameter_File>
/export/apps/rDock/src/rDock_2013.1_src/data/scripts/dock_solv.prm

>  <Rbt.Receptor>
prm/pocket_docking_7.prm

>  <SCORE>
-16.8046

>  <SCORE.INTER>
-6.53185

>  <SCORE.INTER.CONST>
1

>  <SCORE.INTER.POLAR>
-1.85319

>  <SCORE.INTER.ROT>
15

>  <SCORE.INTER.SOLV>
10.1745

>  <SCORE.INTER.VDW>
-15.1688

>  <SCORE.INTER.norm>
-0.125613

>  <SCORE.INTRA>
-10.2728

>  <SCORE.INTRA.DIHEDRAL>
-24.0978

>  <SCORE.INTRA.DIHEDRAL.0>
47.8724

>  <SCORE.INTRA.POLAR>
0

>  <SCORE.INTRA.POLAR.0>
0

>  <SCORE.INTRA.REPUL>
0

>  <SCORE.INTRA.REPUL.0>
0

>  <SCORE.INTRA.SOLV>
1.88053

>  <SCORE.INTRA.SOLV.lig_0>
-115.677

>  <SCORE.INTRA.VDW>
0.835882

>  <SCORE.INTRA.VDW.0>
-7.4833

>  <SCORE.INTRA.norm>
-0.197553

>  <SCORE.RESTR>
0

>  <SCORE.RESTR.CAVITY>
0

>  <SCORE.RESTR.norm>
0

>  <SCORE.SYSTEM>
0

>  <SCORE.SYSTEM.CONST>
0

>  <SCORE.SYSTEM.DIHEDRAL>
0

>  <SCORE.SYSTEM.SOLV>
0

>  <SCORE.SYSTEM.norm>
0

>  <SCORE.heavy>
52

>  <SCORE.norm>
-0.323166

>  <RMSD>
4.588

$$$$
2be0_lig
 OpenBabel11021811423D
libRbt.so/2013.1/901 2013/11/27
 52 56  0  0  0  0  0  0  0  0999 V2000
   45.8742    4.2355   -8.8256 C   0  0  2  0  0  0  0  0  0  0  0  0
   45.4028    3.3889   -7.8040 O   0  0  0  0  0  0  0  0  0  0  0  0
   41.2873    2.6743   -9.1908 C   0  0  2  0  0  0  0  0  0  0  0  0
   39.9701    2.0004   -9.3647 N   0  0  0  0  0  0  0  0  0  0  0  0
   43.1299    3.0674   -5.1792 C   0  0  2  0  0  0  0  0  0  0  0  0
   41.7737    2.9410   -4.7046 O   0  0  0  0  0  0  0  0  0  0  0  0
   42.4191    5.4849   -1.1104 C   0  0  1  0  0  0  0  0  0  0  0  0
   42.1346   -2.6637   -3.1348 C   0  0  0  0  0  0  0  0  0  0  0  0
   47.2141    4.9608   -8.3964 C   0  0  2  0  0  0  0  0  0  0  0  0
   48.2042    3.9659   -7.9787 N   0  0  0  0  0  0  0  0  0  0  0  0
   42.4486    1.6761   -9.6419 C   0  0  0  0  0  0  0  0  0  0  0  0
   43.9980    3.4019   -3.9557 C   0  0  2  0  0  0  0  0  0  0  0  0
   44.3092    2.0609   -3.3708 O   0  0  0  0  0  0  0  0  0  0  0  0
   42.6181    6.9846   -1.7042 C   0  0  2  0  0  0  0  0  0  0  0  0
   44.0576    7.3734   -1.5548 N   0  0  0  0  0  0  0  0  0  0  0  0
   41.3126   -3.2288   -4.1643 C   0  0  0  0  0  0  0  0  0  0  0  0
   40.1535   -3.9687   -3.8119 N   0  0  0  0  0  0  0  0  0  0  0  0
   46.9052    6.0197   -7.2392 C   0  0  1  0  0  0  0  0  0  0  0  0
   48.1188    6.6525   -6.8641 O   0  0  0  0  0  0  0  0  0  0  0  0
   43.9140    2.3738   -9.4529 C   0  0  2  0  0  0  0  0  0  0  0  0
   44.9678    1.4865   -9.8574 N   0  0  0  0  0  0  0  0  0  0  0  0
   43.0242    4.3474   -3.2273 C   0  0  2  0  0  0  0  0  0  0  0  0
   43.2852    4.6111   -1.8566 O   0  0  0  0  0  0  0  0  0  0  0  0
   41.6952    7.9455   -0.8956 C   0  0  1  0  0  0  0  0  0  0  0  0
   40.3170    7.4826   -1.1272 O   0  0  0  0  0  0  0  0  0  0  0  0
   39.7538   -4.1874   -2.4627 C   0  0  0  0  0  0  0  0  0  0  0  0
   45.8586    7.0421   -7.7700 C   0  0  2  0  0  0  0  0  0  0  0  0
   45.5276    8.0516   -6.7354 O   0  0  0  0  0  0  0  0  0  0  0  0
   44.1208    2.7872   -7.9377 C   0  0  2  0  0  0  0  0  0  0  0  0
   41.6404    3.7066   -3.4894 C   0  0  1  0  0  0  0  0  0  0  0  0
   42.0777    7.8857    0.6843 C   0  0  2  0  0  0  0  0  0  0  0  0
   43.4542    8.3468    0.9234 O   0  0  0  0  0  0  0  0  0  0  0  0
   40.5262   -3.6522   -1.4026 C   0  0  0  0  0  0  0  0  0  0  0  0
   44.5321    6.3011   -8.1927 C   0  0  2  0  0  0  0  0  0  0  0  0
   44.9216    5.3276   -9.2003 O   0  0  0  0  0  0  0  0  0  0  0  0
   42.9521    3.7556   -7.5433 C   0  0  2  0  0  0  0  0  0  0  0  0
   43.2436    4.0674   -6.1864 O   0  0  0  0  0  0  0  0  0  0  0  0
   40.5524    4.7501   -3.7371 C   0  0  0  0  0  0  0  0  0  0  0  0
   39.2959    4.2379   -4.1115 O   0  0  0  0  0  0  0  0  0  0  0  0
   41.9151    6.3871    1.2139 C   0  0  1  0  0  0  0  0  0  0  0  0
   42.7910    5.4823    0.3720 O   0  0  0  0  0  0  0  0  0  0  0  0
   41.7459   -2.8729   -1.7177 C   0  0  0  0  0  0  0  0  0  0  0  0
   43.5929    7.3123   -8.7041 C   0  0  0  0  0  0  0  0  0  0  0  0
   42.4295    6.7254   -9.0120 O   0  0  0  0  0  0  0  0  0  0  0  0
   41.5475    3.0367   -7.7095 C   0  0  1  0  0  0  0  0  0  0  0  0
   40.5226    3.9104   -7.3664 O   0  0  0  0  0  0  0  0  0  0  0  0
   43.4811    1.2457   -2.4510 C   0  0  0  0  0  0  0  0  0  0  0  0
   42.3027    6.3894    2.7177 C   0  0  0  0  0  0  0  0  0  0  0  0
   41.3395    7.1354    3.4887 N   0  0  0  0  0  0  0  0  0  0  0  0
   42.4270    0.5313   -3.3031 C   0  0  0  0  0  0  0  0  0  0  0  0
   43.1014   -0.4578   -4.2051 N   0  0  0  0  0  0  0  0  0  0  0  0
   43.4393   -1.8301   -3.5627 C   0  0  0  0  0  0  0  0  0  0  0  0
  1  2  1  1  0  0  0
  1  9  1  0  0  0  0
  1 35  1  0  0  0  0
  3  4  1  1  0  0  0
  3 11  1  0  0  0  0
  3 45  1  0  0  0  0
  5  6  1  0  0  0  0
  5 12  1  0  0  0  0
  5 37  1  6  0  0  0
  6 30  1  0  0  0  0
  7 14  1  0  0  0  0
  7 41  1  0  0  0  0
  7 23  1  6  0  0  0
  8 16  2  0  0  0  0
  8 42  1  0  0  0  0
  9 10  1  1  0  0  0
  9 18  1  0  0  0  0
 11 20  1  0  0  0  0
 12 13  1  1  0  0  0
 12 22  1  0  0  0  0
 13 47  1  0  0  0  0
 14 15  1  1  0  0  0
 14 24  1  0  0  0  0
 16 17  1  0  0  0  0
 17 26  2  0  0  0  0
 18 19  1  6  0  0  0
 18 27  1  0  0  0  0
 20 21  1  1  0  0  0
 20 29  1  0  0  0  0
 22 23  1  1  0  0  0
 22 30  1  0  0  0  0
 24 25  1  1  0  0  0
 24 31  1  0  0  0  0
 26 33  1  0  0  0  0
 27 28  1  1  0  0  0
 27 34  1  0  0  0  0
 29  2  1  6  0  0  0
 29 36  1  0  0  0  0
 30 38  1  6  0  0  0
 31 32  1  6  0  0  0
 31 40  1  0  0  0  0
 33 42  2  0  0  0  0
 34 35  1  0  0  0  0
 34 43  1  6  0  0  0
 36 37  1  1  0  0  0
 36 45  1  0  0  0  0
 38 39  1  0  0  0  0
 40 41  1  0  0  0  0
 40 48  1  1  0  0  0
 43 44  1  0  0  0  0
 45 46  1  6  0  0  0
 47 50  1  0  0  0  0
 48 49  1  0  0  0  0
 50 51  1  0  0  0  0
 51 52  1  0  0  0  0
 52  8  1  0  0  0  0
M  END
>  <CHROM.1>
171.87931900,-83.96421501,-68.07060058,-83.51951624,80.33451157,179.98254512
38.41987305,57.78685385,-177.00806326,-68.49948083,67.41598875,66.42173007
82.46225636,64.82553791,71.11555763,43.04124632,3.67537752,-4.65591212,-0.82023020
1.15965272,0.73483285

>  <Name>
2be0_lig

>  <RI>
3.37048e+07

>  <Rbt.Current_Directory>
/home/itssahil/PROJECTS/Mol_Feturizer/New_Systems/rnas/2be0

>  <Rbt.Executable>
rbdock ($Id: //depot/dev/client3/rdock/2013.1/src/exe/rbdock.cxx#4 $)

>  <Rbt.Library>
libRbt.so (2013.1, Build901 2013/11/27)

>  <Rbt.Parameter_File>
/export/apps/rDock/src/rDock_2013.1_src/data/scripts/dock_solv.prm

>  <Rbt.Receptor>
prm/pocket_docking_8.prm

>  <SCORE>
-24.9972

>  <SCORE.INTER>
-8.95036

>  <SCORE.INTER.CONST>
1

>  <SCORE.INTER.POLAR>
-1.84688

>  <SCORE.INTER.ROT>
15

>  <SCORE.INTER.SOLV>
11.4082

>  <SCORE.INTER.VDW>
-17.2134

>  <SCORE.INTER.norm>
-0.172122

>  <SCORE.INTRA>
-16.0503

>  <SCORE.INTRA.DIHEDRAL>
-36.3711

>  <SCORE.INTRA.DIHEDRAL.0>
47.8724

>  <SCORE.INTRA.POLAR>
0

>  <SCORE.INTRA.POLAR.0>
0

>  <SCORE.INTRA.REPUL>
0

>  <SCORE.INTRA.REPUL.0>
0

>  <SCORE.INTRA.SOLV>
-1.00223

>  <SCORE.INTRA.SOLV.lig_0>
-115.677

>  <SCORE.INTRA.VDW>
2.63635

>  <SCORE.INTRA.VDW.0>
-7.4833

>  <SCORE.INTRA.norm>
-0.30866

>  <SCORE.RESTR>
0.00354339

>  <SCORE.RESTR.CAVITY>
0.00354339

>  <SCORE.RESTR.norm>
6.81422e-05

>  <SCORE.SYSTEM>
0

>  <SCORE.SYSTEM.CONST>
0

>  <SCORE.SYSTEM.DIHEDRAL>
0

>  <SCORE.SYSTEM.SOLV>
0

>  <SCORE.SYSTEM.norm>
0

>  <SCORE.heavy>
52

>  <SCORE.norm>
-0.480715

>  <RMSD>
4.624

$$$$
2be0_lig
 OpenBabel11021811423D
libRbt.so/2013.1/901 2013/11/27
 52 56  0  0  0  0  0  0  0  0999 V2000
   44.5224    7.9499   -7.7163 C   0  0  2  0  0  0  0  0  0  0  0  0
   45.5682    7.0708   -8.0573 O   0  0  0  0  0  0  0  0  0  0  0  0
   48.4962    4.7690   -5.7123 C   0  0  2  0  0  0  0  0  0  0  0  0
   49.5773    4.4758   -4.7300 N   0  0  0  0  0  0  0  0  0  0  0  0
   44.0795    5.4336   -4.6781 C   0  0  2  0  0  0  0  0  0  0  0  0
   42.7247    5.9277   -4.7048 O   0  0  0  0  0  0  0  0  0  0  0  0
   42.5744    7.6817   -0.8496 C   0  0  1  0  0  0  0  0  0  0  0  0
   40.4957    4.5839    1.6742 C   0  0  0  0  0  0  0  0  0  0  0  0
   43.3964    7.9601   -8.8289 C   0  0  2  0  0  0  0  0  0  0  0  0
   42.9335    6.5933   -9.0779 N   0  0  0  0  0  0  0  0  0  0  0  0
   49.0144    5.8685   -6.7471 C   0  0  0  0  0  0  0  0  0  0  0  0
   44.5211    5.4312   -3.2059 C   0  0  2  0  0  0  0  0  0  0  0  0
   44.0147    4.1213   -2.6911 O   0  0  0  0  0  0  0  0  0  0  0  0
   42.8237    9.2485   -1.2022 C   0  0  2  0  0  0  0  0  0  0  0  0
   44.1061    9.6867   -0.5625 N   0  0  0  0  0  0  0  0  0  0  0  0
   40.1289    4.0047    2.9331 C   0  0  0  0  0  0  0  0  0  0  0  0
   39.1342    4.6284    3.7310 N   0  0  0  0  0  0  0  0  0  0  0  0
   43.9583    8.6525  -10.1558 C   0  0  1  0  0  0  0  0  0  0  0  0
   42.9374    8.6447  -11.1417 O   0  0  0  0  0  0  0  0  0  0  0  0
   47.8504    6.2294   -7.8356 C   0  0  2  0  0  0  0  0  0  0  0  0
   48.3050    7.2163   -8.7741 N   0  0  0  0  0  0  0  0  0  0  0  0
   43.8486    6.7420   -2.7561 C   0  0  2  0  0  0  0  0  0  0  0  0
   43.7005    6.9444   -1.3584 O   0  0  0  0  0  0  0  0  0  0  0  0
   41.6170   10.0621   -0.6445 C   0  0  1  0  0  0  0  0  0  0  0  0
   40.4246    9.5629   -1.3490 O   0  0  0  0  0  0  0  0  0  0  0  0
   38.4668    5.8251    3.3429 C   0  0  0  0  0  0  0  0  0  0  0  0
   44.4139   10.0987   -9.8049 C   0  0  2  0  0  0  0  0  0  0  0  0
   44.9506   10.7931  -11.0003 O   0  0  0  0  0  0  0  0  0  0  0  0
   46.5611    6.7639   -7.0861 C   0  0  2  0  0  0  0  0  0  0  0  0
   42.5112    6.7430   -3.5343 C   0  0  1  0  0  0  0  0  0  0  0  0
   41.4885    9.8365    0.9613 C   0  0  2  0  0  0  0  0  0  0  0  0
   42.6771   10.3328    1.6721 O   0  0  0  0  0  0  0  0  0  0  0  0
   38.7867    6.4427    2.1087 C   0  0  0  0  0  0  0  0  0  0  0  0
   45.5345   10.0677   -8.6956 C   0  0  2  0  0  0  0  0  0  0  0  0
   44.9514    9.3750   -7.5576 O   0  0  0  0  0  0  0  0  0  0  0  0
   46.1010    5.6546   -6.0777 C   0  0  2  0  0  0  0  0  0  0  0  0
   44.9459    6.2302   -5.4795 O   0  0  0  0  0  0  0  0  0  0  0  0
   42.1243    8.1367   -4.0264 C   0  0  0  0  0  0  0  0  0  0  0  0
   43.1173    9.1248   -3.8893 O   0  0  0  0  0  0  0  0  0  0  0  0
   41.2936    8.2800    1.2651 C   0  0  1  0  0  0  0  0  0  0  0  0
   42.4616    7.5237    0.6664 O   0  0  0  0  0  0  0  0  0  0  0  0
   39.8189    5.8313    1.2397 C   0  0  0  0  0  0  0  0  0  0  0  0
   45.9079   11.4585   -8.3915 C   0  0  0  0  0  0  0  0  0  0  0  0
   46.7965   11.8897   -9.2954 O   0  0  0  0  0  0  0  0  0  0  0  0
   47.2423    5.3513   -5.0180 C   0  0  1  0  0  0  0  0  0  0  0  0
   46.8235    4.3600   -4.1387 O   0  0  0  0  0  0  0  0  0  0  0  0
   44.1408    3.5610   -1.3249 C   0  0  0  0  0  0  0  0  0  0  0  0
   41.1886    8.1252    2.8067 C   0  0  0  0  0  0  0  0  0  0  0  0
   39.9885    8.7544    3.2993 N   0  0  0  0  0  0  0  0  0  0  0  0
   43.7918    4.6824   -0.3411 C   0  0  0  0  0  0  0  0  0  0  0  0
   42.3019    4.8050   -0.2325 N   0  0  0  0  0  0  0  0  0  0  0  0
   41.6233    3.8559    0.7917 C   0  0  0  0  0  0  0  0  0  0  0  0
  1  2  1  6  0  0  0
  1  9  1  0  0  0  0
  1 35  1  0  0  0  0
  3  4  1  1  0  0  0
  3 11  1  0  0  0  0
  3 45  1  0  0  0  0
  5  6  1  0  0  0  0
  5 12  1  0  0  0  0
  5 37  1  6  0  0  0
  6 30  1  0  0  0  0
  7 14  1  0  0  0  0
  7 41  1  0  0  0  0
  7 23  1  1  0  0  0
  8 16  2  0  0  0  0
  8 42  1  0  0  0  0
  9 10  1  6  0  0  0
  9 18  1  0  0  0  0
 11 20  1  0  0  0  0
 12 13  1  1  0  0  0
 12 22  1  0  0  0  0
 13 47  1  0  0  0  0
 14 15  1  1  0  0  0
 14 24  1  0  0  0  0
 16 17  1  0  0  0  0
 17 26  2  0  0  0  0
 18 19  1  6  0  0  0
 18 27  1  0  0  0  0
 20 21  1  6  0  0  0
 20 29  1  0  0  0  0
 22 23  1  1  0  0  0
 22 30  1  0  0  0  0
 24 25  1  6  0  0  0
 24 31  1  0  0  0  0
 26 33  1  0  0  0  0
 27 28  1  6  0  0  0
 27 34  1  0  0  0  0
 29  2  1  6  0  0  0
 29 36  1  0  0  0  0
 30 38  1  6  0  0  0
 31 32  1  1  0  0  0
 31 40  1  0  0  0  0
 33 42  2  0  0  0  0
 34 35  1  0  0  0  0
 34 43  1  1  0  0  0
 36 37  1  1  0  0  0
 36 45  1  0  0  0  0
 38 39  1  0  0  0  0
 40 41  1  0  0  0  0
 40 48  1  1  0  0  0
 43 44  1  0  0  0  0
 45 46  1  1  0  0  0
 47 50  1  0  0  0  0
 48 49  1  0  0  0  0
 50 51  1  0  0  0  0
 51 52  1  0  0  0  0
 52  8  1  0  0  0  0
M  END
>  <CHROM.1>
-169.92722813,-151.81561557,-72.98266897,-179.91739339,45.43419080,-147.92968907
-159.35967353,-106.54540370,-82.83120591,168.18789261,66.11795050,80.59993026
85.40083246,136.83954454,-158.32128670,43.69598756,7.21868703,-3.56804890
0.86468193,0.83946801,-0.85142433

>  <Name>
2be0_lig

>  <RI>
224

>  <Rbt.Current_Directory>
/home/itssahil/PROJECTS/Mol_Feturizer/New_Systems/rnas/2be0

>  <Rbt.Executable>
rbdock ($Id: //depot/dev/client3/rdock/2013.1/src/exe/rbdock.cxx#4 $)

>  <Rbt.Library>
libRbt.so (2013.1, Build901 2013/11/27)

>  <Rbt.Parameter_File>
/export/apps/rDock/src/rDock_2013.1_src/data/scripts/dock_solv.prm

>  <Rbt.Receptor>
prm/blind_docking_100.prm

>  <SCORE>
0.0461544

>  <SCORE.INTER>
-10.4315

>  <SCORE.INTER.CONST>
1

>  <SCORE.INTER.POLAR>
-1.39569

>  <SCORE.INTER.ROT>
15

>  <SCORE.INTER.SOLV>
25.2317

>  <SCORE.INTER.VDW>
-24.3126

>  <SCORE.INTER.norm>
-0.200606

>  <SCORE.INTRA>
-2.93654

>  <SCORE.INTRA.DIHEDRAL>
-25.2836

>  <SCORE.INTRA.DIHEDRAL.0>
47.8724

>  <SCORE.INTRA.POLAR>
0

>  <SCORE.INTRA.POLAR.0>
0

>  <SCORE.INTRA.REPUL>
0

>  <SCORE.INTRA.REPUL.0>
0

>  <SCORE.INTRA.SOLV>
5.17482

>  <SCORE.INTRA.SOLV.lig_0>
-115.677

>  <SCORE.INTRA.VDW>
7.11783

>  <SCORE.INTRA.VDW.0>
-7.4833

>  <SCORE.INTRA.norm>
-0.0564719

>  <SCORE.RESTR>
13.4142

>  <SCORE.RESTR.CAVITY>
13.4142

>  <SCORE.RESTR.norm>
0.257966

>  <SCORE.SYSTEM>
0

>  <SCORE.SYSTEM.CONST>
0

>  <SCORE.SYSTEM.DIHEDRAL>
0

>  <SCORE.SYSTEM.SOLV>
0

>  <SCORE.SYSTEM.norm>
0

>  <SCORE.heavy>
52

>  <SCORE.norm>
0.000887585

>  <RMSD>
4.654

$$$$
2be0_lig
 OpenBabel11021811423D
libRbt.so/2013.1/901 2013/11/27
 52 56  0  0  0  0  0  0  0  0999 V2000
   42.5938    5.7876   -8.3610 C   0  0  2  0  0  0  0  0  0  0  0  0
   43.5494    4.8844   -8.8646 O   0  0  0  0  0  0  0  0  0  0  0  0
   44.5137    0.7763   -7.6135 C   0  0  2  0  0  0  0  0  0  0  0  0
   45.0159   -0.3445   -6.7704 N   0  0  0  0  0  0  0  0  0  0  0  0
   40.6302    2.8486   -6.7406 C   0  0  2  0  0  0  0  0  0  0  0  0
   39.4931    3.7340   -6.7992 O   0  0  0  0  0  0  0  0  0  0  0  0
   41.0565    3.4700   -2.2078 C   0  0  1  0  0  0  0  0  0  0  0  0
   37.2940   -0.0874   -2.1445 C   0  0  0  0  0  0  0  0  0  0  0  0
   42.6022    7.1446   -9.1760 C   0  0  2  0  0  0  0  0  0  0  0  0
   42.4270    6.8666  -10.6031 N   0  0  0  0  0  0  0  0  0  0  0  0
   45.6989    1.8172   -7.8592 C   0  0  0  0  0  0  0  0  0  0  0  0
   40.7599    2.3904   -5.2792 C   0  0  2  0  0  0  0  0  0  0  0  0
   39.8259    1.2251   -5.1940 O   0  0  0  0  0  0  0  0  0  0  0  0
   40.2999    3.1910   -0.7968 C   0  0  2  0  0  0  0  0  0  0  0  0
   39.4150    4.3601   -0.4868 N   0  0  0  0  0  0  0  0  0  0  0  0
   36.6140    1.1735   -2.0939 C   0  0  0  0  0  0  0  0  0  0  0  0
   36.8457    2.0543   -1.0051 N   0  0  0  0  0  0  0  0  0  0  0  0
   43.9584    7.9389   -8.8834 C   0  0  1  0  0  0  0  0  0  0  0  0
   43.9494    9.1468   -9.6283 O   0  0  0  0  0  0  0  0  0  0  0  0
   45.1842    3.0721   -8.7704 C   0  0  2  0  0  0  0  0  0  0  0  0
   46.2422    4.0150   -9.0006 N   0  0  0  0  0  0  0  0  0  0  0  0
   40.3956    3.7156   -4.5836 C   0  0  2  0  0  0  0  0  0  0  0  0
   40.0397    3.6468   -3.2106 O   0  0  0  0  0  0  0  0  0  0  0  0
   41.3896    3.0108    0.3028 C   0  0  1  0  0  0  0  0  0  0  0  0
   42.1822    1.8352   -0.0936 O   0  0  0  0  0  0  0  0  0  0  0  0
   37.7345    1.7477    0.0645 C   0  0  0  0  0  0  0  0  0  0  0  0
   44.0575    8.2027   -7.3528 C   0  0  2  0  0  0  0  0  0  0  0  0
   45.3021    8.9360   -7.0179 O   0  0  0  0  0  0  0  0  0  0  0  0
   43.9739    3.7978   -8.0507 C   0  0  2  0  0  0  0  0  0  0  0  0
   39.2867    4.3019   -5.4895 C   0  0  1  0  0  0  0  0  0  0  0  0
   42.3180    4.3436    0.3896 C   0  0  2  0  0  0  0  0  0  0  0  0
   41.5324    5.5229    0.7850 O   0  0  0  0  0  0  0  0  0  0  0  0
   38.4355    0.5167    0.0683 C   0  0  0  0  0  0  0  0  0  0  0  0
   44.0471    6.8401   -6.5586 C   0  0  2  0  0  0  0  0  0  0  0  0
   42.8111    6.1701   -6.9304 O   0  0  0  0  0  0  0  0  0  0  0  0
   42.8455    2.7328   -7.8238 C   0  0  2  0  0  0  0  0  0  0  0  0
   41.8192    3.4886   -7.1922 O   0  0  0  0  0  0  0  0  0  0  0  0
   39.3971    5.8184   -5.6387 C   0  0  0  0  0  0  0  0  0  0  0  0
   38.5640    6.3930   -6.6169 O   0  0  0  0  0  0  0  0  0  0  0  0
   43.0029    4.6074   -1.0296 C   0  0  1  0  0  0  0  0  0  0  0  0
   41.9124    4.7290   -2.0740 O   0  0  0  0  0  0  0  0  0  0  0  0
   38.2277   -0.4378   -1.0453 C   0  0  0  0  0  0  0  0  0  0  0  0
   44.1209    7.1535   -5.1225 C   0  0  0  0  0  0  0  0  0  0  0  0
   45.3743    7.5017   -4.8056 O   0  0  0  0  0  0  0  0  0  0  0  0
   43.3698    1.5455   -6.9113 C   0  0  1  0  0  0  0  0  0  0  0  0
   42.3623    0.6058   -6.7283 O   0  0  0  0  0  0  0  0  0  0  0  0
   38.3534    1.2144   -5.3610 C   0  0  0  0  0  0  0  0  0  0  0  0
   43.8638    5.8922   -0.8897 C   0  0  0  0  0  0  0  0  0  0  0  0
   44.6562    6.1036   -2.0755 N   0  0  0  0  0  0  0  0  0  0  0  0
   37.9407   -0.2322   -5.6514 C   0  0  0  0  0  0  0  0  0  0  0  0
   38.1661   -1.0702   -4.4293 N   0  0  0  0  0  0  0  0  0  0  0  0
   37.0136   -1.0635   -3.3891 C   0  0  0  0  0  0  0  0  0  0  0  0
  1  2  1  6  0  0  0
  1  9  1  0  0  0  0
  1 35  1  0  0  0  0
  3  4  1  1  0  0  0
  3 11  1  0  0  0  0
  3 45  1  0  0  0  0
  5  6  1  0  0  0  0
  5 12  1  0  0  0  0
  5 37  1  1  0  0  0
  6 30  1  0  0  0  0
  7 14  1  0  0  0  0
  7 41  1  0  0  0  0
  7 23  1  6  0  0  0
  8 16  2  0  0  0  0
  8 42  1  0  0  0  0
  9 10  1  6  0  0  0
  9 18  1  0  0  0  0
 11 20  1  0  0  0  0
 12 13  1  1  0  0  0
 12 22  1  0  0  0  0
 13 47  1  0  0  0  0
 14 15  1  1  0  0  0
 14 24  1  0  0  0  0
 16 17  1  0  0  0  0
 17 26  2  0  0  0  0
 18 19  1  6  0  0  0
 18 27  1  0  0  0  0
 20 21  1  1  0  0  0
 20 29  1  0  0  0  0
 22 23  1  1  0  0  0
 22 30  1  0  0  0  0
 24 25  1  6  0  0  0
 24 31  1  0  0  0  0
 26 33  1  0  0  0  0
 27 28  1  6  0  0  0
 27 34  1  0  0  0  0
 29  2  1  6  0  0  0
 29 36  1  0  0  0  0
 30 38  1  6  0  0  0
 31 32  1  6  0  0  0
 31 40  1  0  0  0  0
 33 42  2  0  0  0  0
 34 35  1  0  0  0  0
 34 43  1  1  0  0  0
 36 37  1  1  0  0  0
 36 45  1  0  0  0  0
 38 39  1  0  0  0  0
 40 41  1  0  0  0  0
 40 48  1  1  0  0  0
 43 44  1  0  0  0  0
 45 46  1  6  0  0  0
 47 50  1  0  0  0  0
 48 49  1  0  0  0  0
 50 51  1  0  0  0  0
 51 52  1  0  0  0  0
 52  8  1  0  0  0  0
M  END
>  <CHROM.1>
161.40793858,-149.38698456,-170.91034913,-64.07761756,161.17145843,75.99245506
-172.09374173,53.69704092,-76.20387106,-176.09014436,172.43255009,68.12180546
84.93809063,-100.33147876,103.73819730,41.61408084,3.76919087,-4.89021366
0.47102391,-0.91164629,-1.95320323

>  <Name>
2be0_lig

>  <RI>
3.37048e+07

>  <Rbt.Current_Directory>
/home/itssahil/PROJECTS/Mol_Feturizer/New_Systems/rnas/2be0

>  <Rbt.Executable>
rbdock ($Id: //depot/dev/client3/rdock/2013.1/src/exe/rbdock.cxx#4 $)

>  <Rbt.Library>
libRbt.so (2013.1, Build901 2013/11/27)

>  <Rbt.Parameter_File>
/export/apps/rDock/src/rDock_2013.1_src/data/scripts/dock_solv.prm

>  <Rbt.Receptor>
prm/pocket_docking_8.prm

>  <SCORE>
-27.5207

>  <SCORE.INTER>
-10.8895

>  <SCORE.INTER.CONST>
1

>  <SCORE.INTER.POLAR>
-1.85359

>  <SCORE.INTER.ROT>
15

>  <SCORE.INTER.SOLV>
20.5642

>  <SCORE.INTER.VDW>
-21.5358

>  <SCORE.INTER.norm>
-0.209414

>  <SCORE.INTRA>
-16.6311

>  <SCORE.INTRA.DIHEDRAL>
-34.8879

>  <SCORE.INTRA.DIHEDRAL.0>
47.8724

>  <SCORE.INTRA.POLAR>
0

>  <SCORE.INTRA.POLAR.0>
0

>  <SCORE.INTRA.REPUL>
0

>  <SCORE.INTRA.REPUL.0>
0

>  <SCORE.INTRA.SOLV>
0.015598

>  <SCORE.INTRA.SOLV.lig_0>
-115.677

>  <SCORE.INTRA.VDW>
0.805006

>  <SCORE.INTRA.VDW.0>
-7.4833

>  <SCORE.INTRA.norm>
-0.31983

>  <SCORE.RESTR>
0

>  <SCORE.RESTR.CAVITY>
0

>  <SCORE.RESTR.norm>
0

>  <SCORE.SYSTEM>
0

>  <SCORE.SYSTEM.CONST>
0

>  <SCORE.SYSTEM.DIHEDRAL>
0

>  <SCORE.SYSTEM.SOLV>
0

>  <SCORE.SYSTEM.norm>
0

>  <SCORE.heavy>
52

>  <SCORE.norm>
-0.529244

>  <RMSD>
4.713

$$$$
2be0_lig
 OpenBabel11021811423D
libRbt.so/2013.1/901 2013/11/27
 52 56  0  0  0  0  0  0  0  0999 V2000
   44.3147    3.5404   -6.5591 C   0  0  2  0  0  0  0  0  0  0  0  0
   43.0670    4.1538   -6.7821 O   0  0  0  0  0  0  0  0  0  0  0  0
   44.3988    7.7127   -9.0028 C   0  0  2  0  0  0  0  0  0  0  0  0
   44.3259    8.9592   -9.8154 N   0  0  0  0  0  0  0  0  0  0  0  0
   41.6601    6.5914   -5.5086 C   0  0  2  0  0  0  0  0  0  0  0  0
   41.0869    7.8629   -5.1409 O   0  0  0  0  0  0  0  0  0  0  0  0
   41.2313    5.4275   -0.9581 C   0  0  1  0  0  0  0  0  0  0  0  0
   39.5927   -0.0172   -7.0143 C   0  0  0  0  0  0  0  0  0  0  0  0
   44.1712    2.2734   -5.6211 C   0  0  2  0  0  0  0  0  0  0  0  0
   43.1760    1.3548   -6.1781 N   0  0  0  0  0  0  0  0  0  0  0  0
   43.6588    6.5346   -9.7855 C   0  0  0  0  0  0  0  0  0  0  0  0
   41.1684    5.5677   -4.4729 C   0  0  2  0  0  0  0  0  0  0  0  0
   39.8376    5.1420   -5.0068 O   0  0  0  0  0  0  0  0  0  0  0  0
   40.1918    5.3583    0.2893 C   0  0  2  0  0  0  0  0  0  0  0  0
   39.7183    6.7463    0.5976 N   0  0  0  0  0  0  0  0  0  0  0  0
   38.9104    1.0264   -7.7215 C   0  0  0  0  0  0  0  0  0  0  0  0
   38.4580    0.7980   -9.0475 N   0  0  0  0  0  0  0  0  0  0  0  0
   43.7908    2.7413   -4.1404 C   0  0  1  0  0  0  0  0  0  0  0  0
   43.6595    1.5918   -3.3185 O   0  0  0  0  0  0  0  0  0  0  0  0
   43.7040    5.1498   -8.9194 C   0  0  2  0  0  0  0  0  0  0  0  0
   43.0433    4.0809   -9.6139 N   0  0  0  0  0  0  0  0  0  0  0  0
   41.2405    6.4529   -3.2142 C   0  0  2  0  0  0  0  0  0  0  0  0
   40.5263    6.0072   -2.0706 O   0  0  0  0  0  0  0  0  0  0  0  0
   40.9463    4.7444    1.5070 C   0  0  1  0  0  0  0  0  0  0  0  0
   41.3473    3.3876    1.0999 O   0  0  0  0  0  0  0  0  0  0  0  0
   38.6499   -0.4369   -9.7302 C   0  0  0  0  0  0  0  0  0  0  0  0
   44.9024    3.6997   -3.6230 C   0  0  2  0  0  0  0  0  0  0  0  0
   44.6020    4.1721   -2.2498 O   0  0  0  0  0  0  0  0  0  0  0  0
   43.0141    5.3741   -7.5111 C   0  0  2  0  0  0  0  0  0  0  0  0
   40.7952    7.8426   -3.7284 C   0  0  1  0  0  0  0  0  0  0  0  0
   42.2429    5.6551    1.8750 C   0  0  2  0  0  0  0  0  0  0  0  0
   41.8496    7.0129    2.2826 O   0  0  0  0  0  0  0  0  0  0  0  0
   39.3165   -1.5055   -9.0815 C   0  0  0  0  0  0  0  0  0  0  0  0
   45.0306    4.9544   -4.5699 C   0  0  2  0  0  0  0  0  0  0  0  0
   45.3201    4.4279   -5.8942 O   0  0  0  0  0  0  0  0  0  0  0  0
   43.7693    6.5444   -6.7906 C   0  0  2  0  0  0  0  0  0  0  0  0
   43.0823    6.6476   -5.5493 O   0  0  0  0  0  0  0  0  0  0  0  0
   41.5906    8.9816   -3.0926 C   0  0  0  0  0  0  0  0  0  0  0  0
   41.3027    9.2396   -1.7392 O   0  0  0  0  0  0  0  0  0  0  0  0
   43.2122    5.7359    0.6075 C   0  0  1  0  0  0  0  0  0  0  0  0
   42.4276    6.2925   -0.5627 O   0  0  0  0  0  0  0  0  0  0  0  0
   39.8089   -1.3172   -7.6972 C   0  0  0  0  0  0  0  0  0  0  0  0
   46.1070    5.8094   -4.0441 C   0  0  0  0  0  0  0  0  0  0  0  0
   46.1834    6.9298   -4.7732 O   0  0  0  0  0  0  0  0  0  0  0  0
   43.6793    7.8793   -7.6435 C   0  0  1  0  0  0  0  0  0  0  0  0
   44.3614    8.9033   -6.9972 O   0  0  0  0  0  0  0  0  0  0  0  0
   39.4620    3.8385   -5.6036 C   0  0  0  0  0  0  0  0  0  0  0  0
   44.4208    6.6229    1.0125 C   0  0  0  0  0  0  0  0  0  0  0  0
   44.1056    8.0193    0.8405 N   0  0  0  0  0  0  0  0  0  0  0  0
   40.1780    2.7486   -4.7994 C   0  0  0  0  0  0  0  0  0  0  0  0
   39.3801    1.4811   -4.8564 N   0  0  0  0  0  0  0  0  0  0  0  0
   40.0923    0.2688   -5.5146 C   0  0  0  0  0  0  0  0  0  0  0  0
  1  2  1  1  0  0  0
  1  9  1  0  0  0  0
  1 35  1  0  0  0  0
  3  4  1  6  0  0  0
  3 11  1  0  0  0  0
  3 45  1  0  0  0  0
  5  6  1  0  0  0  0
  5 12  1  0  0  0  0
  5 37  1  1  0  0  0
  6 30  1  0  0  0  0
  7 14  1  0  0  0  0
  7 41  1  0  0  0  0
  7 23  1  6  0  0  0
  8 16  2  0  0  0  0
  8 42  1  0  0  0  0
  9 10  1  6  0  0  0
  9 18  1  0  0  0  0
 11 20  1  0  0  0  0
 12 13  1  6  0  0  0
 12 22  1  0  0  0  0
 13 47  1  0  0  0  0
 14 15  1  1  0  0  0
 14 24  1  0  0  0  0
 16 17  1  0  0  0  0
 17 26  2  0  0  0  0
 18 19  1  1  0  0  0
 18 27  1  0  0  0  0
 20 21  1  6  0  0  0
 20 29  1  0  0  0  0
 22 23  1  1  0  0  0
 22 30  1  0  0  0  0
 24 25  1  6  0  0  0
 24 31  1  0  0  0  0
 26 33  1  0  0  0  0
 27 28  1  1  0  0  0
 27 34  1  0  0  0  0
 29  2  1  1  0  0  0
 29 36  1  0  0  0  0
 30 38  1  1  0  0  0
 31 32  1  6  0  0  0
 31 40  1  0  0  0  0
 33 42  2  0  0  0  0
 34 35  1  0  0  0  0
 34 43  1  1  0  0  0
 36 37  1  1  0  0  0
 36 45  1  0  0  0  0
 38 39  1  0  0  0  0
 40 41  1  0  0  0  0
 40 48  1  1  0  0  0
 43 44  1  0  0  0  0
 45 46  1  1  0  0  0
 47 50  1  0  0  0  0
 48 49  1  0  0  0  0
 50 51  1  0  0  0  0
 51 52  1  0  0  0  0
 52  8  1  0  0  0  0
M  END
>  <CHROM.1>
174.77399290,-111.33586829,166.84740336,109.17549917,38.84641217,104.65390573
56.07732137,171.91224108,-175.88067492,-43.60628311,-84.06419227,152.03218098
118.32360322,-102.68430914,18.55093747,42.26190334,4.85424510,-4.47205206
-1.78546737,0.99519404,1.26071831

>  <Name>
2be0_lig

>  <RI>
2.10017e+07

>  <Rbt.Current_Directory>
/home/itssahil/PROJECTS/Mol_Feturizer/New_Systems/rnas/2be0

>  <Rbt.Executable>
rbdock ($Id: //depot/dev/client3/rdock/2013.1/src/exe/rbdock.cxx#4 $)

>  <Rbt.Library>
libRbt.so (2013.1, Build901 2013/11/27)

>  <Rbt.Parameter_File>
/export/apps/rDock/src/rDock_2013.1_src/data/scripts/dock_solv.prm

>  <Rbt.Receptor>
prm/pocket_docking_3.prm

>  <SCORE>
-10.0009

>  <SCORE.INTER>
-4.20497

>  <SCORE.INTER.CONST>
1

>  <SCORE.INTER.POLAR>
-0.959166

>  <SCORE.INTER.ROT>
15

>  <SCORE.INTER.SOLV>
16.0007

>  <SCORE.INTER.VDW>
-18.5397

>  <SCORE.INTER.norm>
-0.0808649

>  <SCORE.INTRA>
-6.59903

>  <SCORE.INTRA.DIHEDRAL>
-16.8562

>  <SCORE.INTRA.DIHEDRAL.0>
47.8724

>  <SCORE.INTRA.POLAR>
0

>  <SCORE.INTRA.POLAR.0>
0

>  <SCORE.INTRA.REPUL>
0

>  <SCORE.INTRA.REPUL.0>
0

>  <SCORE.INTRA.SOLV>
2.03884

>  <SCORE.INTRA.SOLV.lig_0>
-115.677

>  <SCORE.INTRA.VDW>
0.809644

>  <SCORE.INTRA.VDW.0>
-7.4833

>  <SCORE.INTRA.norm>
-0.126904

>  <SCORE.RESTR>
0.803056

>  <SCORE.RESTR.CAVITY>
0.803056

>  <SCORE.RESTR.norm>
0.0154434

>  <SCORE.SYSTEM>
0

>  <SCORE.SYSTEM.CONST>
0

>  <SCORE.SYSTEM.DIHEDRAL>
0

>  <SCORE.SYSTEM.SOLV>
0

>  <SCORE.SYSTEM.norm>
0

>  <SCORE.heavy>
52

>  <SCORE.norm>
-0.192326

>  <RMSD>
4.801

$$$$
2be0_lig
 OpenBabel11021811423D
libRbt.so/2013.1/901 2013/11/27
 52 56  0  0  0  0  0  0  0  0999 V2000
   45.6408    6.6215   -7.7668 C   0  0  2  0  0  0  0  0  0  0  0  0
   45.0825    6.5345   -6.4771 O   0  0  0  0  0  0  0  0  0  0  0  0
   45.9872    2.3271   -5.5551 C   0  0  2  0  0  0  0  0  0  0  0  0
   46.1852    1.0841   -4.7581 N   0  0  0  0  0  0  0  0  0  0  0  0
   41.9361    4.0438   -6.8646 C   0  0  2  0  0  0  0  0  0  0  0  0
   40.8604    4.9633   -7.1435 O   0  0  0  0  0  0  0  0  0  0  0  0
   39.7119    2.2541   -3.2838 C   0  0  1  0  0  0  0  0  0  0  0  0
   39.9849   -3.0861   -8.0880 C   0  0  0  0  0  0  0  0  0  0  0  0
   45.3675    8.0394   -8.4154 C   0  0  2  0  0  0  0  0  0  0  0  0
   45.8409    9.0947   -7.5171 N   0  0  0  0  0  0  0  0  0  0  0  0
   46.9340    3.4750   -4.9770 C   0  0  0  0  0  0  0  0  0  0  0  0
   41.3434    2.9166   -6.0040 C   0  0  2  0  0  0  0  0  0  0  0  0
   40.7726    1.9704   -7.0122 O   0  0  0  0  0  0  0  0  0  0  0  0
   40.3019    3.2451   -2.1387 C   0  0  2  0  0  0  0  0  0  0  0  0
   41.5068    3.9481   -2.6860 N   0  0  0  0  0  0  0  0  0  0  0  0
   38.5747   -3.0165   -8.3358 C   0  0  0  0  0  0  0  0  0  0  0  0
   38.0399   -3.5873   -9.5204 N   0  0  0  0  0  0  0  0  0  0  0  0
   43.8103    8.1884   -8.7450 C   0  0  1  0  0  0  0  0  0  0  0  0
   43.5856    9.4673   -9.3177 O   0  0  0  0  0  0  0  0  0  0  0  0
   46.7362    4.8626   -5.8169 C   0  0  2  0  0  0  0  0  0  0  0  0
   47.5844    5.9032   -5.3079 N   0  0  0  0  0  0  0  0  0  0  0  0
   40.3999    3.7611   -5.1269 C   0  0  2  0  0  0  0  0  0  0  0  0
   39.3799    3.0674   -4.4235 O   0  0  0  0  0  0  0  0  0  0  0  0
   40.6790    2.3754   -0.9016 C   0  0  1  0  0  0  0  0  0  0  0  0
   39.4276    1.7508   -0.4420 O   0  0  0  0  0  0  0  0  0  0  0  0
   38.8442   -4.2380  -10.4991 C   0  0  0  0  0  0  0  0  0  0  0  0
   43.3963    7.0402   -9.7107 C   0  0  2  0  0  0  0  0  0  0  0  0
   41.9554    7.1236  -10.0509 O   0  0  0  0  0  0  0  0  0  0  0  0
   45.2233    5.3261   -5.7400 C   0  0  2  0  0  0  0  0  0  0  0  0
   39.8670    4.8345   -6.1056 C   0  0  1  0  0  0  0  0  0  0  0  0
   41.7760    1.2515   -1.3252 C   0  0  2  0  0  0  0  0  0  0  0  0
   43.0295    1.8686   -1.7861 O   0  0  0  0  0  0  0  0  0  0  0  0
   40.2443   -4.3384  -10.3081 C   0  0  0  0  0  0  0  0  0  0  0  0
   43.6765    5.6369   -9.0476 C   0  0  2  0  0  0  0  0  0  0  0  0
   45.0967    5.6186   -8.7355 O   0  0  0  0  0  0  0  0  0  0  0  0
   44.3382    4.1627   -6.3078 C   0  0  2  0  0  0  0  0  0  0  0  0
   43.0203    4.6876   -6.2031 O   0  0  0  0  0  0  0  0  0  0  0  0
   39.7294    6.2064   -5.4476 C   0  0  0  0  0  0  0  0  0  0  0  0
   40.9265    6.7714   -4.9691 O   0  0  0  0  0  0  0  0  0  0  0  0
   41.1737    0.3319   -2.4847 C   0  0  1  0  0  0  0  0  0  0  0  0
   40.7778    1.2205   -3.6459 O   0  0  0  0  0  0  0  0  0  0  0  0
   40.8517   -3.7579   -9.0881 C   0  0  0  0  0  0  0  0  0  0  0  0
   43.2870    4.5956  -10.0120 C   0  0  0  0  0  0  0  0  0  0  0  0
   43.5812    3.3898   -9.5098 O   0  0  0  0  0  0  0  0  0  0  0  0
   44.5318    2.8412   -5.4512 C   0  0  1  0  0  0  0  0  0  0  0  0
   43.7495    1.8177   -5.9728 O   0  0  0  0  0  0  0  0  0  0  0  0
   41.4972    1.0678   -7.9377 C   0  0  0  0  0  0  0  0  0  0  0  0
   42.2642   -0.7102   -2.8542 C   0  0  0  0  0  0  0  0  0  0  0  0
   41.7046   -1.7658   -3.6611 N   0  0  0  0  0  0  0  0  0  0  0  0
   41.8152   -0.2153   -7.1632 C   0  0  0  0  0  0  0  0  0  0  0  0
   40.5360   -0.8808   -6.7540 N   0  0  0  0  0  0  0  0  0  0  0  0
   40.5621   -2.4330   -6.7387 C   0  0  0  0  0  0  0  0  0  0  0  0
  1  2  1  1  0  0  0
  1  9  1  0  0  0  0
  1 35  1  0  0  0  0
  3  4  1  1  0  0  0
  3 11  1  0  0  0  0
  3 45  1  0  0  0  0
  5  6  1  0  0  0  0
  5 12  1  0  0  0  0
  5 37  1  1  0  0  0
  6 30  1  0  0  0  0
  7 14  1  0  0  0  0
  7 41  1  0  0  0  0
  7 23  1  6  0  0  0
  8 16  2  0  0  0  0
  8 42  1  0  0  0  0
  9 10  1  1  0  0  0
  9 18  1  0  0  0  0
 11 20  1  0  0  0  0
 12 13  1  6  0  0  0
 12 22  1  0  0  0  0
 13 47  1  0  0  0  0
 14 15  1  6  0  0  0
 14 24  1  0  0  0  0
 16 17  1  0  0  0  0
 17 26  2  0  0  0  0
 18 19  1  6  0  0  0
 18 27  1  0  0  0  0
 20 21  1  1  0  0  0
 20 29  1  0  0  0  0
 22 23  1  6  0  0  0
 22 30  1  0  0  0  0
 24 25  1  6  0  0  0
 24 31  1  0  0  0  0
 26 33  1  0  0  0  0
 27 28  1  1  0  0  0
 27 34  1  0  0  0  0
 29  2  1  6  0  0  0
 29 36  1  0  0  0  0
 30 38  1  1  0  0  0
 31 32  1  6  0  0  0
 31 40  1  0  0  0  0
 33 42  2  0  0  0  0
 34 35  1  0  0  0  0
 34 43  1  6  0  0  0
 36 37  1  1  0  0  0
 36 45  1  0  0  0  0
 38 39  1  0  0  0  0
 40 41  1  0  0  0  0
 40 48  1  6  0  0  0
 43 44  1  0  0  0  0
 45 46  1  6  0  0  0
 47 50  1  0  0  0  0
 48 49  1  0  0  0  0
 50 51  1  0  0  0  0
 51 52  1  0  0  0  0
 52  8  1  0  0  0  0
M  END
>  <CHROM.1>
179.70988241,-154.74032416,64.21836272,71.95803307,84.38075946,72.74146640
47.41108232,-54.40545907,176.58584645,167.27138825,166.62711777,62.51126003
145.63719460,-96.11185839,-71.61962617,42.36923811,2.91214951,-6.22180344
-0.01281918,-1.10292545,-1.71479639

>  <Name>
2be0_lig

>  <RI>
0

>  <Rbt.Current_Directory>
/home/itssahil/PROJECTS/Mol_Feturizer/New_Systems/rnas/2be0

>  <Rbt.Executable>
rbdock ($Id: //depot/dev/client3/rdock/2013.1/src/exe/rbdock.cxx#4 $)

>  <Rbt.Library>
libRbt.so (2013.1, Build901 2013/11/27)

>  <Rbt.Parameter_File>
/export/apps/rDock/src/rDock_2013.1_src/data/scripts/dock_solv.prm

>  <Rbt.Receptor>
prm/pocket_docking_4.prm

>  <SCORE>
-17.8383

>  <SCORE.INTER>
-1.89723

>  <SCORE.INTER.CONST>
1

>  <SCORE.INTER.POLAR>
-0.959166

>  <SCORE.INTER.ROT>
15

>  <SCORE.INTER.SOLV>
11.8571

>  <SCORE.INTER.VDW>
-15.62

>  <SCORE.INTER.norm>
-0.0364852

>  <SCORE.INTRA>
-15.9411

>  <SCORE.INTRA.DIHEDRAL>
-36.0762

>  <SCORE.INTRA.DIHEDRAL.0>
47.8724

>  <SCORE.INTRA.POLAR>
0

>  <SCORE.INTRA.POLAR.0>
0

>  <SCORE.INTRA.REPUL>
0

>  <SCORE.INTRA.REPUL.0>
0

>  <SCORE.INTRA.SOLV>
4.61279

>  <SCORE.INTRA.SOLV.lig_0>
-115.677

>  <SCORE.INTRA.VDW>
-0.209382

>  <SCORE.INTRA.VDW.0>
-7.4833

>  <SCORE.INTRA.norm>
-0.306559

>  <SCORE.RESTR>
0

>  <SCORE.RESTR.CAVITY>
0

>  <SCORE.RESTR.norm>
0

>  <SCORE.SYSTEM>
0

>  <SCORE.SYSTEM.CONST>
0

>  <SCORE.SYSTEM.DIHEDRAL>
0

>  <SCORE.SYSTEM.SOLV>
0

>  <SCORE.SYSTEM.norm>
0

>  <SCORE.heavy>
52

>  <SCORE.norm>
-0.343045

>  <RMSD>
4.802

$$$$
2be0_lig
 OpenBabel11021811423D
libRbt.so/2013.1/901 2013/11/27
 52 56  0  0  0  0  0  0  0  0999 V2000
   47.4659    3.1955   -5.8725 C   0  0  2  0  0  0  0  0  0  0  0  0
   46.8274    3.6138   -4.6892 O   0  0  0  0  0  0  0  0  0  0  0  0
   44.8598   -0.1520   -3.5409 C   0  0  2  0  0  0  0  0  0  0  0  0
   44.1512   -1.1566   -2.6994 N   0  0  0  0  0  0  0  0  0  0  0  0
   42.6319    3.3817   -4.8196 C   0  0  2  0  0  0  0  0  0  0  0  0
   42.1303    3.8942   -6.0711 O   0  0  0  0  0  0  0  0  0  0  0  0
   41.6771    7.2949   -2.6375 C   0  0  1  0  0  0  0  0  0  0  0  0
   37.6101    1.1362   -6.9366 C   0  0  0  0  0  0  0  0  0  0  0  0
   48.7669    4.0517   -6.1553 C   0  0  2  0  0  0  0  0  0  0  0  0
   49.6493    4.0129   -4.9872 N   0  0  0  0  0  0  0  0  0  0  0  0
   46.2162    0.2742   -2.8151 C   0  0  0  0  0  0  0  0  0  0  0  0
   42.0248    4.2535   -3.7088 C   0  0  2  0  0  0  0  0  0  0  0  0
   40.6939    3.6196   -3.4551 O   0  0  0  0  0  0  0  0  0  0  0  0
   42.9204    8.2923   -2.9544 C   0  0  2  0  0  0  0  0  0  0  0  0
   44.0476    7.4880   -3.5273 N   0  0  0  0  0  0  0  0  0  0  0  0
   36.5828    1.7795   -7.7018 C   0  0  0  0  0  0  0  0  0  0  0  0
   36.5849    1.6665   -9.1169 N   0  0  0  0  0  0  0  0  0  0  0  0
   48.3527    5.5465   -6.5427 C   0  0  1  0  0  0  0  0  0  0  0  0
   49.5318    6.2984   -6.7846 O   0  0  0  0  0  0  0  0  0  0  0  0
   47.0186    1.3883   -3.7010 C   0  0  2  0  0  0  0  0  0  0  0  0
   48.2424    1.7787   -3.0597 N   0  0  0  0  0  0  0  0  0  0  0  0
   42.0993    5.6205   -4.4150 C   0  0  2  0  0  0  0  0  0  0  0  0
   41.3049    6.6679   -3.8780 O   0  0  0  0  0  0  0  0  0  0  0  0
   43.3438    8.9691   -1.6158 C   0  0  1  0  0  0  0  0  0  0  0  0
   42.1753    9.7383   -1.1572 O   0  0  0  0  0  0  0  0  0  0  0  0
   37.5736    0.9350   -9.8348 C   0  0  0  0  0  0  0  0  0  0  0  0
   47.4306    5.4960   -7.7955 C   0  0  2  0  0  0  0  0  0  0  0  0
   47.0087    6.8583   -8.2018 O   0  0  0  0  0  0  0  0  0  0  0  0
   46.1032    2.6629   -3.9181 C   0  0  2  0  0  0  0  0  0  0  0  0
   41.7736    5.2798   -5.8887 C   0  0  1  0  0  0  0  0  0  0  0  0
   43.7650    7.8354   -0.5281 C   0  0  2  0  0  0  0  0  0  0  0  0
   44.9323    7.0623   -0.9799 O   0  0  0  0  0  0  0  0  0  0  0  0
   38.6131    0.2771   -9.1322 C   0  0  0  0  0  0  0  0  0  0  0  0
   46.1413    4.6388   -7.4944 C   0  0  2  0  0  0  0  0  0  0  0  0
   46.6191    3.3231   -7.1000 O   0  0  0  0  0  0  0  0  0  0  0  0
   44.7843    2.1891   -4.6218 C   0  0  2  0  0  0  0  0  0  0  0  0
   44.0550    3.4006   -4.7760 O   0  0  0  0  0  0  0  0  0  0  0  0
   42.6147    6.0900   -6.8738 C   0  0  0  0  0  0  0  0  0  0  0  0
   43.9935    6.1398   -6.5949 O   0  0  0  0  0  0  0  0  0  0  0  0
   42.5316    6.8497   -0.2834 C   0  0  1  0  0  0  0  0  0  0  0  0
   42.1234    6.2515   -1.6139 O   0  0  0  0  0  0  0  0  0  0  0  0
   38.6560    0.3653   -7.6541 C   0  0  0  0  0  0  0  0  0  0  0  0
   45.3224    4.6096   -8.7169 C   0  0  0  0  0  0  0  0  0  0  0  0
   45.7989    3.6768   -9.5510 O   0  0  0  0  0  0  0  0  0  0  0  0
   44.0164    1.1322   -3.7215 C   0  0  1  0  0  0  0  0  0  0  0  0
   42.8563    0.7148   -4.3630 O   0  0  0  0  0  0  0  0  0  0  0  0
   40.4069    2.2985   -2.8479 C   0  0  0  0  0  0  0  0  0  0  0  0
   42.9941    5.7872    0.7504 C   0  0  0  0  0  0  0  0  0  0  0  0
   42.9874    6.3388    2.0825 N   0  0  0  0  0  0  0  0  0  0  0  0
   38.9840    1.9092   -3.2616 C   0  0  0  0  0  0  0  0  0  0  0  0
   38.8874    1.8881   -4.7572 N   0  0  0  0  0  0  0  0  0  0  0  0
   37.5820    1.2797   -5.3369 C   0  0  0  0  0  0  0  0  0  0  0  0
  1  2  1  1  0  0  0
  1  9  1  0  0  0  0
  1 35  1  0  0  0  0
  3  4  1  1  0  0  0
  3 11  1  0  0  0  0
  3 45  1  0  0  0  0
  5  6  1  0  0  0  0
  5 12  1  0  0  0  0
  5 37  1  6  0  0  0
  6 30  1  0  0  0  0
  7 14  1  0  0  0  0
  7 41  1  0  0  0  0
  7 23  1  6  0  0  0
  8 16  2  0  0  0  0
  8 42  1  0  0  0  0
  9 10  1  1  0  0  0
  9 18  1  0  0  0  0
 11 20  1  0  0  0  0
 12 13  1  6  0  0  0
 12 22  1  0  0  0  0
 13 47  1  0  0  0  0
 14 15  1  1  0  0  0
 14 24  1  0  0  0  0
 16 17  1  0  0  0  0
 17 26  2  0  0  0  0
 18 19  1  6  0  0  0
 18 27  1  0  0  0  0
 20 21  1  1  0  0  0
 20 29  1  0  0  0  0
 22 23  1  1  0  0  0
 22 30  1  0  0  0  0
 24 25  1  1  0  0  0
 24 31  1  0  0  0  0
 26 33  1  0  0  0  0
 27 28  1  1  0  0  0
 27 34  1  0  0  0  0
 29  2  1  6  0  0  0
 29 36  1  0  0  0  0
 30 38  1  6  0  0  0
 31 32  1  6  0  0  0
 31 40  1  0  0  0  0
 33 42  2  0  0  0  0
 34 35  1  0  0  0  0
 34 43  1  6  0  0  0
 36 37  1  1  0  0  0
 36 45  1  0  0  0  0
 38 39  1  0  0  0  0
 40 41  1  0  0  0  0
 40 48  1  1  0  0  0
 43 44  1  0  0  0  0
 45 46  1  6  0  0  0
 47 50  1  0  0  0  0
 48 49  1  0  0  0  0
 50 51  1  0  0  0  0
 51 52  1  0  0  0  0
 52  8  1  0  0  0  0
M  END
>  <CHROM.1>
-149.38249536,-118.96327258,76.09183394,68.65377432,-160.08249782,73.06481843
49.18023823,-69.04729992,81.44523565,-152.40974931,77.44399310,57.63558312
170.00801647,-173.56677943,-122.86893186,43.42260896,4.04909662,-4.72229912
-0.48234669,-0.18822710,-2.24486270

>  <Name>
2be0_lig

>  <RI>
0

>  <Rbt.Current_Directory>
/home/itssahil/PROJECTS/Mol_Feturizer/New_Systems/rnas/2be0

>  <Rbt.Executable>
rbdock ($Id: //depot/dev/client3/rdock/2013.1/src/exe/rbdock.cxx#4 $)

>  <Rbt.Library>
libRbt.so (2013.1, Build901 2013/11/27)

>  <Rbt.Parameter_File>
/export/apps/rDock/src/rDock_2013.1_src/data/scripts/dock_solv.prm

>  <Rbt.Receptor>
prm/pocket_docking_4.prm

>  <SCORE>
-12.218

>  <SCORE.INTER>
-4.28416

>  <SCORE.INTER.CONST>
1

>  <SCORE.INTER.POLAR>
-0.925397

>  <SCORE.INTER.ROT>
15

>  <SCORE.INTER.SOLV>
20.8711

>  <SCORE.INTER.VDW>
-20.3285

>  <SCORE.INTER.norm>
-0.0823877

>  <SCORE.INTRA>
-8.01227

>  <SCORE.INTRA.DIHEDRAL>
-25.0265

>  <SCORE.INTRA.DIHEDRAL.0>
47.8724

>  <SCORE.INTRA.POLAR>
0

>  <SCORE.INTRA.POLAR.0>
0

>  <SCORE.INTRA.REPUL>
0.0748416

>  <SCORE.INTRA.REPUL.0>
0

>  <SCORE.INTRA.SOLV>
3.16723

>  <SCORE.INTRA.SOLV.lig_0>
-115.677

>  <SCORE.INTRA.VDW>
2.54316

>  <SCORE.INTRA.VDW.0>
-7.4833

>  <SCORE.INTRA.norm>
-0.154082

>  <SCORE.RESTR>
0.0783916

>  <SCORE.RESTR.CAVITY>
0.0783916

>  <SCORE.RESTR.norm>
0.00150753

>  <SCORE.SYSTEM>
0

>  <SCORE.SYSTEM.CONST>
0

>  <SCORE.SYSTEM.DIHEDRAL>
0

>  <SCORE.SYSTEM.SOLV>
0

>  <SCORE.SYSTEM.norm>
0

>  <SCORE.heavy>
52

>  <SCORE.norm>
-0.234962

>  <RMSD>
4.819

$$$$
2be0_lig
 OpenBabel11021811423D
libRbt.so/2013.1/901 2013/11/27
 52 56  0  0  0  0  0  0  0  0999 V2000
   47.9094    4.0287   -6.0614 C   0  0  2  0  0  0  0  0  0  0  0  0
   47.7447    2.6425   -5.8764 O   0  0  0  0  0  0  0  0  0  0  0  0
   46.2071    0.0771   -2.6476 C   0  0  2  0  0  0  0  0  0  0  0  0
   46.0018   -0.4697   -1.2771 N   0  0  0  0  0  0  0  0  0  0  0  0
   44.2674    3.8925   -4.0036 C   0  0  2  0  0  0  0  0  0  0  0  0
   43.8562    5.0320   -4.7865 O   0  0  0  0  0  0  0  0  0  0  0  0
   43.0100    6.7962   -1.1084 C   0  0  1  0  0  0  0  0  0  0  0  0
   39.5004    1.2411   -5.5081 C   0  0  0  0  0  0  0  0  0  0  0  0
   47.8989    4.4071   -7.5985 C   0  0  2  0  0  0  0  0  0  0  0  0
   46.6826    3.8887   -8.2281 N   0  0  0  0  0  0  0  0  0  0  0  0
   47.7652    0.0488   -2.9936 C   0  0  0  0  0  0  0  0  0  0  0  0
   44.1529    4.3048   -2.5273 C   0  0  2  0  0  0  0  0  0  0  0  0
   42.7188    4.0348   -2.1992 O   0  0  0  0  0  0  0  0  0  0  0  0
   42.9384    8.2128   -0.3151 C   0  0  2  0  0  0  0  0  0  0  0  0
   43.9070    8.1729    0.8277 N   0  0  0  0  0  0  0  0  0  0  0  0
   38.2790    0.8433   -4.8720 C   0  0  0  0  0  0  0  0  0  0  0  0
   37.0538    0.9338   -5.5832 N   0  0  0  0  0  0  0  0  0  0  0  0
   49.2214    3.8453   -8.2993 C   0  0  1  0  0  0  0  0  0  0  0  0
   49.1889    4.1881   -9.6761 O   0  0  0  0  0  0  0  0  0  0  0  0
   48.0352    0.6550   -4.4868 C   0  0  2  0  0  0  0  0  0  0  0  0
   49.4336    0.6330   -4.8112 N   0  0  0  0  0  0  0  0  0  0  0  0
   44.6497    5.7578   -2.6493 C   0  0  2  0  0  0  0  0  0  0  0  0
   44.3642    6.6301   -1.5658 O   0  0  0  0  0  0  0  0  0  0  0  0
   41.4789    8.4001    0.1986 C   0  0  1  0  0  0  0  0  0  0  0  0
   40.6243    8.4413   -0.9994 O   0  0  0  0  0  0  0  0  0  0  0  0
   36.9682    1.4101   -6.9225 C   0  0  0  0  0  0  0  0  0  0  0  0
   50.4599    4.4540   -7.5797 C   0  0  2  0  0  0  0  0  0  0  0  0
   51.7219    3.9647   -8.1855 O   0  0  0  0  0  0  0  0  0  0  0  0
   47.4947    2.1419   -4.5687 C   0  0  2  0  0  0  0  0  0  0  0  0
   44.0604    6.2248   -4.0015 C   0  0  1  0  0  0  0  0  0  0  0  0
   41.0684    7.1628    1.1714 C   0  0  2  0  0  0  0  0  0  0  0  0
   41.9188    7.1152    2.3709 O   0  0  0  0  0  0  0  0  0  0  0  0
   38.1423    1.8165   -7.6031 C   0  0  0  0  0  0  0  0  0  0  0  0
   50.4524    4.0667   -6.0508 C   0  0  2  0  0  0  0  0  0  0  0  0
   49.1955    4.5677   -5.5178 O   0  0  0  0  0  0  0  0  0  0  0  0
   45.9681    2.1152   -4.2109 C   0  0  2  0  0  0  0  0  0  0  0  0
   45.5918    3.4820   -4.3275 O   0  0  0  0  0  0  0  0  0  0  0  0
   45.0273    7.1127   -4.7831 C   0  0  0  0  0  0  0  0  0  0  0  0
   44.5828    7.5190   -6.0554 O   0  0  0  0  0  0  0  0  0  0  0  0
   41.1994    5.7885    0.3669 C   0  0  1  0  0  0  0  0  0  0  0  0
   42.6171    5.6696   -0.1533 O   0  0  0  0  0  0  0  0  0  0  0  0
   39.4463    1.7421   -6.9042 C   0  0  0  0  0  0  0  0  0  0  0  0
   51.6302    4.6859   -5.4220 C   0  0  0  0  0  0  0  0  0  0  0  0
   51.7443    4.2492   -4.1615 O   0  0  0  0  0  0  0  0  0  0  0  0
   45.7452    1.5504   -2.7451 C   0  0  1  0  0  0  0  0  0  0  0  0
   44.3879    1.5235   -2.4472 O   0  0  0  0  0  0  0  0  0  0  0  0
   41.5082    4.5388   -2.8897 C   0  0  0  0  0  0  0  0  0  0  0  0
   40.8075    4.6476    1.3449 C   0  0  0  0  0  0  0  0  0  0  0  0
   39.4349    4.7871    1.7633 N   0  0  0  0  0  0  0  0  0  0  0  0
   41.2456    3.6104   -4.0797 C   0  0  0  0  0  0  0  0  0  0  0  0
   41.0133    2.2155   -3.5825 N   0  0  0  0  0  0  0  0  0  0  0  0
   40.8721    1.1266   -4.6800 C   0  0  0  0  0  0  0  0  0  0  0  0
  1  2  1  6  0  0  0
  1  9  1  0  0  0  0
  1 35  1  0  0  0  0
  3  4  1  1  0  0  0
  3 11  1  0  0  0  0
  3 45  1  0  0  0  0
  5  6  1  0  0  0  0
  5 12  1  0  0  0  0
  5 37  1  6  0  0  0
  6 30  1  0  0  0  0
  7 14  1  0  0  0  0
  7 41  1  0  0  0  0
  7 23  1  1  0  0  0
  8 16  2  0  0  0  0
  8 42  1  0  0  0  0
  9 10  1  6  0  0  0
  9 18  1  0  0  0  0
 11 20  1  0  0  0  0
 12 13  1  6  0  0  0
 12 22  1  0  0  0  0
 13 47  1  0  0  0  0
 14 15  1  1  0  0  0
 14 24  1  0  0  0  0
 16 17  1  0  0  0  0
 17 26  2  0  0  0  0
 18 19  1  6  0  0  0
 18 27  1  0  0  0  0
 20 21  1  1  0  0  0
 20 29  1  0  0  0  0
 22 23  1  1  0  0  0
 22 30  1  0  0  0  0
 24 25  1  6  0  0  0
 24 31  1  0  0  0  0
 26 33  1  0  0  0  0
 27 28  1  6  0  0  0
 27 34  1  0  0  0  0
 29  2  1  6  0  0  0
 29 36  1  0  0  0  0
 30 38  1  6  0  0  0
 31 32  1  1  0  0  0
 31 40  1  0  0  0  0
 33 42  2  0  0  0  0
 34 35  1  0  0  0  0
 34 43  1  1  0  0  0
 36 37  1  1  0  0  0
 36 45  1  0  0  0  0
 38 39  1  0  0  0  0
 40 41  1  0  0  0  0
 40 48  1  1  0  0  0
 43 44  1  0  0  0  0
 45 46  1  6  0  0  0
 47 50  1  0  0  0  0
 48 49  1  0  0  0  0
 50 51  1  0  0  0  0
 51 52  1  0  0  0  0
 52  8  1  0  0  0  0
M  END
>  <CHROM.1>
-169.09633435,-149.68859715,-158.38729038,-54.77417514,83.88156535,-54.41795883
-152.74108365,60.63669776,-172.68175847,-176.48517487,62.65659372,60.54604099
-174.15407509,-70.66764374,-73.50042345,44.51286126,4.00646434,-3.77480404
-0.46746913,0.21689188,0.87832571

>  <Name>
2be0_lig

>  <RI>
2.75444e+07

>  <Rbt.Current_Directory>
/home/itssahil/PROJECTS/Mol_Feturizer/New_Systems/rnas/2be0

>  <Rbt.Executable>
rbdock ($Id: //depot/dev/client3/rdock/2013.1/src/exe/rbdock.cxx#4 $)

>  <Rbt.Library>
libRbt.so (2013.1, Build901 2013/11/27)

>  <Rbt.Parameter_File>
/export/apps/rDock/src/rDock_2013.1_src/data/scripts/dock_solv.prm

>  <Rbt.Receptor>
prm/pocket_docking_5.prm

>  <SCORE>
-22.4594

>  <SCORE.INTER>
-6.49399

>  <SCORE.INTER.CONST>
1

>  <SCORE.INTER.POLAR>
-1.33377

>  <SCORE.INTER.ROT>
15

>  <SCORE.INTER.SOLV>
18.9204

>  <SCORE.INTER.VDW>
-19.7902

>  <SCORE.INTER.norm>
-0.124884

>  <SCORE.INTRA>
-15.9654

>  <SCORE.INTRA.DIHEDRAL>
-34.1572

>  <SCORE.INTRA.DIHEDRAL.0>
47.8724

>  <SCORE.INTRA.POLAR>
0

>  <SCORE.INTRA.POLAR.0>
0

>  <SCORE.INTRA.REPUL>
0

>  <SCORE.INTRA.REPUL.0>
0

>  <SCORE.INTRA.SOLV>
-1.5206

>  <SCORE.INTRA.SOLV.lig_0>
-115.677

>  <SCORE.INTRA.VDW>
1.87348

>  <SCORE.INTRA.VDW.0>
-7.4833

>  <SCORE.INTRA.norm>
-0.307027

>  <SCORE.RESTR>
0

>  <SCORE.RESTR.CAVITY>
0

>  <SCORE.RESTR.norm>
0

>  <SCORE.SYSTEM>
0

>  <SCORE.SYSTEM.CONST>
0

>  <SCORE.SYSTEM.DIHEDRAL>
0

>  <SCORE.SYSTEM.SOLV>
0

>  <SCORE.SYSTEM.norm>
0

>  <SCORE.heavy>
52

>  <SCORE.norm>
-0.431912

>  <RMSD>
4.838

$$$$
2be0_lig
 OpenBabel11021811423D
libRbt.so/2013.1/901 2013/11/27
 52 56  0  0  0  0  0  0  0  0999 V2000
   45.5976    6.6186   -7.7656 C   0  0  2  0  0  0  0  0  0  0  0  0
   44.9950    6.4456   -6.5048 O   0  0  0  0  0  0  0  0  0  0  0  0
   46.2257    2.3049   -5.6615 C   0  0  2  0  0  0  0  0  0  0  0  0
   46.4831    1.0538   -4.8946 N   0  0  0  0  0  0  0  0  0  0  0  0
   42.0939    3.5412   -6.9586 C   0  0  2  0  0  0  0  0  0  0  0  0
   40.9073    4.2691   -7.3360 O   0  0  0  0  0  0  0  0  0  0  0  0
   40.2074    1.6969   -3.3530 C   0  0  1  0  0  0  0  0  0  0  0  0
   38.6757   -4.4074   -7.7829 C   0  0  0  0  0  0  0  0  0  0  0  0
   45.2671    8.0447   -8.3680 C   0  0  2  0  0  0  0  0  0  0  0  0
   45.6419    9.0864   -7.4095 N   0  0  0  0  0  0  0  0  0  0  0  0
   47.0160    3.5104   -4.9755 C   0  0  0  0  0  0  0  0  0  0  0  0
   41.6624    2.5038   -5.9096 C   0  0  2  0  0  0  0  0  0  0  0  0
   41.1939    1.3471   -6.7341 O   0  0  0  0  0  0  0  0  0  0  0  0
   38.9208    1.1531   -2.5221 C   0  0  2  0  0  0  0  0  0  0  0  0
   38.2673    2.3135   -1.8350 N   0  0  0  0  0  0  0  0  0  0  0  0
   39.1318   -5.0825   -6.6034 C   0  0  0  0  0  0  0  0  0  0  0  0
   38.4596   -6.2504   -6.1573 N   0  0  0  0  0  0  0  0  0  0  0  0
   43.7180    8.1182   -8.7562 C   0  0  1  0  0  0  0  0  0  0  0  0
   43.4412    9.4052   -9.2865 O   0  0  0  0  0  0  0  0  0  0  0  0
   46.7481    4.9071   -5.7801 C   0  0  2  0  0  0  0  0  0  0  0  0
   47.4557    5.9995   -5.1740 N   0  0  0  0  0  0  0  0  0  0  0  0
   40.6387    3.3593   -5.1396 C   0  0  2  0  0  0  0  0  0  0  0  0
   39.7264    2.6705   -4.2971 O   0  0  0  0  0  0  0  0  0  0  0  0
   39.4289    0.1063   -1.4851 C   0  0  1  0  0  0  0  0  0  0  0  0
   40.0319   -0.9861   -2.2664 O   0  0  0  0  0  0  0  0  0  0  0  0
   37.3311   -6.8002   -6.8299 C   0  0  0  0  0  0  0  0  0  0  0  0
   43.4107    6.9900   -9.7833 C   0  0  2  0  0  0  0  0  0  0  0  0
   41.9818    7.0052  -10.1798 O   0  0  0  0  0  0  0  0  0  0  0  0
   45.1966    5.2261   -5.8009 C   0  0  2  0  0  0  0  0  0  0  0  0
   39.9578    4.1906   -6.2529 C   0  0  1  0  0  0  0  0  0  0  0  0
   40.5204    0.7912   -0.4924 C   0  0  2  0  0  0  0  0  0  0  0  0
   39.9247    1.8843    0.2915 O   0  0  0  0  0  0  0  0  0  0  0  0
   36.8358   -6.1770   -8.0018 C   0  0  0  0  0  0  0  0  0  0  0  0
   43.7465    5.5783   -9.1655 C   0  0  2  0  0  0  0  0  0  0  0  0
   45.1519    5.6280   -8.7953 O   0  0  0  0  0  0  0  0  0  0  0  0
   44.4683    4.0105   -6.4724 C   0  0  2  0  0  0  0  0  0  0  0  0
   43.1025    4.4073   -6.4488 O   0  0  0  0  0  0  0  0  0  0  0  0
   39.6639    5.6238   -5.8130 C   0  0  0  0  0  0  0  0  0  0  0  0
   38.7761    5.7546   -4.7286 O   0  0  0  0  0  0  0  0  0  0  0  0
   41.7425    1.3540   -1.3540 C   0  0  1  0  0  0  0  0  0  0  0  0
   41.1995    2.3296   -2.3778 O   0  0  0  0  0  0  0  0  0  0  0  0
   37.5019   -4.9546   -8.5080 C   0  0  0  0  0  0  0  0  0  0  0  0
   43.4572    4.5580  -10.1860 C   0  0  0  0  0  0  0  0  0  0  0  0
   44.2929    4.7124  -11.2207 O   0  0  0  0  0  0  0  0  0  0  0  0
   44.7245    2.6784   -5.6493 C   0  0  1  0  0  0  0  0  0  0  0  0
   44.0816    1.6096   -6.2623 O   0  0  0  0  0  0  0  0  0  0  0  0
   40.5968    0.0719   -6.2717 C   0  0  0  0  0  0  0  0  0  0  0  0
   42.7424    2.0031   -0.3588 C   0  0  0  0  0  0  0  0  0  0  0  0
   43.9034    2.4977   -1.0561 N   0  0  0  0  0  0  0  0  0  0  0  0
   40.2691   -0.7539   -7.5199 C   0  0  0  0  0  0  0  0  0  0  0  0
   39.7541   -2.0996   -7.1066 N   0  0  0  0  0  0  0  0  0  0  0  0
   39.4563   -3.0890   -8.2653 C   0  0  0  0  0  0  0  0  0  0  0  0
  1  2  1  1  0  0  0
  1  9  1  0  0  0  0
  1 35  1  0  0  0  0
  3  4  1  1  0  0  0
  3 11  1  0  0  0  0
  3 45  1  0  0  0  0
  5  6  1  0  0  0  0
  5 12  1  0  0  0  0
  5 37  1  1  0  0  0
  6 30  1  0  0  0  0
  7 14  1  0  0  0  0
  7 41  1  0  0  0  0
  7 23  1  6  0  0  0
  8 16  2  0  0  0  0
  8 42  1  0  0  0  0
  9 10  1  1  0  0  0
  9 18  1  0  0  0  0
 11 20  1  0  0  0  0
 12 13  1  6  0  0  0
 12 22  1  0  0  0  0
 13 47  1  0  0  0  0
 14 15  1  1  0  0  0
 14 24  1  0  0  0  0
 16 17  1  0  0  0  0
 17 26  2  0  0  0  0
 18 19  1  6  0  0  0
 18 27  1  0  0  0  0
 20 21  1  1  0  0  0
 20 29  1  0  0  0  0
 22 23  1  6  0  0  0
 22 30  1  0  0  0  0
 24 25  1  6  0  0  0
 24 31  1  0  0  0  0
 26 33  1  0  0  0  0
 27 28  1  1  0  0  0
 27 34  1  0  0  0  0
 29  2  1  6  0  0  0
 29 36  1  0  0  0  0
 30 38  1  1  0  0  0
 31 32  1  6  0  0  0
 31 40  1  0  0  0  0
 33 42  2  0  0  0  0
 34 35  1  0  0  0  0
 34 43  1  6  0  0  0
 36 37  1  1  0  0  0
 36 45  1  0  0  0  0
 38 39  1  0  0  0  0
 40 41  1  0  0  0  0
 40 48  1  1  0  0  0
 43 44  1  0  0  0  0
 45 46  1  6  0  0  0
 47 50  1  0  0  0  0
 48 49  1  0  0  0  0
 50 51  1  0  0  0  0
 51 52  1  0  0  0  0
 52  8  1  0  0  0  0
M  END
>  <CHROM.1>
-179.20414296,-157.26503972,177.78778170,-176.72219975,178.85943120,49.68541691
49.47938772,-178.31340659,65.27116122,-178.80960552,178.00658072,175.85691555
-176.47576171,-170.06756080,-45.81177321,42.04552392,2.52507253,-5.91802277
0.13838865,-1.03135951,-1.66001164

>  <Name>
2be0_lig

>  <RI>
0

>  <Rbt.Current_Directory>
/home/itssahil/PROJECTS/Mol_Feturizer/New_Systems/rnas/2be0

>  <Rbt.Executable>
rbdock ($Id: //depot/dev/client3/rdock/2013.1/src/exe/rbdock.cxx#4 $)

>  <Rbt.Library>
libRbt.so (2013.1, Build901 2013/11/27)

>  <Rbt.Parameter_File>
/export/apps/rDock/src/rDock_2013.1_src/data/scripts/dock_solv.prm

>  <Rbt.Receptor>
prm/pocket_docking_7.prm

>  <SCORE>
-22.9567

>  <SCORE.INTER>
-2.59662

>  <SCORE.INTER.CONST>
1

>  <SCORE.INTER.POLAR>
-0.959166

>  <SCORE.INTER.ROT>
15

>  <SCORE.INTER.SOLV>
15.3219

>  <SCORE.INTER.VDW>
-17.2412

>  <SCORE.INTER.norm>
-0.0499349

>  <SCORE.INTRA>
-20.3601

>  <SCORE.INTRA.DIHEDRAL>
-42.9966

>  <SCORE.INTRA.DIHEDRAL.0>
47.8724

>  <SCORE.INTRA.POLAR>
0

>  <SCORE.INTRA.POLAR.0>
0

>  <SCORE.INTRA.REPUL>
0

>  <SCORE.INTRA.REPUL.0>
0

>  <SCORE.INTRA.SOLV>
-3.29706

>  <SCORE.INTRA.SOLV.lig_0>
-115.677

>  <SCORE.INTRA.VDW>
2.78674

>  <SCORE.INTRA.VDW.0>
-7.4833

>  <SCORE.INTRA.norm>
-0.39154

>  <SCORE.RESTR>
0

>  <SCORE.RESTR.CAVITY>
0

>  <SCORE.RESTR.norm>
0

>  <SCORE.SYSTEM>
0

>  <SCORE.SYSTEM.CONST>
0

>  <SCORE.SYSTEM.DIHEDRAL>
0

>  <SCORE.SYSTEM.SOLV>
0

>  <SCORE.SYSTEM.norm>
0

>  <SCORE.heavy>
52

>  <SCORE.norm>
-0.441475

>  <RMSD>
4.848

$$$$
2be0_lig
 OpenBabel11021811423D
libRbt.so/2013.1/901 2013/11/27
 52 56  0  0  0  0  0  0  0  0999 V2000
   45.1926    5.4914   -4.4555 C   0  0  2  0  0  0  0  0  0  0  0  0
   43.9006    5.0224   -4.1495 O   0  0  0  0  0  0  0  0  0  0  0  0
   44.8731    0.8581   -3.1086 C   0  0  2  0  0  0  0  0  0  0  0  0
   44.6869   -0.5429   -2.6375 N   0  0  0  0  0  0  0  0  0  0  0  0
   42.1139    2.3944   -6.1073 C   0  0  2  0  0  0  0  0  0  0  0  0
   41.3468    3.0475   -7.1395 O   0  0  0  0  0  0  0  0  0  0  0  0
   39.7243    4.1883   -2.7615 C   0  0  1  0  0  0  0  0  0  0  0  0
   35.9309    0.0328   -6.5407 C   0  0  0  0  0  0  0  0  0  0  0  0
   45.1755    7.0369   -4.7975 C   0  0  2  0  0  0  0  0  0  0  0  0
   44.5438    7.7792   -3.7046 N   0  0  0  0  0  0  0  0  0  0  0  0
   44.4058    1.8624   -1.9592 C   0  0  0  0  0  0  0  0  0  0  0  0
   41.3005    2.5134   -4.8086 C   0  0  2  0  0  0  0  0  0  0  0  0
   40.3645    1.3485   -4.8743 O   0  0  0  0  0  0  0  0  0  0  0  0
   38.2205    4.4018   -2.1833 C   0  0  2  0  0  0  0  0  0  0  0  0
   37.7408    5.7639   -2.5837 N   0  0  0  0  0  0  0  0  0  0  0  0
   34.7354   -0.1638   -7.3069 C   0  0  0  0  0  0  0  0  0  0  0  0
   34.5049    0.6239   -8.4651 N   0  0  0  0  0  0  0  0  0  0  0  0
   44.4268    7.2707   -6.1906 C   0  0  1  0  0  0  0  0  0  0  0  0
   44.4157    8.6612   -6.4747 O   0  0  0  0  0  0  0  0  0  0  0  0
   44.5810    3.4134   -2.4426 C   0  0  2  0  0  0  0  0  0  0  0  0
   44.1660    4.3274   -1.4161 N   0  0  0  0  0  0  0  0  0  0  0  0
   40.7585    3.9425   -5.0002 C   0  0  2  0  0  0  0  0  0  0  0  0
   39.6563    4.3280   -4.1921 O   0  0  0  0  0  0  0  0  0  0  0  0
   38.2810    4.2667   -0.6318 C   0  0  1  0  0  0  0  0  0  0  0  0
   38.7448    2.8968   -0.3569 O   0  0  0  0  0  0  0  0  0  0  0  0
   35.4144    1.6220   -8.9175 C   0  0  0  0  0  0  0  0  0  0  0  0
   45.1678    6.4600   -7.2932 C   0  0  2  0  0  0  0  0  0  0  0  0
   44.5144    6.6348   -8.6130 O   0  0  0  0  0  0  0  0  0  0  0  0
   43.7300    3.6667   -3.7545 C   0  0  2  0  0  0  0  0  0  0  0  0
   40.4776    4.0176   -6.5199 C   0  0  1  0  0  0  0  0  0  0  0  0
   39.3068    5.3692   -0.0170 C   0  0  2  0  0  0  0  0  0  0  0  0
   38.8497    6.7410   -0.2884 O   0  0  0  0  0  0  0  0  0  0  0  0
   36.6134    1.8605   -8.2016 C   0  0  0  0  0  0  0  0  0  0  0  0
   45.1748    4.9241   -6.9347 C   0  0  2  0  0  0  0  0  0  0  0  0
   45.8212    4.8197   -5.6362 O   0  0  0  0  0  0  0  0  0  0  0  0
   44.2195    2.6510   -4.8445 C   0  0  2  0  0  0  0  0  0  0  0  0
   43.4066    2.9743   -5.9661 O   0  0  0  0  0  0  0  0  0  0  0  0
   40.8358    5.3796   -7.1122 C   0  0  0  0  0  0  0  0  0  0  0  0
   40.8162    5.4529   -8.5177 O   0  0  0  0  0  0  0  0  0  0  0  0
   40.7589    5.1538   -0.6478 C   0  0  1  0  0  0  0  0  0  0  0  0
   40.6462    5.2460   -2.1556 O   0  0  0  0  0  0  0  0  0  0  0  0
   36.9002    1.0653   -6.9852 C   0  0  0  0  0  0  0  0  0  0  0  0
   45.9047    4.2152   -7.9981 C   0  0  0  0  0  0  0  0  0  0  0  0
   45.8192    2.8947   -7.7939 O   0  0  0  0  0  0  0  0  0  0  0  0
   44.0067    1.1569   -4.3550 C   0  0  1  0  0  0  0  0  0  0  0  0
   44.4545    0.2699   -5.3268 O   0  0  0  0  0  0  0  0  0  0  0  0
   39.2359    1.0252   -3.9699 C   0  0  0  0  0  0  0  0  0  0  0  0
   41.6884    6.2365   -0.0352 C   0  0  0  0  0  0  0  0  0  0  0  0
   41.3662    7.5391   -0.5626 N   0  0  0  0  0  0  0  0  0  0  0  0
   38.5639   -0.2380   -4.5175 C   0  0  0  0  0  0  0  0  0  0  0  0
   37.1012   -0.2063   -4.1914 N   0  0  0  0  0  0  0  0  0  0  0  0
   36.1662   -0.8736   -5.2356 C   0  0  0  0  0  0  0  0  0  0  0  0
  1  2  1  6  0  0  0
  1  9  1  0  0  0  0
  1 35  1  0  0  0  0
  3  4  1  1  0  0  0
  3 11  1  0  0  0  0
  3 45  1  0  0  0  0
  5  6  1  0  0  0  0
  5 12  1  0  0  0  0
  5 37  1  1  0  0  0
  6 30  1  0  0  0  0
  7 14  1  0  0  0  0
  7 41  1  0  0  0  0
  7 23  1  6  0  0  0
  8 16  2  0  0  0  0
  8 42  1  0  0  0  0
  9 10  1  1  0  0  0
  9 18  1  0  0  0  0
 11 20  1  0  0  0  0
 12 13  1  6  0  0  0
 12 22  1  0  0  0  0
 13 47  1  0  0  0  0
 14 15  1  1  0  0  0
 14 24  1  0  0  0  0
 16 17  1  0  0  0  0
 17 26  2  0  0  0  0
 18 19  1  6  0  0  0
 18 27  1  0  0  0  0
 20 21  1  1  0  0  0
 20 29  1  0  0  0  0
 22 23  1  1  0  0  0
 22 30  1  0  0  0  0
 24 25  1  6  0  0  0
 24 31  1  0  0  0  0
 26 33  1  0  0  0  0
 27 28  1  6  0  0  0
 27 34  1  0  0  0  0
 29  2  1  6  0  0  0
 29 36  1  0  0  0  0
 30 38  1  6  0  0  0
 31 32  1  6  0  0  0
 31 40  1  0  0  0  0
 33 42  2  0  0  0  0
 34 35  1  0  0  0  0
 34 43  1  6  0  0  0
 36 37  1  6  0  0  0
 36 45  1  0  0  0  0
 38 39  1  0  0  0  0
 40 41  1  0  0  0  0
 40 48  1  1  0  0  0
 43 44  1  0  0  0  0
 45 46  1  6  0  0  0
 47 50  1  0  0  0  0
 48 49  1  0  0  0  0
 50 51  1  0  0  0  0
 51 52  1  0  0  0  0
 52  8  1  0  0  0  0
M  END
>  <CHROM.1>
-177.05589461,167.98180052,-167.85254147,-172.69039886,177.44675287,53.45086528
59.92144327,53.70715371,-174.05708816,-85.71201286,-71.49325351,-149.09286607
147.24855870,-76.65511077,-155.18641515,41.41286764,3.62834834,-4.63895916
-0.25400240,-0.41397180,-1.98928870

>  <Name>
2be0_lig

>  <RI>
2.75444e+07

>  <Rbt.Current_Directory>
/home/itssahil/PROJECTS/Mol_Feturizer/New_Systems/rnas/2be0

>  <Rbt.Executable>
rbdock ($Id: //depot/dev/client3/rdock/2013.1/src/exe/rbdock.cxx#4 $)

>  <Rbt.Library>
libRbt.so (2013.1, Build901 2013/11/27)

>  <Rbt.Parameter_File>
/export/apps/rDock/src/rDock_2013.1_src/data/scripts/dock_solv.prm

>  <Rbt.Receptor>
prm/pocket_docking_5.prm

>  <SCORE>
-21.2166

>  <SCORE.INTER>
-4.45885

>  <SCORE.INTER.CONST>
1

>  <SCORE.INTER.POLAR>
-1.27365

>  <SCORE.INTER.ROT>
15

>  <SCORE.INTER.SOLV>
18.495

>  <SCORE.INTER.VDW>
-18.4921

>  <SCORE.INTER.norm>
-0.085747

>  <SCORE.INTRA>
-16.7719

>  <SCORE.INTRA.DIHEDRAL>
-37.4558

>  <SCORE.INTRA.DIHEDRAL.0>
47.8724

>  <SCORE.INTRA.POLAR>
0

>  <SCORE.INTRA.POLAR.0>
0

>  <SCORE.INTRA.REPUL>
0.0984882

>  <SCORE.INTRA.REPUL.0>
0

>  <SCORE.INTRA.SOLV>
0.763875

>  <SCORE.INTRA.SOLV.lig_0>
-115.677

>  <SCORE.INTRA.VDW>
1.0816

>  <SCORE.INTRA.VDW.0>
-7.4833

>  <SCORE.INTRA.norm>
-0.322537

>  <SCORE.RESTR>
0.0141148

>  <SCORE.RESTR.CAVITY>
0.0141148

>  <SCORE.RESTR.norm>
0.000271438

>  <SCORE.SYSTEM>
0

>  <SCORE.SYSTEM.CONST>
0

>  <SCORE.SYSTEM.DIHEDRAL>
0

>  <SCORE.SYSTEM.SOLV>
0

>  <SCORE.SYSTEM.norm>
0

>  <SCORE.heavy>
52

>  <SCORE.norm>
-0.408012

>  <RMSD>
4.903

$$$$
2be0_lig
 OpenBabel11021811423D
libRbt.so/2013.1/901 2013/11/27
 52 56  0  0  0  0  0  0  0  0999 V2000
   46.5815    5.4358   -6.3269 C   0  0  2  0  0  0  0  0  0  0  0  0
   46.0835    5.0215   -7.5772 O   0  0  0  0  0  0  0  0  0  0  0  0
   41.9611    4.0833   -8.8006 C   0  0  2  0  0  0  0  0  0  0  0  0
   40.6657    3.3540   -8.8980 N   0  0  0  0  0  0  0  0  0  0  0  0
   43.8851    4.7701   -4.8708 C   0  0  2  0  0  0  0  0  0  0  0  0
   42.5304    4.3515   -4.6061 O   0  0  0  0  0  0  0  0  0  0  0  0
   41.8510    6.4967   -1.0199 C   0  0  1  0  0  0  0  0  0  0  0  0
   43.6621   -0.5042   -3.3917 C   0  0  0  0  0  0  0  0  0  0  0  0
   47.8840    6.3199   -6.4930 C   0  0  2  0  0  0  0  0  0  0  0  0
   47.6112    7.4392   -7.3970 N   0  0  0  0  0  0  0  0  0  0  0  0
   43.1461    3.1035   -9.2298 C   0  0  0  0  0  0  0  0  0  0  0  0
   44.4279    5.3670   -3.5626 C   0  0  2  0  0  0  0  0  0  0  0  0
   44.9251    4.1719   -2.8130 O   0  0  0  0  0  0  0  0  0  0  0  0
   42.0672    7.3654    0.3365 C   0  0  2  0  0  0  0  0  0  0  0  0
   43.1515    6.7255    1.1492 N   0  0  0  0  0  0  0  0  0  0  0  0
   43.4538    0.3198   -4.5460 C   0  0  0  0  0  0  0  0  0  0  0  0
   42.2573    0.1871   -5.2982 N   0  0  0  0  0  0  0  0  0  0  0  0
   49.0890    5.4086   -7.0158 C   0  0  1  0  0  0  0  0  0  0  0  0
   50.2434    6.2205   -7.1651 O   0  0  0  0  0  0  0  0  0  0  0  0
   44.5890    3.8627   -9.1229 C   0  0  2  0  0  0  0  0  0  0  0  0
   45.6637    2.9923   -9.5088 N   0  0  0  0  0  0  0  0  0  0  0  0
   43.1545    6.0925   -3.0884 C   0  0  2  0  0  0  0  0  0  0  0  0
   43.1056    6.4846   -1.7245 O   0  0  0  0  0  0  0  0  0  0  0  0
   40.7186    7.3758    1.1178 C   0  0  1  0  0  0  0  0  0  0  0  0
   39.7398    8.0360    0.2383 O   0  0  0  0  0  0  0  0  0  0  0  0
   41.2301   -0.7409   -4.9637 C   0  0  0  0  0  0  0  0  0  0  0  0
   49.3185    4.2571   -5.9942 C   0  0  2  0  0  0  0  0  0  0  0  0
   50.4262    3.3722   -6.4288 O   0  0  0  0  0  0  0  0  0  0  0  0
   44.8217    4.3678   -7.6396 C   0  0  2  0  0  0  0  0  0  0  0  0
   42.0179    5.1285   -3.5042 C   0  0  1  0  0  0  0  0  0  0  0  0
   40.2644    5.8527    1.4640 C   0  0  2  0  0  0  0  0  0  0  0  0
   41.2384    5.1864    2.3425 O   0  0  0  0  0  0  0  0  0  0  0  0
   41.3795   -1.5811   -3.8329 C   0  0  0  0  0  0  0  0  0  0  0  0
   48.0108    3.3887   -5.8423 C   0  0  2  0  0  0  0  0  0  0  0  0
   46.9666    4.3089   -5.4204 O   0  0  0  0  0  0  0  0  0  0  0  0
   43.6290    5.3144   -7.2651 C   0  0  2  0  0  0  0  0  0  0  0  0
   43.9458    5.7123   -5.9367 O   0  0  0  0  0  0  0  0  0  0  0  0
   40.7839    5.8691   -4.0168 C   0  0  0  0  0  0  0  0  0  0  0  0
   40.1183    6.6668   -3.0672 O   0  0  0  0  0  0  0  0  0  0  0  0
   40.1111    5.0228    0.1073 C   0  0  1  0  0  0  0  0  0  0  0  0
   41.4270    5.0781   -0.6411 O   0  0  0  0  0  0  0  0  0  0  0  0
   42.6107   -1.4819   -3.0153 C   0  0  0  0  0  0  0  0  0  0  0  0
   48.2812    2.3341   -4.8520 C   0  0  0  0  0  0  0  0  0  0  0  0
   48.6037    2.8948   -3.6797 O   0  0  0  0  0  0  0  0  0  0  0  0
   42.2481    4.5375   -7.3498 C   0  0  1  0  0  0  0  0  0  0  0  0
   41.2011    5.3920   -7.0254 O   0  0  0  0  0  0  0  0  0  0  0  0
   44.1400    3.0444   -2.2575 C   0  0  0  0  0  0  0  0  0  0  0  0
   39.6890    3.5807    0.4993 C   0  0  0  0  0  0  0  0  0  0  0  0
   38.2523    3.4601    0.5187 N   0  0  0  0  0  0  0  0  0  0  0  0
   45.1352    2.0708   -1.6178 C   0  0  0  0  0  0  0  0  0  0  0  0
   45.6183    1.0999   -2.6525 N   0  0  0  0  0  0  0  0  0  0  0  0
   45.0246   -0.3315   -2.5588 C   0  0  0  0  0  0  0  0  0  0  0  0
  1  2  1  6  0  0  0
  1  9  1  0  0  0  0
  1 35  1  0  0  0  0
  3  4  1  1  0  0  0
  3 11  1  0  0  0  0
  3 45  1  0  0  0  0
  5  6  1  0  0  0  0
  5 12  1  0  0  0  0
  5 37  1  6  0  0  0
  6 30  1  0  0  0  0
  7 14  1  0  0  0  0
  7 41  1  0  0  0  0
  7 23  1  1  0  0  0
  8 16  2  0  0  0  0
  8 42  1  0  0  0  0
  9 10  1  6  0  0  0
  9 18  1  0  0  0  0
 11 20  1  0  0  0  0
 12 13  1  1  0  0  0
 12 22  1  0  0  0  0
 13 47  1  0  0  0  0
 14 15  1  1  0  0  0
 14 24  1  0  0  0  0
 16 17  1  0  0  0  0
 17 26  2  0  0  0  0
 18 19  1  1  0  0  0
 18 27  1  0  0  0  0
 20 21  1  1  0  0  0
 20 29  1  0  0  0  0
 22 23  1  1  0  0  0
 22 30  1  0  0  0  0
 24 25  1  6  0  0  0
 24 31  1  0  0  0  0
 26 33  1  0  0  0  0
 27 28  1  6  0  0  0
 27 34  1  0  0  0  0
 29  2  1  6  0  0  0
 29 36  1  0  0  0  0
 30 38  1  6  0  0  0
 31 32  1  1  0  0  0
 31 40  1  0  0  0  0
 33 42  2  0  0  0  0
 34 35  1  0  0  0  0
 34 43  1  1  0  0  0
 36 37  1  1  0  0  0
 36 45  1  0  0  0  0
 38 39  1  0  0  0  0
 40 41  1  0  0  0  0
 40 48  1  1  0  0  0
 43 44  1  0  0  0  0
 45 46  1  6  0  0  0
 47 50  1  0  0  0  0
 48 49  1  0  0  0  0
 50 51  1  0  0  0  0
 51 52  1  0  0  0  0
 52  8  1  0  0  0  0
M  END
>  <CHROM.1>
-171.77291027,-67.63374912,-164.46863231,-66.17591325,178.57059228,-147.16262420
-173.34236923,178.62956181,60.02676906,-69.08680554,91.54250530,-87.76180782
-104.91518838,88.94077081,28.30161362,43.84890779,4.17170934,-4.10184111
-0.59070521,0.63981191,0.68586691

>  <Name>
2be0_lig

>  <RI>
0

>  <Rbt.Current_Directory>
/home/itssahil/PROJECTS/Mol_Feturizer/New_Systems/rnas/2be0

>  <Rbt.Executable>
rbdock ($Id: //depot/dev/client3/rdock/2013.1/src/exe/rbdock.cxx#4 $)

>  <Rbt.Library>
libRbt.so (2013.1, Build901 2013/11/27)

>  <Rbt.Parameter_File>
/export/apps/rDock/src/rDock_2013.1_src/data/scripts/dock_solv.prm

>  <Rbt.Receptor>
prm/pocket_docking_4.prm

>  <SCORE>
-9.86563

>  <SCORE.INTER>
5.13492

>  <SCORE.INTER.CONST>
1

>  <SCORE.INTER.POLAR>
0

>  <SCORE.INTER.ROT>
15

>  <SCORE.INTER.SOLV>
14.5123

>  <SCORE.INTER.VDW>
-15.0141

>  <SCORE.INTER.norm>
0.0987484

>  <SCORE.INTRA>
-15.0168

>  <SCORE.INTRA.DIHEDRAL>
-33.1175

>  <SCORE.INTRA.DIHEDRAL.0>
47.8724

>  <SCORE.INTRA.POLAR>
0

>  <SCORE.INTRA.POLAR.0>
0

>  <SCORE.INTRA.REPUL>
0.0022327

>  <SCORE.INTRA.REPUL.0>
0

>  <SCORE.INTRA.SOLV>
-1.82628

>  <SCORE.INTRA.SOLV.lig_0>
-115.677

>  <SCORE.INTRA.VDW>
2.44397

>  <SCORE.INTRA.VDW.0>
-7.4833

>  <SCORE.INTRA.norm>
-0.288784

>  <SCORE.RESTR>
0.0162302

>  <SCORE.RESTR.CAVITY>
0.0162302

>  <SCORE.RESTR.norm>
0.000312119

>  <SCORE.SYSTEM>
0

>  <SCORE.SYSTEM.CONST>
0

>  <SCORE.SYSTEM.DIHEDRAL>
0

>  <SCORE.SYSTEM.SOLV>
0

>  <SCORE.SYSTEM.norm>
0

>  <SCORE.heavy>
52

>  <SCORE.norm>
-0.189724

>  <RMSD>
4.989

$$$$
2be0_lig
 OpenBabel11021811423D
libRbt.so/2013.1/901 2013/11/27
 52 56  0  0  0  0  0  0  0  0999 V2000
   44.5186    6.0246   -6.8563 C   0  0  2  0  0  0  0  0  0  0  0  0
   44.1088    5.6126   -8.1389 O   0  0  0  0  0  0  0  0  0  0  0  0
   41.1675    2.6190   -9.4649 C   0  0  2  0  0  0  0  0  0  0  0  0
   40.5144    1.2941   -9.6582 N   0  0  0  0  0  0  0  0  0  0  0  0
   42.0552    3.7579   -5.3982 C   0  0  2  0  0  0  0  0  0  0  0  0
   40.7011    3.3444   -5.1228 O   0  0  0  0  0  0  0  0  0  0  0  0
   40.1899    5.8138   -1.5212 C   0  0  1  0  0  0  0  0  0  0  0  0
   45.0103   -0.6718   -3.2100 C   0  0  0  0  0  0  0  0  0  0  0  0
   45.1695    7.4669   -6.8982 C   0  0  2  0  0  0  0  0  0  0  0  0
   44.2449    8.4097   -7.5312 N   0  0  0  0  0  0  0  0  0  0  0  0
   42.6584    2.5545  -10.0318 C   0  0  0  0  0  0  0  0  0  0  0  0
   42.6403    4.2700   -4.0724 C   0  0  2  0  0  0  0  0  0  0  0  0
   43.1370    3.0264   -3.4060 O   0  0  0  0  0  0  0  0  0  0  0  0
   39.8538    7.2363   -2.2316 C   0  0  2  0  0  0  0  0  0  0  0  0
   41.0195    8.1577   -2.0371 N   0  0  0  0  0  0  0  0  0  0  0  0
   45.3630   -0.6597   -4.5994 C   0  0  0  0  0  0  0  0  0  0  0  0
   44.5414   -1.3350   -5.5395 N   0  0  0  0  0  0  0  0  0  0  0  0
   46.5727    7.4012   -7.6616 C   0  0  1  0  0  0  0  0  0  0  0  0
   47.1353    8.7037   -7.6948 O   0  0  0  0  0  0  0  0  0  0  0  0
   43.4160    3.9875   -9.8255 C   0  0  2  0  0  0  0  0  0  0  0  0
   44.7581    3.9433  -10.3336 N   0  0  0  0  0  0  0  0  0  0  0  0
   41.3911    4.9853   -3.5242 C   0  0  2  0  0  0  0  0  0  0  0  0
   41.3828    5.2984   -2.1392 O   0  0  0  0  0  0  0  0  0  0  0  0
   38.5701    7.8137   -1.5623 C   0  0  1  0  0  0  0  0  0  0  0  0
   37.4961    6.8427   -1.8288 O   0  0  0  0  0  0  0  0  0  0  0  0
   43.3608   -2.0412   -5.1711 C   0  0  0  0  0  0  0  0  0  0  0  0
   47.4940    6.3909   -6.9183 C   0  0  2  0  0  0  0  0  0  0  0  0
   48.8143    6.2835   -7.5850 O   0  0  0  0  0  0  0  0  0  0  0  0
   43.4431    4.3643   -8.2871 C   0  0  2  0  0  0  0  0  0  0  0  0
   40.2290    4.0636   -3.9650 C   0  0  1  0  0  0  0  0  0  0  0  0
   38.8114    7.9996    0.0355 C   0  0  2  0  0  0  0  0  0  0  0  0
   39.8840    8.9686    0.3094 O   0  0  0  0  0  0  0  0  0  0  0  0
   42.9612   -2.0871   -3.8127 C   0  0  0  0  0  0  0  0  0  0  0  0
   46.8287    4.9612   -6.8866 C   0  0  2  0  0  0  0  0  0  0  0  0
   45.5435    5.1330   -6.2281 O   0  0  0  0  0  0  0  0  0  0  0  0
   41.9601    4.4036   -7.7790 C   0  0  2  0  0  0  0  0  0  0  0  0
   42.1041    4.7593   -6.4093 O   0  0  0  0  0  0  0  0  0  0  0  0
   38.9945    4.8505   -4.4018 C   0  0  0  0  0  0  0  0  0  0  0  0
   39.2219    5.8448   -5.3718 O   0  0  0  0  0  0  0  0  0  0  0  0
   39.1861    6.5882    0.6840 C   0  0  1  0  0  0  0  0  0  0  0  0
   40.4079    6.0425   -0.0259 O   0  0  0  0  0  0  0  0  0  0  0  0
   43.7855   -1.3987   -2.7924 C   0  0  0  0  0  0  0  0  0  0  0  0
   47.7323    4.0584   -6.1556 C   0  0  0  0  0  0  0  0  0  0  0  0
   47.2280    2.8181   -6.1657 O   0  0  0  0  0  0  0  0  0  0  0  0
   41.2653    2.9895   -7.9661 C   0  0  1  0  0  0  0  0  0  0  0  0
   39.9497    3.0436   -7.5211 O   0  0  0  0  0  0  0  0  0  0  0  0
   44.0366    2.9092   -2.2342 C   0  0  0  0  0  0  0  0  0  0  0  0
   39.4150    6.8289    2.2010 C   0  0  0  0  0  0  0  0  0  0  0  0
   39.6399    5.5795    2.8846 N   0  0  0  0  0  0  0  0  0  0  0  0
   43.8489    1.5021   -1.6577 C   0  0  0  0  0  0  0  0  0  0  0  0
   45.1669    0.9846   -1.1660 N   0  0  0  0  0  0  0  0  0  0  0  0
   45.9577    0.1019   -2.1688 C   0  0  0  0  0  0  0  0  0  0  0  0
  1  2  1  6  0  0  0
  1  9  1  0  0  0  0
  1 35  1  0  0  0  0
  3  4  1  1  0  0  0
  3 11  1  0  0  0  0
  3 45  1  0  0  0  0
  5  6  1  0  0  0  0
  5 12  1  0  0  0  0
  5 37  1  6  0  0  0
  6 30  1  0  0  0  0
  7 14  1  0  0  0  0
  7 41  1  0  0  0  0
  7 23  1  6  0  0  0
  8 16  2  0  0  0  0
  8 42  1  0  0  0  0
  9 10  1  6  0  0  0
  9 18  1  0  0  0  0
 11 20  1  0  0  0  0
 12 13  1  1  0  0  0
 12 22  1  0  0  0  0
 13 47  1  0  0  0  0
 14 15  1  1  0  0  0
 14 24  1  0  0  0  0
 16 17  1  0  0  0  0
 17 26  2  0  0  0  0
 18 19  1  1  0  0  0
 18 27  1  0  0  0  0
 20 21  1  1  0  0  0
 20 29  1  0  0  0  0
 22 23  1  1  0  0  0
 22 30  1  0  0  0  0
 24 25  1  1  0  0  0
 24 31  1  0  0  0  0
 26 33  1  0  0  0  0
 27 28  1  6  0  0  0
 27 34  1  0  0  0  0
 29  2  1  6  0  0  0
 29 36  1  0  0  0  0
 30 38  1  6  0  0  0
 31 32  1  6  0  0  0
 31 40  1  0  0  0  0
 33 42  2  0  0  0  0
 34 35  1  0  0  0  0
 34 43  1  1  0  0  0
 36 37  1  1  0  0  0
 36 45  1  0  0  0  0
 38 39  1  0  0  0  0
 40 41  1  0  0  0  0
 40 48  1  1  0  0  0
 43 44  1  0  0  0  0
 45 46  1  6  0  0  0
 47 50  1  0  0  0  0
 48 49  1  0  0  0  0
 50 51  1  0  0  0  0
 51 52  1  0  0  0  0
 52  8  1  0  0  0  0
M  END
>  <CHROM.1>
-177.08103018,-77.82857353,-62.46555755,166.47974213,160.59927397,-172.27457503
-166.29729180,-63.93476594,-177.01396583,-99.06744263,174.79497177,143.27624599
-94.91114805,-27.69975857,133.78681203,42.78033807,4.32457054,-4.70516109
0.02049369,0.95029530,-0.41936312

>  <Name>
2be0_lig

>  <RI>
2.75444e+07

>  <Rbt.Current_Directory>
/home/itssahil/PROJECTS/Mol_Feturizer/New_Systems/rnas/2be0

>  <Rbt.Executable>
rbdock ($Id: //depot/dev/client3/rdock/2013.1/src/exe/rbdock.cxx#4 $)

>  <Rbt.Library>
libRbt.so (2013.1, Build901 2013/11/27)

>  <Rbt.Parameter_File>
/export/apps/rDock/src/rDock_2013.1_src/data/scripts/dock_solv.prm

>  <Rbt.Receptor>
prm/pocket_docking_5.prm

>  <SCORE>
-19.2815

>  <SCORE.INTER>
-5.39074

>  <SCORE.INTER.CONST>
1

>  <SCORE.INTER.POLAR>
0

>  <SCORE.INTER.ROT>
15

>  <SCORE.INTER.SOLV>
13.969

>  <SCORE.INTER.VDW>
-21.8502

>  <SCORE.INTER.norm>
-0.103668

>  <SCORE.INTRA>
-13.8908

>  <SCORE.INTRA.DIHEDRAL>
-30.9355

>  <SCORE.INTRA.DIHEDRAL.0>
47.8724

>  <SCORE.INTRA.POLAR>
0

>  <SCORE.INTRA.POLAR.0>
0

>  <SCORE.INTRA.REPUL>
0

>  <SCORE.INTRA.REPUL.0>
0

>  <SCORE.INTRA.SOLV>
-3.21625

>  <SCORE.INTRA.SOLV.lig_0>
-115.677

>  <SCORE.INTRA.VDW>
3.18508

>  <SCORE.INTRA.VDW.0>
-7.4833

>  <SCORE.INTRA.norm>
-0.267131

>  <SCORE.RESTR>
0

>  <SCORE.RESTR.CAVITY>
0

>  <SCORE.RESTR.norm>
0

>  <SCORE.SYSTEM>
0

>  <SCORE.SYSTEM.CONST>
0

>  <SCORE.SYSTEM.DIHEDRAL>
0

>  <SCORE.SYSTEM.SOLV>
0

>  <SCORE.SYSTEM.norm>
0

>  <SCORE.heavy>
52

>  <SCORE.norm>
-0.370799

>  <RMSD>
5.010

$$$$
2be0_lig
 OpenBabel11021811423D
libRbt.so/2013.1/901 2013/11/27
 52 56  0  0  0  0  0  0  0  0999 V2000
   44.0427    5.2114   -5.9679 C   0  0  2  0  0  0  0  0  0  0  0  0
   43.2853    4.8292   -7.0918 O   0  0  0  0  0  0  0  0  0  0  0  0
   40.1154    1.7965   -7.4462 C   0  0  2  0  0  0  0  0  0  0  0  0
   39.4647    0.4576   -7.5039 N   0  0  0  0  0  0  0  0  0  0  0  0
   41.4293    4.0123   -3.6294 C   0  0  2  0  0  0  0  0  0  0  0  0
   40.5798    5.1625   -3.8188 O   0  0  0  0  0  0  0  0  0  0  0  0
   42.3716    7.6774   -1.1400 C   0  0  1  0  0  0  0  0  0  0  0  0
   44.2963    1.1330   -2.7000 C   0  0  0  0  0  0  0  0  0  0  0  0
   44.7504    6.6080   -6.2015 C   0  0  2  0  0  0  0  0  0  0  0  0
   43.7540    7.6103   -6.5850 N   0  0  0  0  0  0  0  0  0  0  0  0
   41.2516    1.8740   -8.5648 C   0  0  0  0  0  0  0  0  0  0  0  0
   42.3638    4.3405   -2.4541 C   0  0  2  0  0  0  0  0  0  0  0  0
   41.5579    3.9651   -1.2513 O   0  0  0  0  0  0  0  0  0  0  0  0
   43.3093    8.4364   -0.0510 C   0  0  2  0  0  0  0  0  0  0  0  0
   43.7484    7.4422    0.9808 N   0  0  0  0  0  0  0  0  0  0  0  0
   43.0634    0.4200   -2.5374 C   0  0  0  0  0  0  0  0  0  0  0  0
   42.3919   -0.0928   -3.6780 N   0  0  0  0  0  0  0  0  0  0  0  0
   45.8968    6.4516   -7.3047 C   0  0  1  0  0  0  0  0  0  0  0  0
   46.5128    7.7144   -7.5046 O   0  0  0  0  0  0  0  0  0  0  0  0
   42.0012    3.3254   -8.5254 C   0  0  2  0  0  0  0  0  0  0  0  0
   43.0246    3.4088   -9.5289 N   0  0  0  0  0  0  0  0  0  0  0  0
   42.6241    5.8260   -2.7679 C   0  0  2  0  0  0  0  0  0  0  0  0
   43.1590    6.6223   -1.7208 O   0  0  0  0  0  0  0  0  0  0  0  0
   42.4644    9.5746    0.5969 C   0  0  1  0  0  0  0  0  0  0  0  0
   42.1053   10.4925   -0.4966 O   0  0  0  0  0  0  0  0  0  0  0  0
   42.8845    0.0667   -5.0047 C   0  0  0  0  0  0  0  0  0  0  0  0
   46.9147    5.3818   -6.8130 C   0  0  2  0  0  0  0  0  0  0  0  0
   48.0041    5.1891   -7.8005 O   0  0  0  0  0  0  0  0  0  0  0  0
   42.6399    3.5616   -7.0951 C   0  0  2  0  0  0  0  0  0  0  0  0
   41.2586    6.3240   -3.2985 C   0  0  1  0  0  0  0  0  0  0  0  0
   41.1372    8.9507    1.3006 C   0  0  2  0  0  0  0  0  0  0  0  0
   41.4885    8.0318    2.3945 O   0  0  0  0  0  0  0  0  0  0  0  0
   44.0988    0.7615   -5.2274 C   0  0  0  0  0  0  0  0  0  0  0  0
   46.1913    3.9988   -6.5856 C   0  0  2  0  0  0  0  0  0  0  0  0
   45.1376    4.2535   -5.6162 O   0  0  0  0  0  0  0  0  0  0  0  0
   41.4876    3.4648   -6.0359 C   0  0  2  0  0  0  0  0  0  0  0  0
   42.1655    3.7023   -4.8082 O   0  0  0  0  0  0  0  0  0  0  0  0
   41.4075    7.3092   -4.4566 C   0  0  0  0  0  0  0  0  0  0  0  0
   40.2364    7.5537   -5.1982 O   0  0  0  0  0  0  0  0  0  0  0  0
   40.2709    8.1737    0.2057 C   0  0  1  0  0  0  0  0  0  0  0  0
   41.1424    7.1105   -0.4305 O   0  0  0  0  0  0  0  0  0  0  0  0
   44.8376    1.3168   -4.0697 C   0  0  0  0  0  0  0  0  0  0  0  0
   47.1957    3.0375   -6.1028 C   0  0  0  0  0  0  0  0  0  0  0  0
   47.6271    3.4131   -4.8922 O   0  0  0  0  0  0  0  0  0  0  0  0
   40.8029    2.0342   -6.0808 C   0  0  1  0  0  0  0  0  0  0  0  0
   39.7781    1.9679   -5.1444 O   0  0  0  0  0  0  0  0  0  0  0  0
   42.0402    3.6321    0.1099 C   0  0  0  0  0  0  0  0  0  0  0  0
   39.0285    7.5929    0.9342 C   0  0  0  0  0  0  0  0  0  0  0  0
   38.1252    6.9840   -0.0103 N   0  0  0  0  0  0  0  0  0  0  0  0
   42.9671    2.4193   -0.0219 C   0  0  0  0  0  0  0  0  0  0  0  0
   44.2426    2.8364   -0.6895 N   0  0  0  0  0  0  0  0  0  0  0  0
   45.0351    1.7009   -1.3916 C   0  0  0  0  0  0  0  0  0  0  0  0
  1  2  1  6  0  0  0
  1  9  1  0  0  0  0
  1 35  1  0  0  0  0
  3  4  1  1  0  0  0
  3 11  1  0  0  0  0
  3 45  1  0  0  0  0
  5  6  1  0  0  0  0
  5 12  1  0  0  0  0
  5 37  1  6  0  0  0
  6 30  1  0  0  0  0
  7 14  1  0  0  0  0
  7 41  1  0  0  0  0
  7 23  1  1  0  0  0
  8 16  2  0  0  0  0
  8 42  1  0  0  0  0
  9 10  1  6  0  0  0
  9 18  1  0  0  0  0
 11 20  1  0  0  0  0
 12 13  1  1  0  0  0
 12 22  1  0  0  0  0
 13 47  1  0  0  0  0
 14 15  1  1  0  0  0
 14 24  1  0  0  0  0
 16 17  1  0  0  0  0
 17 26  2  0  0  0  0
 18 19  1  1  0  0  0
 18 27  1  0  0  0  0
 20 21  1  6  0  0  0
 20 29  1  0  0  0  0
 22 23  1  1  0  0  0
 22 30  1  0  0  0  0
 24 25  1  6  0  0  0
 24 31  1  0  0  0  0
 26 33  1  0  0  0  0
 27 28  1  6  0  0  0
 27 34  1  0  0  0  0
 29  2  1  6  0  0  0
 29 36  1  0  0  0  0
 30 38  1  6  0  0  0
 31 32  1  1  0  0  0
 31 40  1  0  0  0  0
 33 42  2  0  0  0  0
 34 35  1  0  0  0  0
 34 43  1  1  0  0  0
 36 37  1  1  0  0  0
 36 45  1  0  0  0  0
 38 39  1  0  0  0  0
 40 41  1  0  0  0  0
 40 48  1  1  0  0  0
 43 44  1  0  0  0  0
 45 46  1  1  0  0  0
 47 50  1  0  0  0  0
 48 49  1  0  0  0  0
 50 51  1  0  0  0  0
 51 52  1  0  0  0  0
 52  8  1  0  0  0  0
M  END
>  <CHROM.1>
176.34660316,-56.12628909,-176.51827278,157.96446351,-59.57556132,-113.25977240
-173.83795510,48.92575232,65.94412560,165.07541719,174.44679757,71.01519149
-157.00879100,69.05500991,-67.09071870,42.84257902,4.76159346,-3.81296181
-1.13648057,0.84590342,0.64852565

>  <Name>
2be0_lig

>  <RI>
2.10017e+07

>  <Rbt.Current_Directory>
/home/itssahil/PROJECTS/Mol_Feturizer/New_Systems/rnas/2be0

>  <Rbt.Executable>
rbdock ($Id: //depot/dev/client3/rdock/2013.1/src/exe/rbdock.cxx#4 $)

>  <Rbt.Library>
libRbt.so (2013.1, Build901 2013/11/27)

>  <Rbt.Parameter_File>
/export/apps/rDock/src/rDock_2013.1_src/data/scripts/dock_solv.prm

>  <Rbt.Receptor>
prm/pocket_docking_3.prm

>  <SCORE>
-10.472

>  <SCORE.INTER>
7.62935

>  <SCORE.INTER.CONST>
1

>  <SCORE.INTER.POLAR>
0

>  <SCORE.INTER.ROT>
15

>  <SCORE.INTER.SOLV>
12.8691

>  <SCORE.INTER.VDW>
-12.8035

>  <SCORE.INTER.norm>
0.146718

>  <SCORE.INTRA>
-19.3259

>  <SCORE.INTRA.DIHEDRAL>
-34.825

>  <SCORE.INTRA.DIHEDRAL.0>
47.8724

>  <SCORE.INTRA.POLAR>
0

>  <SCORE.INTRA.POLAR.0>
0

>  <SCORE.INTRA.REPUL>
0

>  <SCORE.INTRA.REPUL.0>
0

>  <SCORE.INTRA.SOLV>
0.450979

>  <SCORE.INTRA.SOLV.lig_0>
-115.677

>  <SCORE.INTRA.VDW>
-2.13887

>  <SCORE.INTRA.VDW.0>
-7.4833

>  <SCORE.INTRA.norm>
-0.371651

>  <SCORE.RESTR>
1.2245

>  <SCORE.RESTR.CAVITY>
1.2245

>  <SCORE.RESTR.norm>
0.0235482

>  <SCORE.SYSTEM>
0

>  <SCORE.SYSTEM.CONST>
0

>  <SCORE.SYSTEM.DIHEDRAL>
0

>  <SCORE.SYSTEM.SOLV>
0

>  <SCORE.SYSTEM.norm>
0

>  <SCORE.heavy>
52

>  <SCORE.norm>
-0.201385

>  <RMSD>
5.056

$$$$
2be0_lig
 OpenBabel11021811423D
libRbt.so/2013.1/901 2013/11/27
 52 56  0  0  0  0  0  0  0  0999 V2000
   45.3512    5.2419   -8.6639 C   0  0  2  0  0  0  0  0  0  0  0  0
   45.5904    4.2219   -7.7231 O   0  0  0  0  0  0  0  0  0  0  0  0
   44.0568    0.7655   -9.9753 C   0  0  2  0  0  0  0  0  0  0  0  0
   43.8083   -0.6529  -10.3572 N   0  0  0  0  0  0  0  0  0  0  0  0
   41.8856    2.9789   -6.6208 C   0  0  2  0  0  0  0  0  0  0  0  0
   41.5299    4.1843   -5.9130 O   0  0  0  0  0  0  0  0  0  0  0  0
   41.5797    2.1347   -1.9075 C   0  0  1  0  0  0  0  0  0  0  0  0
   35.5815    0.5158   -8.5824 C   0  0  0  0  0  0  0  0  0  0  0  0
   45.7413    6.6614   -8.0822 C   0  0  2  0  0  0  0  0  0  0  0  0
   47.1261    6.6383   -7.6064 N   0  0  0  0  0  0  0  0  0  0  0  0
   45.6312    1.0221   -9.9135 C   0  0  0  0  0  0  0  0  0  0  0  0
   41.4214    1.8005   -5.7500 C   0  0  2  0  0  0  0  0  0  0  0  0
   39.9869    1.6246   -6.1357 O   0  0  0  0  0  0  0  0  0  0  0  0
   40.9967    1.0108   -0.8886 C   0  0  2  0  0  0  0  0  0  0  0  0
   39.5051    0.9655   -1.0257 N   0  0  0  0  0  0  0  0  0  0  0  0
   35.6466   -0.5379   -9.5521 C   0  0  0  0  0  0  0  0  0  0  0  0
   35.2714   -0.2803  -10.8967 N   0  0  0  0  0  0  0  0  0  0  0  0
   44.7174    7.0672   -6.9234 C   0  0  1  0  0  0  0  0  0  0  0  0
   45.0887    8.3375   -6.4109 O   0  0  0  0  0  0  0  0  0  0  0  0
   45.9471    2.5664   -9.4831 C   0  0  2  0  0  0  0  0  0  0  0  0
   47.3607    2.8108   -9.4260 N   0  0  0  0  0  0  0  0  0  0  0  0
   41.7768    2.3760   -4.3660 C   0  0  2  0  0  0  0  0  0  0  0  0
   41.1801    1.7553   -3.2368 O   0  0  0  0  0  0  0  0  0  0  0  0
   41.4106    1.4162    0.5583 C   0  0  1  0  0  0  0  0  0  0  0  0
   42.8826    1.4122    0.5805 O   0  0  0  0  0  0  0  0  0  0  0  0
   34.8221    0.9942  -11.3457 C   0  0  0  0  0  0  0  0  0  0  0  0
   43.2784    7.0797   -7.5161 C   0  0  2  0  0  0  0  0  0  0  0  0
   42.2798    7.4469   -6.4831 O   0  0  0  0  0  0  0  0  0  0  0  0
   45.2978    2.8741   -8.0712 C   0  0  2  0  0  0  0  0  0  0  0  0
   41.4382    3.8793   -4.5062 C   0  0  1  0  0  0  0  0  0  0  0  0
   40.8213    2.8903    0.9130 C   0  0  2  0  0  0  0  0  0  0  0  0
   39.3503    2.9020    0.8923 O   0  0  0  0  0  0  0  0  0  0  0  0
   34.7380    2.0743  -10.4328 C   0  0  0  0  0  0  0  0  0  0  0  0
   42.9085    5.6581   -8.0906 C   0  0  2  0  0  0  0  0  0  0  0  0
   43.9208    5.3551   -9.0898 O   0  0  0  0  0  0  0  0  0  0  0  0
   43.7584    2.5970   -8.1831 C   0  0  2  0  0  0  0  0  0  0  0  0
   43.2842    2.9144   -6.8802 O   0  0  0  0  0  0  0  0  0  0  0  0
   42.4484    4.7736   -3.7894 C   0  0  0  0  0  0  0  0  0  0  0  0
   43.7824    4.6468   -4.2204 O   0  0  0  0  0  0  0  0  0  0  0  0
   41.3804    3.9535   -0.1404 C   0  0  1  0  0  0  0  0  0  0  0  0
   40.9971    3.4971   -1.5331 O   0  0  0  0  0  0  0  0  0  0  0  0
   35.1176    1.8569   -9.0176 C   0  0  0  0  0  0  0  0  0  0  0  0
   41.5512    5.7376   -8.6540 C   0  0  0  0  0  0  0  0  0  0  0  0
   41.2325    4.5653   -9.2171 O   0  0  0  0  0  0  0  0  0  0  0  0
   43.4878    1.0827   -8.5721 C   0  0  1  0  0  0  0  0  0  0  0  0
   42.1207    0.8559   -8.6774 O   0  0  0  0  0  0  0  0  0  0  0  0
   38.8266    2.4696   -5.7667 C   0  0  0  0  0  0  0  0  0  0  0  0
   40.7782    5.3334    0.2399 C   0  0  0  0  0  0  0  0  0  0  0  0
   41.3687    6.3813   -0.5552 N   0  0  0  0  0  0  0  0  0  0  0  0
   37.6920    2.1308   -6.7390 C   0  0  0  0  0  0  0  0  0  0  0  0
   37.4615    0.6498   -6.7400 N   0  0  0  0  0  0  0  0  0  0  0  0
   36.0135    0.1962   -7.0686 C   0  0  0  0  0  0  0  0  0  0  0  0
  1  2  1  1  0  0  0
  1  9  1  0  0  0  0
  1 35  1  0  0  0  0
  3  4  1  1  0  0  0
  3 11  1  0  0  0  0
  3 45  1  0  0  0  0
  5  6  1  0  0  0  0
  5 12  1  0  0  0  0
  5 37  1  1  0  0  0
  6 30  1  0  0  0  0
  7 14  1  0  0  0  0
  7 41  1  0  0  0  0
  7 23  1  6  0  0  0
  8 16  2  0  0  0  0
  8 42  1  0  0  0  0
  9 10  1  1  0  0  0
  9 18  1  0  0  0  0
 11 20  1  0  0  0  0
 12 13  1  1  0  0  0
 12 22  1  0  0  0  0
 13 47  1  0  0  0  0
 14 15  1  1  0  0  0
 14 24  1  0  0  0  0
 16 17  1  0  0  0  0
 17 26  2  0  0  0  0
 18 19  1  6  0  0  0
 18 27  1  0  0  0  0
 20 21  1  1  0  0  0
 20 29  1  0  0  0  0
 22 23  1  1  0  0  0
 22 30  1  0  0  0  0
 24 25  1  6  0  0  0
 24 31  1  0  0  0  0
 26 33  1  0  0  0  0
 27 28  1  1  0  0  0
 27 34  1  0  0  0  0
 29  2  1  6  0  0  0
 29 36  1  0  0  0  0
 30 38  1  1  0  0  0
 31 32  1  6  0  0  0
 31 40  1  0  0  0  0
 33 42  2  0  0  0  0
 34 35  1  0  0  0  0
 34 43  1  6  0  0  0
 36 37  1  1  0  0  0
 36 45  1  0  0  0  0
 38 39  1  0  0  0  0
 40 41  1  0  0  0  0
 40 48  1  1  0  0  0
 43 44  1  0  0  0  0
 45 46  1  6  0  0  0
 47 50  1  0  0  0  0
 48 49  1  0  0  0  0
 50 51  1  0  0  0  0
 51 52  1  0  0  0  0
 52  8  1  0  0  0  0
M  END
>  <CHROM.1>
179.99183364,-131.51574955,-166.37593269,-74.46745699,162.87612903,172.87798005
49.25124807,-57.38310316,176.64478772,170.80031104,172.51892710,53.04648143
151.28024200,66.99844079,99.10207736,41.60692823,3.13200932,-6.06037725,-1.74818506
0.46777486,1.47275926

>  <Name>
2be0_lig

>  <RI>
0

>  <Rbt.Current_Directory>
/home/itssahil/PROJECTS/Mol_Feturizer/New_Systems/rnas/2be0

>  <Rbt.Executable>
rbdock ($Id: //depot/dev/client3/rdock/2013.1/src/exe/rbdock.cxx#4 $)

>  <Rbt.Library>
libRbt.so (2013.1, Build901 2013/11/27)

>  <Rbt.Parameter_File>
/export/apps/rDock/src/rDock_2013.1_src/data/scripts/dock_solv.prm

>  <Rbt.Receptor>
prm/pocket_docking_7.prm

>  <SCORE>
-21.1289

>  <SCORE.INTER>
-3.26461

>  <SCORE.INTER.CONST>
1

>  <SCORE.INTER.POLAR>
-0.959166

>  <SCORE.INTER.ROT>
15

>  <SCORE.INTER.SOLV>
9.20149

>  <SCORE.INTER.VDW>
-15.6463

>  <SCORE.INTER.norm>
-0.062781

>  <SCORE.INTRA>
-17.8643

>  <SCORE.INTRA.DIHEDRAL>
-34.7399

>  <SCORE.INTRA.DIHEDRAL.0>
47.8724

>  <SCORE.INTRA.POLAR>
0

>  <SCORE.INTRA.POLAR.0>
0

>  <SCORE.INTRA.REPUL>
0.0943311

>  <SCORE.INTRA.REPUL.0>
0

>  <SCORE.INTRA.SOLV>
-0.694411

>  <SCORE.INTRA.SOLV.lig_0>
-115.677

>  <SCORE.INTRA.VDW>
-0.618812

>  <SCORE.INTRA.VDW.0>
-7.4833

>  <SCORE.INTRA.norm>
-0.343544

>  <SCORE.RESTR>
0

>  <SCORE.RESTR.CAVITY>
0

>  <SCORE.RESTR.norm>
0

>  <SCORE.SYSTEM>
0

>  <SCORE.SYSTEM.CONST>
0

>  <SCORE.SYSTEM.DIHEDRAL>
0

>  <SCORE.SYSTEM.SOLV>
0

>  <SCORE.SYSTEM.norm>
0

>  <SCORE.heavy>
52

>  <SCORE.norm>
-0.406325

>  <RMSD>
5.146

$$$$
2be0_lig
 OpenBabel11021811423D
libRbt.so/2013.1/901 2013/11/27
 52 56  0  0  0  0  0  0  0  0999 V2000
   45.2549    3.9074   -4.6607 C   0  0  2  0  0  0  0  0  0  0  0  0
   44.0551    3.8620   -5.3964 O   0  0  0  0  0  0  0  0  0  0  0  0
   44.6314    7.3023   -8.0803 C   0  0  2  0  0  0  0  0  0  0  0  0
   44.3152    8.3638   -9.0766 N   0  0  0  0  0  0  0  0  0  0  0  0
   41.9360    6.3204   -4.6315 C   0  0  2  0  0  0  0  0  0  0  0  0
   41.2984    7.5894   -4.3801 O   0  0  0  0  0  0  0  0  0  0  0  0
   40.7521    6.4607    0.0284 C   0  0  1  0  0  0  0  0  0  0  0  0
   41.8652   -0.4164   -4.1716 C   0  0  0  0  0  0  0  0  0  0  0  0
   45.5966    2.4948   -4.0335 C   0  0  2  0  0  0  0  0  0  0  0  0
   45.6114    1.4761   -5.0855 N   0  0  0  0  0  0  0  0  0  0  0  0
   44.2705    5.8772   -8.7026 C   0  0  0  0  0  0  0  0  0  0  0  0
   41.3905    5.3355   -3.5852 C   0  0  2  0  0  0  0  0  0  0  0  0
   40.1208    4.8392   -4.2008 O   0  0  0  0  0  0  0  0  0  0  0  0
   40.9154    5.2390    1.0877 C   0  0  2  0  0  0  0  0  0  0  0  0
   39.6717    4.4037    1.0531 N   0  0  0  0  0  0  0  0  0  0  0  0
   41.3968   -1.3779   -5.1260 C   0  0  0  0  0  0  0  0  0  0  0  0
   41.1137   -2.7043   -4.7070 N   0  0  0  0  0  0  0  0  0  0  0  0
   44.5436    2.1495   -2.8812 C   0  0  1  0  0  0  0  0  0  0  0  0
   44.8625    0.8778   -2.3379 O   0  0  0  0  0  0  0  0  0  0  0  0
   44.5901    4.6837   -7.6334 C   0  0  2  0  0  0  0  0  0  0  0  0
   44.2717    3.3958   -8.1822 N   0  0  0  0  0  0  0  0  0  0  0  0
   41.3337    6.2858   -2.3742 C   0  0  2  0  0  0  0  0  0  0  0  0
   40.5412    5.8761   -1.2694 O   0  0  0  0  0  0  0  0  0  0  0  0
   41.1312    5.8577    2.5018 C   0  0  1  0  0  0  0  0  0  0  0  0
   42.3781    6.6364    2.4232 O   0  0  0  0  0  0  0  0  0  0  0  0
   41.2743   -3.1434   -3.3618 C   0  0  0  0  0  0  0  0  0  0  0  0
   44.6029    3.2712   -1.8039 C   0  0  2  0  0  0  0  0  0  0  0  0
   43.6412    3.0072   -0.7064 O   0  0  0  0  0  0  0  0  0  0  0  0
   43.7582    4.9151   -6.3053 C   0  0  2  0  0  0  0  0  0  0  0  0
   40.8924    7.6319   -2.9966 C   0  0  1  0  0  0  0  0  0  0  0  0
   39.8691    6.8067    2.8923 C   0  0  2  0  0  0  0  0  0  0  0  0
   38.6190    6.0350    2.9723 O   0  0  0  0  0  0  0  0  0  0  0  0
   41.7331   -2.2374   -2.3741 C   0  0  0  0  0  0  0  0  0  0  0  0
   44.2604    4.6697   -2.4475 C   0  0  2  0  0  0  0  0  0  0  0  0
   45.2302    4.8677   -3.5129 O   0  0  0  0  0  0  0  0  0  0  0  0
   44.1405    6.3280   -5.7426 C   0  0  2  0  0  0  0  0  0  0  0  0
   43.3546    6.4212   -4.5607 O   0  0  0  0  0  0  0  0  0  0  0  0
   41.6000    8.8276   -2.3610 C   0  0  0  0  0  0  0  0  0  0  0  0
   41.5306   10.0299   -3.0897 O   0  0  0  0  0  0  0  0  0  0  0  0
   39.7159    7.9629    1.8003 C   0  0  1  0  0  0  0  0  0  0  0  0
   39.5561    7.3194    0.4383 O   0  0  0  0  0  0  0  0  0  0  0  0
   42.0433   -0.8415   -2.7607 C   0  0  0  0  0  0  0  0  0  0  0  0
   44.3532    5.6889   -1.3898 C   0  0  0  0  0  0  0  0  0  0  0  0
   44.1203    6.8986   -1.9141 O   0  0  0  0  0  0  0  0  0  0  0  0
   43.7890    7.4641   -6.7929 C   0  0  1  0  0  0  0  0  0  0  0  0
   44.1430    8.7080   -6.2840 O   0  0  0  0  0  0  0  0  0  0  0  0
   39.9198    3.6444   -5.0542 C   0  0  0  0  0  0  0  0  0  0  0  0
   38.4944    8.8263    2.2175 C   0  0  0  0  0  0  0  0  0  0  0  0
   38.4018   10.0060    1.3937 N   0  0  0  0  0  0  0  0  0  0  0  0
   40.0312    2.4152   -4.1465 C   0  0  0  0  0  0  0  0  0  0  0  0
   41.4725    2.1659   -3.8191 N   0  0  0  0  0  0  0  0  0  0  0  0
   42.1763    1.0775   -4.6736 C   0  0  0  0  0  0  0  0  0  0  0  0
  1  2  1  1  0  0  0
  1  9  1  0  0  0  0
  1 35  1  0  0  0  0
  3  4  1  6  0  0  0
  3 11  1  0  0  0  0
  3 45  1  0  0  0  0
  5  6  1  0  0  0  0
  5 12  1  0  0  0  0
  5 37  1  1  0  0  0
  6 30  1  0  0  0  0
  7 14  1  0  0  0  0
  7 41  1  0  0  0  0
  7 23  1  6  0  0  0
  8 16  2  0  0  0  0
  8 42  1  0  0  0  0
  9 10  1  6  0  0  0
  9 18  1  0  0  0  0
 11 20  1  0  0  0  0
 12 13  1  6  0  0  0
 12 22  1  0  0  0  0
 13 47  1  0  0  0  0
 14 15  1  1  0  0  0
 14 24  1  0  0  0  0
 16 17  1  0  0  0  0
 17 26  2  0  0  0  0
 18 19  1  1  0  0  0
 18 27  1  0  0  0  0
 20 21  1  6  0  0  0
 20 29  1  0  0  0  0
 22 23  1  1  0  0  0
 22 30  1  0  0  0  0
 24 25  1  6  0  0  0
 24 31  1  0  0  0  0
 26 33  1  0  0  0  0
 27 28  1  1  0  0  0
 27 34  1  0  0  0  0
 29  2  1  1  0  0  0
 29 36  1  0  0  0  0
 30 38  1  1  0  0  0
 31 32  1  6  0  0  0
 31 40  1  0  0  0  0
 33 42  2  0  0  0  0
 34 35  1  0  0  0  0
 34 43  1  1  0  0  0
 36 37  1  1  0  0  0
 36 45  1  0  0  0  0
 38 39  1  0  0  0  0
 40 41  1  0  0  0  0
 40 48  1  1  0  0  0
 43 44  1  0  0  0  0
 45 46  1  1  0  0  0
 47 50  1  0  0  0  0
 48 49  1  0  0  0  0
 50 51  1  0  0  0  0
 51 52  1  0  0  0  0
 52  8  1  0  0  0  0
M  END
>  <CHROM.1>
-164.02843991,-108.94228261,-128.91521513,92.09483257,72.72696805,160.49182949
78.86364096,47.52914925,177.54015560,-58.73799874,171.69142200,-75.82580345
-98.48640480,-80.78896586,128.32304983,42.31405432,4.75795170,-3.00332908
-0.58943341,1.10415628,-0.03690911

>  <Name>
2be0_lig

>  <RI>
2.10017e+07

>  <Rbt.Current_Directory>
/home/itssahil/PROJECTS/Mol_Feturizer/New_Systems/rnas/2be0

>  <Rbt.Executable>
rbdock ($Id: //depot/dev/client3/rdock/2013.1/src/exe/rbdock.cxx#4 $)

>  <Rbt.Library>
libRbt.so (2013.1, Build901 2013/11/27)

>  <Rbt.Parameter_File>
/export/apps/rDock/src/rDock_2013.1_src/data/scripts/dock_solv.prm

>  <Rbt.Receptor>
prm/pocket_docking_3.prm

>  <SCORE>
-16.3771

>  <SCORE.INTER>
-4.73952

>  <SCORE.INTER.CONST>
1

>  <SCORE.INTER.POLAR>
-0.908488

>  <SCORE.INTER.ROT>
15

>  <SCORE.INTER.SOLV>
12.5739

>  <SCORE.INTER.VDW>
-17.9227

>  <SCORE.INTER.norm>
-0.0911447

>  <SCORE.INTRA>
-11.6804

>  <SCORE.INTRA.DIHEDRAL>
-21.5466

>  <SCORE.INTRA.DIHEDRAL.0>
47.8724

>  <SCORE.INTRA.POLAR>
0

>  <SCORE.INTRA.POLAR.0>
0

>  <SCORE.INTRA.REPUL>
0

>  <SCORE.INTRA.REPUL.0>
0

>  <SCORE.INTRA.SOLV>
1.81251

>  <SCORE.INTRA.SOLV.lig_0>
-115.677

>  <SCORE.INTRA.VDW>
-1.81333

>  <SCORE.INTRA.VDW.0>
-7.4833

>  <SCORE.INTRA.norm>
-0.224623

>  <SCORE.RESTR>
0.0428561

>  <SCORE.RESTR.CAVITY>
0.0428561

>  <SCORE.RESTR.norm>
0.000824156

>  <SCORE.SYSTEM>
0

>  <SCORE.SYSTEM.CONST>
0

>  <SCORE.SYSTEM.DIHEDRAL>
0

>  <SCORE.SYSTEM.SOLV>
0

>  <SCORE.SYSTEM.norm>
0

>  <SCORE.heavy>
52

>  <SCORE.norm>
-0.314943

>  <RMSD>
5.154

$$$$
2be0_lig
 OpenBabel11021811423D
libRbt.so/2013.1/901 2013/11/27
 52 56  0  0  0  0  0  0  0  0999 V2000
   45.2071    8.0868   -7.6005 C   0  0  2  0  0  0  0  0  0  0  0  0
   46.2452    7.2977   -8.1321 O   0  0  0  0  0  0  0  0  0  0  0  0
   49.4784    5.1230   -6.0858 C   0  0  2  0  0  0  0  0  0  0  0  0
   50.7261    4.8857   -5.3070 N   0  0  0  0  0  0  0  0  0  0  0  0
   45.5343    6.3583   -4.2108 C   0  0  2  0  0  0  0  0  0  0  0  0
   45.0355    5.0238   -4.4360 O   0  0  0  0  0  0  0  0  0  0  0  0
   41.5207    6.9912   -2.9522 C   0  0  1  0  0  0  0  0  0  0  0  0
   41.2436    6.6517    2.3688 C   0  0  0  0  0  0  0  0  0  0  0  0
   43.8643    7.8927   -8.4160 C   0  0  2  0  0  0  0  0  0  0  0  0
   43.5238    6.4698   -8.4786 N   0  0  0  0  0  0  0  0  0  0  0  0
   49.8227    6.0119   -7.3663 C   0  0  0  0  0  0  0  0  0  0  0  0
   44.3370    7.2078   -3.7557 C   0  0  2  0  0  0  0  0  0  0  0  0
   44.2752    6.9633   -2.2813 O   0  0  0  0  0  0  0  0  0  0  0  0
   40.1882    6.0873   -2.7314 C   0  0  2  0  0  0  0  0  0  0  0  0
   39.1146    6.5811   -3.6529 N   0  0  0  0  0  0  0  0  0  0  0  0
   40.5086    7.8776    2.4781 C   0  0  0  0  0  0  0  0  0  0  0  0
   39.1344    7.8444    2.8324 N   0  0  0  0  0  0  0  0  0  0  0  0
   44.0222    8.5346   -9.8717 C   0  0  1  0  0  0  0  0  0  0  0  0
   42.8121    8.3436  -10.5881 O   0  0  0  0  0  0  0  0  0  0  0  0
   48.4752    6.3074   -8.2419 C   0  0  2  0  0  0  0  0  0  0  0  0
   48.7718    7.1047   -9.3985 N   0  0  0  0  0  0  0  0  0  0  0  0
   43.2583    6.6073   -4.6769 C   0  0  2  0  0  0  0  0  0  0  0  0
   41.9036    6.8584   -4.3329 O   0  0  0  0  0  0  0  0  0  0  0  0
   39.7533    6.2323   -1.2418 C   0  0  1  0  0  0  0  0  0  0  0  0
   40.8673    5.7062   -0.4359 O   0  0  0  0  0  0  0  0  0  0  0  0
   38.4289    6.6343    3.0892 C   0  0  0  0  0  0  0  0  0  0  0  0
   44.3694   10.0434   -9.7127 C   0  0  2  0  0  0  0  0  0  0  0  0
   44.5327   10.6948  -11.0348 O   0  0  0  0  0  0  0  0  0  0  0  0
   47.4038    7.0528   -7.3441 C   0  0  2  0  0  0  0  0  0  0  0  0
   43.6244    5.1047   -4.7240 C   0  0  1  0  0  0  0  0  0  0  0  0
   39.4645    7.7953   -0.8962 C   0  0  2  0  0  0  0  0  0  0  0  0
   38.3523    8.3281   -1.6984 O   0  0  0  0  0  0  0  0  0  0  0  0
   39.1031    5.3917    2.9976 C   0  0  0  0  0  0  0  0  0  0  0  0
   45.7087   10.2160   -8.8978 C   0  0  2  0  0  0  0  0  0  0  0  0
   45.4873    9.5569   -7.6206 O   0  0  0  0  0  0  0  0  0  0  0  0
   47.1101    6.1456   -6.0992 C   0  0  2  0  0  0  0  0  0  0  0  0
   46.1397    6.8981   -5.3811 O   0  0  0  0  0  0  0  0  0  0  0  0
   43.4170    4.4975   -6.1105 C   0  0  0  0  0  0  0  0  0  0  0  0
   44.1013    3.2914   -6.3520 O   0  0  0  0  0  0  0  0  0  0  0  0
   40.7837    8.6531   -1.1731 C   0  0  1  0  0  0  0  0  0  0  0  0
   41.1972    8.4465   -2.6157 O   0  0  0  0  0  0  0  0  0  0  0  0
   40.5380    5.3724    2.6302 C   0  0  0  0  0  0  0  0  0  0  0  0
   45.9724   11.6576   -8.7620 C   0  0  0  0  0  0  0  0  0  0  0  0
   47.2549   11.8470   -8.4274 O   0  0  0  0  0  0  0  0  0  0  0  0
   48.4324    5.9046   -5.2561 C   0  0  1  0  0  0  0  0  0  0  0  0
   48.1578    5.0912   -4.1632 O   0  0  0  0  0  0  0  0  0  0  0  0
   43.9983    5.6918   -1.5722 C   0  0  0  0  0  0  0  0  0  0  0  0
   40.4461   10.1314   -0.8379 C   0  0  0  0  0  0  0  0  0  0  0  0
   39.6157   10.7079   -1.8660 N   0  0  0  0  0  0  0  0  0  0  0  0
   44.1826    5.9586   -0.0747 C   0  0  0  0  0  0  0  0  0  0  0  0
   43.0287    6.7691    0.4333 N   0  0  0  0  0  0  0  0  0  0  0  0
   42.7976    6.7194    1.9676 C   0  0  0  0  0  0  0  0  0  0  0  0
  1  2  1  6  0  0  0
  1  9  1  0  0  0  0
  1 35  1  0  0  0  0
  3  4  1  1  0  0  0
  3 11  1  0  0  0  0
  3 45  1  0  0  0  0
  5  6  1  0  0  0  0
  5 12  1  0  0  0  0
  5 37  1  6  0  0  0
  6 30  1  0  0  0  0
  7 14  1  0  0  0  0
  7 41  1  0  0  0  0
  7 23  1  6  0  0  0
  8 16  2  0  0  0  0
  8 42  1  0  0  0  0
  9 10  1  6  0  0  0
  9 18  1  0  0  0  0
 11 20  1  0  0  0  0
 12 13  1  1  0  0  0
 12 22  1  0  0  0  0
 13 47  1  0  0  0  0
 14 15  1  6  0  0  0
 14 24  1  0  0  0  0
 16 17  1  0  0  0  0
 17 26  2  0  0  0  0
 18 19  1  6  0  0  0
 18 27  1  0  0  0  0
 20 21  1  6  0  0  0
 20 29  1  0  0  0  0
 22 23  1  1  0  0  0
 22 30  1  0  0  0  0
 24 25  1  1  0  0  0
 24 31  1  0  0  0  0
 26 33  1  0  0  0  0
 27 28  1  6  0  0  0
 27 34  1  0  0  0  0
 29  2  1  6  0  0  0
 29 36  1  0  0  0  0
 30 38  1  6  0  0  0
 31 32  1  6  0  0  0
 31 40  1  0  0  0  0
 33 42  2  0  0  0  0
 34 35  1  0  0  0  0
 34 43  1  1  0  0  0
 36 37  1  1  0  0  0
 36 45  1  0  0  0  0
 38 39  1  0  0  0  0
 40 41  1  0  0  0  0
 40 48  1  6  0  0  0
 43 44  1  0  0  0  0
 45 46  1  1  0  0  0
 47 50  1  0  0  0  0
 48 49  1  0  0  0  0
 50 51  1  0  0  0  0
 51 52  1  0  0  0  0
 52  8  1  0  0  0  0
M  END
>  <CHROM.1>
-163.10621438,-49.72539204,-133.41808294,-64.23217538,174.76139356,-32.19039869
-172.79729414,44.58983616,-162.48102402,175.47654912,-74.38372198,73.46296439
159.91257767,-140.17885943,-85.49242662,43.74133987,7.20218173,-4.22832332
0.85850739,0.48217691,-1.09890810

>  <Name>
2be0_lig

>  <RI>
224

>  <Rbt.Current_Directory>
/home/itssahil/PROJECTS/Mol_Feturizer/New_Systems/rnas/2be0

>  <Rbt.Executable>
rbdock ($Id: //depot/dev/client3/rdock/2013.1/src/exe/rbdock.cxx#4 $)

>  <Rbt.Library>
libRbt.so (2013.1, Build901 2013/11/27)

>  <Rbt.Parameter_File>
/export/apps/rDock/src/rDock_2013.1_src/data/scripts/dock_solv.prm

>  <Rbt.Receptor>
prm/blind_docking_100.prm

>  <SCORE>
-23.935

>  <SCORE.INTER>
-19.7894

>  <SCORE.INTER.CONST>
1

>  <SCORE.INTER.POLAR>
-2.19976

>  <SCORE.INTER.ROT>
15

>  <SCORE.INTER.SOLV>
32.153

>  <SCORE.INTER.VDW>
-30.1781

>  <SCORE.INTER.norm>
-0.380566

>  <SCORE.INTRA>
-13.939

>  <SCORE.INTRA.DIHEDRAL>
-30.3813

>  <SCORE.INTRA.DIHEDRAL.0>
47.8724

>  <SCORE.INTRA.POLAR>
0

>  <SCORE.INTRA.POLAR.0>
0

>  <SCORE.INTRA.REPUL>
0

>  <SCORE.INTRA.REPUL.0>
0

>  <SCORE.INTRA.SOLV>
3.45302

>  <SCORE.INTRA.SOLV.lig_0>
-115.677

>  <SCORE.INTRA.VDW>
-0.474895

>  <SCORE.INTRA.VDW.0>
-7.4833

>  <SCORE.INTRA.norm>
-0.268058

>  <SCORE.RESTR>
9.79346

>  <SCORE.RESTR.CAVITY>
9.79346

>  <SCORE.RESTR.norm>
0.188336

>  <SCORE.SYSTEM>
0

>  <SCORE.SYSTEM.CONST>
0

>  <SCORE.SYSTEM.DIHEDRAL>
0

>  <SCORE.SYSTEM.SOLV>
0

>  <SCORE.SYSTEM.norm>
0

>  <SCORE.heavy>
52

>  <SCORE.norm>
-0.460288

>  <RMSD>
5.180

$$$$
2be0_lig
 OpenBabel11021811423D
libRbt.so/2013.1/901 2013/11/27
 52 56  0  0  0  0  0  0  0  0999 V2000
   44.2450    7.7100   -8.1225 C   0  0  2  0  0  0  0  0  0  0  0  0
   45.2986    6.8060   -8.3581 O   0  0  0  0  0  0  0  0  0  0  0  0
   48.3093    4.6305   -5.9972 C   0  0  2  0  0  0  0  0  0  0  0  0
   49.2707    4.3274   -4.9002 N   0  0  0  0  0  0  0  0  0  0  0  0
   44.2508    5.3886   -4.7909 C   0  0  2  0  0  0  0  0  0  0  0  0
   42.8419    5.2701   -4.5060 O   0  0  0  0  0  0  0  0  0  0  0  0
   43.1448    8.9238   -2.5920 C   0  0  1  0  0  0  0  0  0  0  0  0
   41.8528    5.5102    2.1553 C   0  0  0  0  0  0  0  0  0  0  0  0
   43.3647    7.9155   -9.4219 C   0  0  2  0  0  0  0  0  0  0  0  0
   42.9018    6.6174   -9.9172 N   0  0  0  0  0  0  0  0  0  0  0  0
   48.6980    6.0292   -6.6611 C   0  0  0  0  0  0  0  0  0  0  0  0
   44.6960    6.7612   -4.2614 C   0  0  2  0  0  0  0  0  0  0  0  0
   44.9919    6.4999   -2.8186 O   0  0  0  0  0  0  0  0  0  0  0  0
   41.5535    8.9487   -2.2631 C   0  0  2  0  0  0  0  0  0  0  0  0
   40.9399   10.1321   -2.9478 N   0  0  0  0  0  0  0  0  0  0  0  0
   41.9863    6.6210    3.0514 C   0  0  0  0  0  0  0  0  0  0  0  0
   40.9733    6.8744    4.0131 N   0  0  0  0  0  0  0  0  0  0  0  0
   44.2090    8.7094  -10.5231 C   0  0  1  0  0  0  0  0  0  0  0  0
   43.4057    8.8763  -11.6810 O   0  0  0  0  0  0  0  0  0  0  0  0
   47.6567    6.4060   -7.8626 C   0  0  2  0  0  0  0  0  0  0  0  0
   47.9968    7.6617   -8.4699 N   0  0  0  0  0  0  0  0  0  0  0  0
   43.4504    7.5794   -4.6513 C   0  0  2  0  0  0  0  0  0  0  0  0
   43.2848    8.8414   -4.0218 O   0  0  0  0  0  0  0  0  0  0  0  0
   41.3862    9.0517   -0.7170 C   0  0  1  0  0  0  0  0  0  0  0  0
   42.0054    7.8398   -0.1556 O   0  0  0  0  0  0  0  0  0  0  0  0
   39.8050    6.0699    4.1389 C   0  0  0  0  0  0  0  0  0  0  0  0
   44.6479   10.0756   -9.9205 C   0  0  2  0  0  0  0  0  0  0  0  0
   45.4415   10.8589  -10.8982 O   0  0  0  0  0  0  0  0  0  0  0  0
   46.1804    6.4751   -7.2921 C   0  0  2  0  0  0  0  0  0  0  0  0
   42.2831    6.5956   -4.3991 C   0  0  1  0  0  0  0  0  0  0  0  0
   42.1191   10.3954   -0.1664 C   0  0  2  0  0  0  0  0  0  0  0  0
   41.5056   11.6108   -0.7237 O   0  0  0  0  0  0  0  0  0  0  0  0
   39.6187    4.9576    3.2814 C   0  0  0  0  0  0  0  0  0  0  0  0
   45.5227    9.8503   -8.6277 C   0  0  2  0  0  0  0  0  0  0  0  0
   44.6952    9.0779   -7.7147 O   0  0  0  0  0  0  0  0  0  0  0  0
   45.8537    5.0851   -6.6438 C   0  0  2  0  0  0  0  0  0  0  0  0
   44.5189    5.2567   -6.1831 O   0  0  0  0  0  0  0  0  0  0  0  0
   41.1891    6.7051   -5.4599 C   0  0  0  0  0  0  0  0  0  0  0  0
   41.5388    6.2380   -6.7409 O   0  0  0  0  0  0  0  0  0  0  0  0
   43.6687   10.3518   -0.5532 C   0  0  1  0  0  0  0  0  0  0  0  0
   43.7847   10.2042   -2.0564 O   0  0  0  0  0  0  0  0  0  0  0  0
   40.6469    4.6512    2.2600 C   0  0  0  0  0  0  0  0  0  0  0  0
   45.8880   11.1720   -8.0932 C   0  0  0  0  0  0  0  0  0  0  0  0
   44.8529   11.6794   -7.4122 O   0  0  0  0  0  0  0  0  0  0  0  0
   46.8638    4.7655   -5.4627 C   0  0  1  0  0  0  0  0  0  0  0  0
   46.5677    3.5271   -4.9059 O   0  0  0  0  0  0  0  0  0  0  0  0
   44.0362    6.2172   -1.7218 C   0  0  0  0  0  0  0  0  0  0  0  0
   44.3111   11.6588   -0.0142 C   0  0  0  0  0  0  0  0  0  0  0  0
   43.8594   12.7973   -0.7748 N   0  0  0  0  0  0  0  0  0  0  0  0
   44.7972    6.3862   -0.4028 C   0  0  0  0  0  0  0  0  0  0  0  0
   43.8182    6.5268    0.7235 N   0  0  0  0  0  0  0  0  0  0  0  0
   43.0151    5.2465    1.0783 C   0  0  0  0  0  0  0  0  0  0  0  0
  1  2  1  6  0  0  0
  1  9  1  0  0  0  0
  1 35  1  0  0  0  0
  3  4  1  1  0  0  0
  3 11  1  0  0  0  0
  3 45  1  0  0  0  0
  5  6  1  0  0  0  0
  5 12  1  0  0  0  0
  5 37  1  6  0  0  0
  6 30  1  0  0  0  0
  7 14  1  0  0  0  0
  7 41  1  0  0  0  0
  7 23  1  6  0  0  0
  8 16  2  0  0  0  0
  8 42  1  0  0  0  0
  9 10  1  6  0  0  0
  9 18  1  0  0  0  0
 11 20  1  0  0  0  0
 12 13  1  1  0  0  0
 12 22  1  0  0  0  0
 13 47  1  0  0  0  0
 14 15  1  6  0  0  0
 14 24  1  0  0  0  0
 16 17  1  0  0  0  0
 17 26  2  0  0  0  0
 18 19  1  6  0  0  0
 18 27  1  0  0  0  0
 20 21  1  1  0  0  0
 20 29  1  0  0  0  0
 22 23  1  1  0  0  0
 22 30  1  0  0  0  0
 24 25  1  1  0  0  0
 24 31  1  0  0  0  0
 26 33  1  0  0  0  0
 27 28  1  6  0  0  0
 27 34  1  0  0  0  0
 29  2  1  6  0  0  0
 29 36  1  0  0  0  0
 30 38  1  6  0  0  0
 31 32  1  6  0  0  0
 31 40  1  0  0  0  0
 33 42  2  0  0  0  0
 34 35  1  0  0  0  0
 34 43  1  1  0  0  0
 36 37  1  1  0  0  0
 36 45  1  0  0  0  0
 38 39  1  0  0  0  0
 40 41  1  0  0  0  0
 40 48  1  6  0  0  0
 43 44  1  0  0  0  0
 45 46  1  6  0  0  0
 47 50  1  0  0  0  0
 48 49  1  0  0  0  0
 50 51  1  0  0  0  0
 51 52  1  0  0  0  0
 52  8  1  0  0  0  0
M  END
>  <CHROM.1>
-178.65066945,-167.84692041,-94.73684614,-71.12020767,-165.55648867,-61.22299274
-139.61414069,-46.51690613,79.18606358,-107.20785060,-70.32536693,162.89715925
69.69689058,-172.41319172,-24.93989769,43.92987151,7.61591014,-4.13709158
0.84964647,1.04213586,-0.85988724

>  <Name>
2be0_lig

>  <RI>
224

>  <Rbt.Current_Directory>
/home/itssahil/PROJECTS/Mol_Feturizer/New_Systems/rnas/2be0

>  <Rbt.Executable>
rbdock ($Id: //depot/dev/client3/rdock/2013.1/src/exe/rbdock.cxx#4 $)

>  <Rbt.Library>
libRbt.so (2013.1, Build901 2013/11/27)

>  <Rbt.Parameter_File>
/export/apps/rDock/src/rDock_2013.1_src/data/scripts/dock_solv.prm

>  <Rbt.Receptor>
prm/blind_docking_100.prm

>  <SCORE>
-25.631

>  <SCORE.INTER>
-27.0237

>  <SCORE.INTER.CONST>
1

>  <SCORE.INTER.POLAR>
-3.35816

>  <SCORE.INTER.ROT>
15

>  <SCORE.INTER.SOLV>
36.7133

>  <SCORE.INTER.VDW>
-32.6597

>  <SCORE.INTER.norm>
-0.519687

>  <SCORE.INTRA>
-7.72768

>  <SCORE.INTRA.DIHEDRAL>
-24.7168

>  <SCORE.INTRA.DIHEDRAL.0>
47.8724

>  <SCORE.INTRA.POLAR>
0

>  <SCORE.INTRA.POLAR.0>
0

>  <SCORE.INTRA.REPUL>
0.0776495

>  <SCORE.INTRA.REPUL.0>
0

>  <SCORE.INTRA.SOLV>
3.86087

>  <SCORE.INTRA.SOLV.lig_0>
-115.677

>  <SCORE.INTRA.VDW>
2.31204

>  <SCORE.INTRA.VDW.0>
-7.4833

>  <SCORE.INTRA.norm>
-0.148609

>  <SCORE.RESTR>
9.12037

>  <SCORE.RESTR.CAVITY>
9.12037

>  <SCORE.RESTR.norm>
0.175392

>  <SCORE.SYSTEM>
0

>  <SCORE.SYSTEM.CONST>
0

>  <SCORE.SYSTEM.DIHEDRAL>
0

>  <SCORE.SYSTEM.SOLV>
0

>  <SCORE.SYSTEM.norm>
0

>  <SCORE.heavy>
52

>  <SCORE.norm>
-0.492904

>  <RMSD>
5.241

$$$$
2be0_lig
 OpenBabel11021811423D
libRbt.so/2013.1/901 2013/11/27
 52 56  0  0  0  0  0  0  0  0999 V2000
   42.2728    5.0816   -7.0858 C   0  0  2  0  0  0  0  0  0  0  0  0
   43.3059    4.1349   -7.2248 O   0  0  0  0  0  0  0  0  0  0  0  0
   41.5919    1.1410   -9.9578 C   0  0  2  0  0  0  0  0  0  0  0  0
   41.3450   -0.1769  -10.6073 N   0  0  0  0  0  0  0  0  0  0  0  0
   39.8789    2.2604   -5.9291 C   0  0  2  0  0  0  0  0  0  0  0  0
   38.9352    3.2137   -6.4593 O   0  0  0  0  0  0  0  0  0  0  0  0
   39.8232    4.0512   -1.7997 C   0  0  1  0  0  0  0  0  0  0  0  0
   36.2002   -0.2653   -7.0103 C   0  0  0  0  0  0  0  0  0  0  0  0
   42.1771    6.0168   -8.3594 C   0  0  2  0  0  0  0  0  0  0  0  0
   42.0414    5.1982   -9.5661 N   0  0  0  0  0  0  0  0  0  0  0  0
   43.1470    1.4882  -10.0547 C   0  0  0  0  0  0  0  0  0  0  0  0
   39.7883    2.3522   -4.3975 C   0  0  2  0  0  0  0  0  0  0  0  0
   38.6513    1.4409   -4.0595 O   0  0  0  0  0  0  0  0  0  0  0  0
   39.4874    2.5037   -1.4339 C   0  0  2  0  0  0  0  0  0  0  0  0
   38.0042    2.3580   -1.2776 N   0  0  0  0  0  0  0  0  0  0  0  0
   36.6348   -1.2651   -7.9411 C   0  0  0  0  0  0  0  0  0  0  0  0
   37.1709   -0.8724   -9.1955 N   0  0  0  0  0  0  0  0  0  0  0  0
   43.4591    6.9697   -8.4239 C   0  0  1  0  0  0  0  0  0  0  0  0
   43.3577    7.7934   -9.5752 O   0  0  0  0  0  0  0  0  0  0  0  0
   43.4628    2.9231   -9.3396 C   0  0  2  0  0  0  0  0  0  0  0  0
   44.8588    3.2483   -9.4219 N   0  0  0  0  0  0  0  0  0  0  0  0
   39.6134    3.8767   -4.2628 C   0  0  2  0  0  0  0  0  0  0  0  0
   39.1276    4.3628   -3.0202 O   0  0  0  0  0  0  0  0  0  0  0  0
   40.2240    2.1556   -0.1053 C   0  0  1  0  0  0  0  0  0  0  0  0
   41.6617    2.3160   -0.3788 O   0  0  0  0  0  0  0  0  0  0  0  0
   37.3022    0.4895   -9.5905 C   0  0  0  0  0  0  0  0  0  0  0  0
   43.5189    7.8088   -7.1145 C   0  0  2  0  0  0  0  0  0  0  0  0
   44.6943    8.7130   -7.1143 O   0  0  0  0  0  0  0  0  0  0  0  0
   43.0177    2.8756   -7.8200 C   0  0  2  0  0  0  0  0  0  0  0  0
   38.7190    4.2422   -5.4713 C   0  0  1  0  0  0  0  0  0  0  0  0
   39.7359    3.1567    1.0802 C   0  0  2  0  0  0  0  0  0  0  0  0
   38.2997    3.0022    1.3588 O   0  0  0  0  0  0  0  0  0  0  0  0
   36.8905    1.5216   -8.7118 C   0  0  0  0  0  0  0  0  0  0  0  0
   43.6134    6.8603   -5.8580 C   0  0  2  0  0  0  0  0  0  0  0  0
   42.4417    6.0010   -5.9168 O   0  0  0  0  0  0  0  0  0  0  0  0
   41.4906    2.5214   -7.7809 C   0  0  2  0  0  0  0  0  0  0  0  0
   41.2018    2.5189   -6.3880 O   0  0  0  0  0  0  0  0  0  0  0  0
   39.1208    5.5688   -6.1136 C   0  0  0  0  0  0  0  0  0  0  0  0
   39.3698    6.6250   -5.2171 O   0  0  0  0  0  0  0  0  0  0  0  0
   40.0403    4.6675    0.6586 C   0  0  1  0  0  0  0  0  0  0  0  0
   39.3458    4.9481   -0.6580 O   0  0  0  0  0  0  0  0  0  0  0  0
   36.3235    1.1640   -7.3908 C   0  0  0  0  0  0  0  0  0  0  0  0
   43.6449    7.7066   -4.6543 C   0  0  0  0  0  0  0  0  0  0  0  0
   43.7838    6.9343   -3.5694 O   0  0  0  0  0  0  0  0  0  0  0  0
   41.2244    1.1102   -8.4554 C   0  0  1  0  0  0  0  0  0  0  0  0
   39.8665    0.8158   -8.4220 O   0  0  0  0  0  0  0  0  0  0  0  0
   38.5729   -0.0298   -4.2245 C   0  0  0  0  0  0  0  0  0  0  0  0
   39.5452    5.5740    1.8183 C   0  0  0  0  0  0  0  0  0  0  0  0
   40.2343    5.2524    3.0432 N   0  0  0  0  0  0  0  0  0  0  0  0
   37.2400   -0.4832   -3.6203 C   0  0  0  0  0  0  0  0  0  0  0  0
   36.1091    0.1121   -4.4035 N   0  0  0  0  0  0  0  0  0  0  0  0
   35.5990   -0.7384   -5.5979 C   0  0  0  0  0  0  0  0  0  0  0  0
  1  2  1  6  0  0  0
  1  9  1  0  0  0  0
  1 35  1  0  0  0  0
  3  4  1  1  0  0  0
  3 11  1  0  0  0  0
  3 45  1  0  0  0  0
  5  6  1  0  0  0  0
  5 12  1  0  0  0  0
  5 37  1  6  0  0  0
  6 30  1  0  0  0  0
  7 14  1  0  0  0  0
  7 41  1  0  0  0  0
  7 23  1  6  0  0  0
  8 16  2  0  0  0  0
  8 42  1  0  0  0  0
  9 10  1  6  0  0  0
  9 18  1  0  0  0  0
 11 20  1  0  0  0  0
 12 13  1  6  0  0  0
 12 22  1  0  0  0  0
 13 47  1  0  0  0  0
 14 15  1  1  0  0  0
 14 24  1  0  0  0  0
 16 17  1  0  0  0  0
 17 26  2  0  0  0  0
 18 19  1  6  0  0  0
 18 27  1  0  0  0  0
 20 21  1  1  0  0  0
 20 29  1  0  0  0  0
 22 23  1  1  0  0  0
 22 30  1  0  0  0  0
 24 25  1  6  0  0  0
 24 31  1  0  0  0  0
 26 33  1  0  0  0  0
 27 28  1  6  0  0  0
 27 34  1  0  0  0  0
 29  2  1  6  0  0  0
 29 36  1  0  0  0  0
 30 38  1  6  0  0  0
 31 32  1  6  0  0  0
 31 40  1  0  0  0  0
 33 42  2  0  0  0  0
 34 35  1  0  0  0  0
 34 43  1  1  0  0  0
 36 37  1  1  0  0  0
 36 45  1  0  0  0  0
 38 39  1  0  0  0  0
 40 41  1  0  0  0  0
 40 48  1  1  0  0  0
 43 44  1  0  0  0  0
 45 46  1  6  0  0  0
 47 50  1  0  0  0  0
 48 49  1  0  0  0  0
 50 51  1  0  0  0  0
 51 52  1  0  0  0  0
 52  8  1  0  0  0  0
M  END
>  <CHROM.1>
-89.81885421,-58.88496249,-75.42185342,65.88137417,175.46938705,56.65901656
98.72968989,-161.58724408,-177.33437526,178.70663252,59.98289737,64.02876152
90.04658106,-98.63460028,137.37880333,40.36326857,3.35001104,-5.39833222
-1.10680642,0.81361483,1.24309620

>  <Name>
2be0_lig

>  <RI>
2.75444e+07

>  <Rbt.Current_Directory>
/home/itssahil/PROJECTS/Mol_Feturizer/New_Systems/rnas/2be0

>  <Rbt.Executable>
rbdock ($Id: //depot/dev/client3/rdock/2013.1/src/exe/rbdock.cxx#4 $)

>  <Rbt.Library>
libRbt.so (2013.1, Build901 2013/11/27)

>  <Rbt.Parameter_File>
/export/apps/rDock/src/rDock_2013.1_src/data/scripts/dock_solv.prm

>  <Rbt.Receptor>
prm/pocket_docking_5.prm

>  <SCORE>
-22.2202

>  <SCORE.INTER>
-9.00945

>  <SCORE.INTER.CONST>
1

>  <SCORE.INTER.POLAR>
-0.959166

>  <SCORE.INTER.ROT>
15

>  <SCORE.INTER.SOLV>
11.1065

>  <SCORE.INTER.VDW>
-20.1112

>  <SCORE.INTER.norm>
-0.173259

>  <SCORE.INTRA>
-13.2108

>  <SCORE.INTRA.DIHEDRAL>
-33.7963

>  <SCORE.INTRA.DIHEDRAL.0>
47.8724

>  <SCORE.INTRA.POLAR>
0

>  <SCORE.INTRA.POLAR.0>
0

>  <SCORE.INTRA.REPUL>
0

>  <SCORE.INTRA.REPUL.0>
0

>  <SCORE.INTRA.SOLV>
5.81228

>  <SCORE.INTRA.SOLV.lig_0>
-115.677

>  <SCORE.INTRA.VDW>
0.781212

>  <SCORE.INTRA.VDW.0>
-7.4833

>  <SCORE.INTRA.norm>
-0.254053

>  <SCORE.RESTR>
0

>  <SCORE.RESTR.CAVITY>
0

>  <SCORE.RESTR.norm>
0

>  <SCORE.SYSTEM>
0

>  <SCORE.SYSTEM.CONST>
0

>  <SCORE.SYSTEM.DIHEDRAL>
0

>  <SCORE.SYSTEM.SOLV>
0

>  <SCORE.SYSTEM.norm>
0

>  <SCORE.heavy>
52

>  <SCORE.norm>
-0.427312

>  <RMSD>
5.259

$$$$
2be0_lig
 OpenBabel11021811423D
libRbt.so/2013.1/901 2013/11/27
 52 56  0  0  0  0  0  0  0  0999 V2000
   44.9855    4.9522   -5.0341 C   0  0  2  0  0  0  0  0  0  0  0  0
   43.7191    4.4814   -4.6374 O   0  0  0  0  0  0  0  0  0  0  0  0
   44.1465    0.2207   -5.6549 C   0  0  2  0  0  0  0  0  0  0  0  0
   43.8787   -1.2447   -5.6691 N   0  0  0  0  0  0  0  0  0  0  0  0
   40.8055    2.8979   -6.4102 C   0  0  2  0  0  0  0  0  0  0  0  0
   39.8388    3.9374   -6.6657 O   0  0  0  0  0  0  0  0  0  0  0  0
   40.4251    3.3427   -1.8937 C   0  0  1  0  0  0  0  0  0  0  0  0
   37.4475    0.0777   -9.8726 C   0  0  0  0  0  0  0  0  0  0  0  0
   45.0530    6.5327   -4.9777 C   0  0  2  0  0  0  0  0  0  0  0  0
   44.6640    6.9979   -3.6448 N   0  0  0  0  0  0  0  0  0  0  0  0
   44.3896    0.6931   -4.1496 C   0  0  0  0  0  0  0  0  0  0  0  0
   40.5973    2.4472   -4.9555 C   0  0  2  0  0  0  0  0  0  0  0  0
   39.5050    1.4305   -5.0575 O   0  0  0  0  0  0  0  0  0  0  0  0
   40.4956    1.7234   -2.0130 C   0  0  2  0  0  0  0  0  0  0  0  0
   39.0982    1.1832   -2.0497 N   0  0  0  0  0  0  0  0  0  0  0  0
   36.0713    0.1790   -9.4844 C   0  0  0  0  0  0  0  0  0  0  0  0
   35.1013   -0.6468  -10.1107 N   0  0  0  0  0  0  0  0  0  0  0  0
   44.1239    7.1514   -6.1221 C   0  0  1  0  0  0  0  0  0  0  0  0
   44.1925    8.5671   -6.0496 O   0  0  0  0  0  0  0  0  0  0  0  0
   44.6736    2.3011   -4.0888 C   0  0  2  0  0  0  0  0  0  0  0  0
   44.8963    2.7385   -2.7396 N   0  0  0  0  0  0  0  0  0  0  0  0
   40.3073    3.8212   -4.3224 C   0  0  2  0  0  0  0  0  0  0  0  0
   39.6995    3.8247   -3.0391 O   0  0  0  0  0  0  0  0  0  0  0  0
   41.2679    1.1855   -0.7707 C   0  0  1  0  0  0  0  0  0  0  0  0
   42.6199    1.7631   -0.8463 O   0  0  0  0  0  0  0  0  0  0  0  0
   35.4259   -1.5900  -11.1271 C   0  0  0  0  0  0  0  0  0  0  0  0
   44.6130    6.6175   -7.4998 C   0  0  2  0  0  0  0  0  0  0  0  0
   43.7836    7.1559   -8.6049 O   0  0  0  0  0  0  0  0  0  0  0  0
   43.4444    3.0874   -4.7056 C   0  0  2  0  0  0  0  0  0  0  0  0
   39.4800    4.5482   -5.4092 C   0  0  1  0  0  0  0  0  0  0  0  0
   40.5100    1.6397    0.5950 C   0  0  2  0  0  0  0  0  0  0  0  0
   39.1576    1.0664    0.6772 O   0  0  0  0  0  0  0  0  0  0  0  0
   36.7698   -1.7354  -11.5513 C   0  0  0  0  0  0  0  0  0  0  0  0
   44.5389    5.0425   -7.5363 C   0  0  2  0  0  0  0  0  0  0  0  0
   45.3643    4.5777   -6.4329 O   0  0  0  0  0  0  0  0  0  0  0  0
   43.2424    2.5801   -6.1756 C   0  0  2  0  0  0  0  0  0  0  0  0
   42.1371    3.3528   -6.6280 O   0  0  0  0  0  0  0  0  0  0  0  0
   39.8341    6.0305   -5.5171 C   0  0  0  0  0  0  0  0  0  0  0  0
   39.6911    6.7752   -4.3312 O   0  0  0  0  0  0  0  0  0  0  0  0
   40.4201    3.2341    0.6476 C   0  0  1  0  0  0  0  0  0  0  0  0
   39.7057    3.7163   -0.5981 O   0  0  0  0  0  0  0  0  0  0  0  0
   37.8198   -0.8959  -10.9292 C   0  0  0  0  0  0  0  0  0  0  0  0
   45.0320    4.5972   -8.8495 C   0  0  0  0  0  0  0  0  0  0  0  0
   44.1555    4.9497   -9.7983 O   0  0  0  0  0  0  0  0  0  0  0  0
   42.9389    1.0228   -6.1950 C   0  0  1  0  0  0  0  0  0  0  0  0
   42.7727    0.5871   -7.5042 O   0  0  0  0  0  0  0  0  0  0  0  0
   38.0632    1.6546   -5.3170 C   0  0  0  0  0  0  0  0  0  0  0  0
   39.6807    3.6068    1.9613 C   0  0  0  0  0  0  0  0  0  0  0  0
   39.7086    5.0329    2.1721 N   0  0  0  0  0  0  0  0  0  0  0  0
   37.9122    1.9473   -6.8133 C   0  0  0  0  0  0  0  0  0  0  0  0
   38.5486    0.8444   -7.6041 N   0  0  0  0  0  0  0  0  0  0  0  0
   38.5235    1.0234   -9.1460 C   0  0  0  0  0  0  0  0  0  0  0  0
  1  2  1  6  0  0  0
  1  9  1  0  0  0  0
  1 35  1  0  0  0  0
  3  4  1  1  0  0  0
  3 11  1  0  0  0  0
  3 45  1  0  0  0  0
  5  6  1  0  0  0  0
  5 12  1  0  0  0  0
  5 37  1  1  0  0  0
  6 30  1  0  0  0  0
  7 14  1  0  0  0  0
  7 41  1  0  0  0  0
  7 23  1  6  0  0  0
  8 16  2  0  0  0  0
  8 42  1  0  0  0  0
  9 10  1  1  0  0  0
  9 18  1  0  0  0  0
 11 20  1  0  0  0  0
 12 13  1  6  0  0  0
 12 22  1  0  0  0  0
 13 47  1  0  0  0  0
 14 15  1  1  0  0  0
 14 24  1  0  0  0  0
 16 17  1  0  0  0  0
 17 26  2  0  0  0  0
 18 19  1  6  0  0  0
 18 27  1  0  0  0  0
 20 21  1  1  0  0  0
 20 29  1  0  0  0  0
 22 23  1  1  0  0  0
 22 30  1  0  0  0  0
 24 25  1  1  0  0  0
 24 31  1  0  0  0  0
 26 33  1  0  0  0  0
 27 28  1  6  0  0  0
 27 34  1  0  0  0  0
 29  2  1  6  0  0  0
 29 36  1  0  0  0  0
 30 38  1  6  0  0  0
 31 32  1  6  0  0  0
 31 40  1  0  0  0  0
 33 42  2  0  0  0  0
 34 35  1  0  0  0  0
 34 43  1  6  0  0  0
 36 37  1  1  0  0  0
 36 45  1  0  0  0  0
 38 39  1  0  0  0  0
 40 41  1  0  0  0  0
 40 48  1  1  0  0  0
 43 44  1  0  0  0  0
 45 46  1  6  0  0  0
 47 50  1  0  0  0  0
 48 49  1  0  0  0  0
 50 51  1  0  0  0  0
 51 52  1  0  0  0  0
 52  8  1  0  0  0  0
M  END
>  <CHROM.1>
176.06889203,167.15153202,-73.33544638,-73.00520802,76.53602271,67.48497713
45.77488082,-173.37910963,-69.23762110,-87.83617636,172.59865997,53.93000665
-177.83944062,-105.23118343,57.55399841,41.28501197,2.96311197,-5.21004249
-0.90449491,-0.65569672,-1.64999148

>  <Name>
2be0_lig

>  <RI>
2.75444e+07

>  <Rbt.Current_Directory>
/home/itssahil/PROJECTS/Mol_Feturizer/New_Systems/rnas/2be0

>  <Rbt.Executable>
rbdock ($Id: //depot/dev/client3/rdock/2013.1/src/exe/rbdock.cxx#4 $)

>  <Rbt.Library>
libRbt.so (2013.1, Build901 2013/11/27)

>  <Rbt.Parameter_File>
/export/apps/rDock/src/rDock_2013.1_src/data/scripts/dock_solv.prm

>  <Rbt.Receptor>
prm/pocket_docking_5.prm

>  <SCORE>
-15.6785

>  <SCORE.INTER>
-1.36933

>  <SCORE.INTER.CONST>
1

>  <SCORE.INTER.POLAR>
-1.20303

>  <SCORE.INTER.ROT>
15

>  <SCORE.INTER.SOLV>
11.1778

>  <SCORE.INTER.VDW>
-14.2287

>  <SCORE.INTER.norm>
-0.0263333

>  <SCORE.INTRA>
-14.3091

>  <SCORE.INTRA.DIHEDRAL>
-36.7308

>  <SCORE.INTRA.DIHEDRAL.0>
47.8724

>  <SCORE.INTRA.POLAR>
0

>  <SCORE.INTRA.POLAR.0>
0

>  <SCORE.INTRA.REPUL>
0

>  <SCORE.INTRA.REPUL.0>
0

>  <SCORE.INTRA.SOLV>
1.63292

>  <SCORE.INTRA.SOLV.lig_0>
-115.677

>  <SCORE.INTRA.VDW>
3.23984

>  <SCORE.INTRA.VDW.0>
-7.4833

>  <SCORE.INTRA.norm>
-0.275175

>  <SCORE.RESTR>
0

>  <SCORE.RESTR.CAVITY>
0

>  <SCORE.RESTR.norm>
0

>  <SCORE.SYSTEM>
0

>  <SCORE.SYSTEM.CONST>
0

>  <SCORE.SYSTEM.DIHEDRAL>
0

>  <SCORE.SYSTEM.SOLV>
0

>  <SCORE.SYSTEM.norm>
0

>  <SCORE.heavy>
52

>  <SCORE.norm>
-0.301509

>  <RMSD>
5.272

$$$$
2be0_lig
 OpenBabel11021811423D
libRbt.so/2013.1/901 2013/11/27
 52 56  0  0  0  0  0  0  0  0999 V2000
   44.2454    7.8121   -7.1050 C   0  0  2  0  0  0  0  0  0  0  0  0
   43.6236    6.8551   -7.9298 O   0  0  0  0  0  0  0  0  0  0  0  0
   41.0104    3.4212   -7.0633 C   0  0  2  0  0  0  0  0  0  0  0  0
   40.5564    2.1208   -6.4955 N   0  0  0  0  0  0  0  0  0  0  0  0
   42.7736    6.3641   -4.3647 C   0  0  2  0  0  0  0  0  0  0  0  0
   41.8640    5.6330   -3.5170 O   0  0  0  0  0  0  0  0  0  0  0  0
   40.9257    8.9192   -0.8059 C   0  0  1  0  0  0  0  0  0  0  0  0
   42.6392    3.6071   -0.3597 C   0  0  0  0  0  0  0  0  0  0  0  0
   45.1191    8.8212   -7.9559 C   0  0  2  0  0  0  0  0  0  0  0  0
   44.2969    9.4233   -9.0077 N   0  0  0  0  0  0  0  0  0  0  0  0
   42.3580    3.1897   -7.8873 C   0  0  0  0  0  0  0  0  0  0  0  0
   43.2709    7.5671   -3.5474 C   0  0  2  0  0  0  0  0  0  0  0  0
   44.4187    7.0092   -2.7672 O   0  0  0  0  0  0  0  0  0  0  0  0
   41.1714   10.2736    0.0580 C   0  0  2  0  0  0  0  0  0  0  0  0
   42.4540   10.1314    0.8199 N   0  0  0  0  0  0  0  0  0  0  0  0
   43.8203    2.7984   -0.4369 C   0  0  0  0  0  0  0  0  0  0  0  0
   43.9071    1.7717   -1.4133 N   0  0  0  0  0  0  0  0  0  0  0  0
   46.3910    8.0591   -8.5536 C   0  0  1  0  0  0  0  0  0  0  0  0
   47.1558    8.9782   -9.3181 O   0  0  0  0  0  0  0  0  0  0  0  0
   42.8981    4.5977   -8.5162 C   0  0  2  0  0  0  0  0  0  0  0  0
   44.1093    4.4027   -9.2620 N   0  0  0  0  0  0  0  0  0  0  0  0
   41.9563    7.9220   -2.8270 C   0  0  2  0  0  0  0  0  0  0  0  0
   42.0523    8.7639   -1.6875 O   0  0  0  0  0  0  0  0  0  0  0  0
   39.9641   10.4477    1.0282 C   0  0  1  0  0  0  0  0  0  0  0  0
   38.7715   10.5933    0.1774 O   0  0  0  0  0  0  0  0  0  0  0  0
   42.8624    1.4928   -2.3401 C   0  0  0  0  0  0  0  0  0  0  0  0
   47.2117    7.4639   -7.3728 C   0  0  2  0  0  0  0  0  0  0  0  0
   48.4070    6.7384   -7.8668 O   0  0  0  0  0  0  0  0  0  0  0  0
   43.1535    5.6427   -7.3532 C   0  0  2  0  0  0  0  0  0  0  0  0
   41.3251    6.5402   -2.5334 C   0  0  1  0  0  0  0  0  0  0  0  0
   39.8387    9.1486    1.9990 C   0  0  2  0  0  0  0  0  0  0  0  0
   41.0275    8.9965    2.8522 O   0  0  0  0  0  0  0  0  0  0  0  0
   41.6716    2.2599   -2.3125 C   0  0  0  0  0  0  0  0  0  0  0  0
   46.3249    6.4623   -6.5373 C   0  0  2  0  0  0  0  0  0  0  0  0
   45.1737    7.2280   -6.0865 O   0  0  0  0  0  0  0  0  0  0  0  0
   41.8066    5.8251   -6.5712 C   0  0  2  0  0  0  0  0  0  0  0  0
   42.1467    6.7803   -5.5735 O   0  0  0  0  0  0  0  0  0  0  0  0
   39.8079    6.5424   -2.7131 C   0  0  0  0  0  0  0  0  0  0  0  0
   39.3546    6.7259   -4.0330 O   0  0  0  0  0  0  0  0  0  0  0  0
   39.6473    7.8361    1.1080 C   0  0  1  0  0  0  0  0  0  0  0  0
   40.8157    7.7315    0.1496 O   0  0  0  0  0  0  0  0  0  0  0  0
   41.5314    3.3427   -1.3115 C   0  0  0  0  0  0  0  0  0  0  0  0
   47.1448    5.9508   -5.4272 C   0  0  0  0  0  0  0  0  0  0  0  0
   48.1352    5.1939   -5.9159 O   0  0  0  0  0  0  0  0  0  0  0  0
   41.3278    4.4463   -5.9490 C   0  0  1  0  0  0  0  0  0  0  0  0
   40.1288    4.6225   -5.2686 O   0  0  0  0  0  0  0  0  0  0  0  0
   44.3869    6.0042   -1.6785 C   0  0  0  0  0  0  0  0  0  0  0  0
   39.5452    6.6325    2.0839 C   0  0  0  0  0  0  0  0  0  0  0  0
   38.5112    6.8593    3.0628 N   0  0  0  0  0  0  0  0  0  0  0  0
   43.7976    6.6928   -0.4432 C   0  0  0  0  0  0  0  0  0  0  0  0
   43.7826    5.7296    0.7052 N   0  0  0  0  0  0  0  0  0  0  0  0
   42.5692    4.7624    0.7541 C   0  0  0  0  0  0  0  0  0  0  0  0
  1  2  1  6  0  0  0
  1  9  1  0  0  0  0
  1 35  1  0  0  0  0
  3  4  1  1  0  0  0
  3 11  1  0  0  0  0
  3 45  1  0  0  0  0
  5  6  1  0  0  0  0
  5 12  1  0  0  0  0
  5 37  1  6  0  0  0
  6 30  1  0  0  0  0
  7 14  1  0  0  0  0
  7 41  1  0  0  0  0
  7 23  1  6  0  0  0
  8 16  2  0  0  0  0
  8 42  1  0  0  0  0
  9 10  1  6  0  0  0
  9 18  1  0  0  0  0
 11 20  1  0  0  0  0
 12 13  1  1  0  0  0
 12 22  1  0  0  0  0
 13 47  1  0  0  0  0
 14 15  1  1  0  0  0
 14 24  1  0  0  0  0
 16 17  1  0  0  0  0
 17 26  2  0  0  0  0
 18 19  1  1  0  0  0
 18 27  1  0  0  0  0
 20 21  1  1  0  0  0
 20 29  1  0  0  0  0
 22 23  1  1  0  0  0
 22 30  1  0  0  0  0
 24 25  1  6  0  0  0
 24 31  1  0  0  0  0
 26 33  1  0  0  0  0
 27 28  1  6  0  0  0
 27 34  1  0  0  0  0
 29  2  1  6  0  0  0
 29 36  1  0  0  0  0
 30 38  1  6  0  0  0
 31 32  1  6  0  0  0
 31 40  1  0  0  0  0
 33 42  2  0  0  0  0
 34 35  1  0  0  0  0
 34 43  1  1  0  0  0
 36 37  1  1  0  0  0
 36 45  1  0  0  0  0
 38 39  1  0  0  0  0
 40 41  1  0  0  0  0
 40 48  1  1  0  0  0
 43 44  1  0  0  0  0
 45 46  1  6  0  0  0
 47 50  1  0  0  0  0
 48 49  1  0  0  0  0
 50 51  1  0  0  0  0
 51 52  1  0  0  0  0
 52  8  1  0  0  0  0
M  END
>  <CHROM.1>
160.49927605,-70.69192615,-161.22415631,-67.51532944,-72.49635877,-167.25785660
-163.69864450,-49.33501715,-66.86061877,-83.10634631,54.03230999,-178.21962026
-83.39150542,73.25148192,53.34755052,42.77044134,6.44689403,-3.54277090,-0.51742978
1.01608134,0.43679398

>  <Name>
2be0_lig

>  <RI>
2.10017e+07

>  <Rbt.Current_Directory>
/home/itssahil/PROJECTS/Mol_Feturizer/New_Systems/rnas/2be0

>  <Rbt.Executable>
rbdock ($Id: //depot/dev/client3/rdock/2013.1/src/exe/rbdock.cxx#4 $)

>  <Rbt.Library>
libRbt.so (2013.1, Build901 2013/11/27)

>  <Rbt.Parameter_File>
/export/apps/rDock/src/rDock_2013.1_src/data/scripts/dock_solv.prm

>  <Rbt.Receptor>
prm/pocket_docking_3.prm

>  <SCORE>
-24.4271

>  <SCORE.INTER>
-7.33635

>  <SCORE.INTER.CONST>
1

>  <SCORE.INTER.POLAR>
-0.894427

>  <SCORE.INTER.ROT>
15

>  <SCORE.INTER.SOLV>
16.548

>  <SCORE.INTER.VDW>
-21.0255

>  <SCORE.INTER.norm>
-0.141084

>  <SCORE.INTRA>
-17.5576

>  <SCORE.INTRA.DIHEDRAL>
-36.2191

>  <SCORE.INTRA.DIHEDRAL.0>
47.8724

>  <SCORE.INTRA.POLAR>
0

>  <SCORE.INTRA.POLAR.0>
0

>  <SCORE.INTRA.REPUL>
0

>  <SCORE.INTRA.REPUL.0>
0

>  <SCORE.INTRA.SOLV>
0.544391

>  <SCORE.INTRA.SOLV.lig_0>
-115.677

>  <SCORE.INTRA.VDW>
0.279783

>  <SCORE.INTRA.VDW.0>
-7.4833

>  <SCORE.INTRA.norm>
-0.337646

>  <SCORE.RESTR>
0.466879

>  <SCORE.RESTR.CAVITY>
0.466879

>  <SCORE.RESTR.norm>
0.00897844

>  <SCORE.SYSTEM>
0

>  <SCORE.SYSTEM.CONST>
0

>  <SCORE.SYSTEM.DIHEDRAL>
0

>  <SCORE.SYSTEM.SOLV>
0

>  <SCORE.SYSTEM.norm>
0

>  <SCORE.heavy>
52

>  <SCORE.norm>
-0.469751

>  <RMSD>
5.307

$$$$
2be0_lig
 OpenBabel11021811423D
libRbt.so/2013.1/901 2013/11/27
 52 56  0  0  0  0  0  0  0  0999 V2000
   42.0223    5.0196   -6.5252 C   0  0  2  0  0  0  0  0  0  0  0  0
   42.9437    3.9875   -6.7874 O   0  0  0  0  0  0  0  0  0  0  0  0
   43.5953    0.3117   -4.4561 C   0  0  2  0  0  0  0  0  0  0  0  0
   44.0719   -0.5826   -3.3641 N   0  0  0  0  0  0  0  0  0  0  0  0
   39.8794    3.2721   -4.7509 C   0  0  2  0  0  0  0  0  0  0  0  0
   39.2511    4.5599   -4.9158 O   0  0  0  0  0  0  0  0  0  0  0  0
   38.5660    2.8920   -0.4305 C   0  0  1  0  0  0  0  0  0  0  0  0
   36.4853   -1.1190   -8.8934 C   0  0  0  0  0  0  0  0  0  0  0  0
   41.8117    5.9369   -7.7980 C   0  0  2  0  0  0  0  0  0  0  0  0
   41.4313    5.1115   -8.9462 N   0  0  0  0  0  0  0  0  0  0  0  0
   44.8483    1.0586   -5.1043 C   0  0  0  0  0  0  0  0  0  0  0  0
   39.2592    2.6338   -3.4977 C   0  0  2  0  0  0  0  0  0  0  0  0
   38.0173    1.9810   -4.0161 O   0  0  0  0  0  0  0  0  0  0  0  0
   39.9569    3.3546    0.2713 C   0  0  2  0  0  0  0  0  0  0  0  0
   41.0416    3.3497   -0.7628 N   0  0  0  0  0  0  0  0  0  0  0  0
   37.0292   -0.9617  -10.2104 C   0  0  0  0  0  0  0  0  0  0  0  0
   36.9537   -2.0358  -11.1353 N   0  0  0  0  0  0  0  0  0  0  0  0
   43.1417    6.7780   -8.0802 C   0  0  1  0  0  0  0  0  0  0  0  0
   42.9349    7.5869   -9.2278 O   0  0  0  0  0  0  0  0  0  0  0  0
   44.3657    2.0624   -6.2999 C   0  0  2  0  0  0  0  0  0  0  0  0
   45.4845    2.7392   -6.8931 N   0  0  0  0  0  0  0  0  0  0  0  0
   39.1517    3.8949   -2.6197 C   0  0  2  0  0  0  0  0  0  0  0  0
   38.2917    3.8242   -1.4919 O   0  0  0  0  0  0  0  0  0  0  0  0
   40.2742    2.3450    1.4154 C   0  0  1  0  0  0  0  0  0  0  0  0
   39.1603    2.4461    2.3726 O   0  0  0  0  0  0  0  0  0  0  0  0
   36.3562   -3.2896  -10.8205 C   0  0  0  0  0  0  0  0  0  0  0  0
   43.4644    7.6320   -6.8198 C   0  0  2  0  0  0  0  0  0  0  0  0
   44.6952    8.4345   -7.0207 O   0  0  0  0  0  0  0  0  0  0  0  0
   43.3438    3.1285   -5.7266 C   0  0  2  0  0  0  0  0  0  0  0  0
   38.7695    5.0026   -3.6302 C   0  0  1  0  0  0  0  0  0  0  0  0
   40.3954    0.8396    0.8113 C   0  0  2  0  0  0  0  0  0  0  0  0
   41.5067    0.7311   -0.1467 O   0  0  0  0  0  0  0  0  0  0  0  0
   35.8009   -3.5033   -9.5348 C   0  0  0  0  0  0  0  0  0  0  0  0
   43.6701    6.7012   -5.5633 C   0  0  2  0  0  0  0  0  0  0  0  0
   42.4378    5.9420   -5.4222 O   0  0  0  0  0  0  0  0  0  0  0  0
   42.1416    2.3451   -5.0940 C   0  0  2  0  0  0  0  0  0  0  0  0
   41.2934    3.3883   -4.6295 O   0  0  0  0  0  0  0  0  0  0  0  0
   39.4615    6.3309   -3.3283 C   0  0  0  0  0  0  0  0  0  0  0  0
   40.8566    6.2614   -3.1550 O   0  0  0  0  0  0  0  0  0  0  0  0
   39.0256    0.4449    0.0897 C   0  0  1  0  0  0  0  0  0  0  0  0
   38.7320    1.4759   -0.9806 O   0  0  0  0  0  0  0  0  0  0  0  0
   35.8551   -2.4136   -8.5329 C   0  0  0  0  0  0  0  0  0  0  0  0
   43.9497    7.5629   -4.4035 C   0  0  0  0  0  0  0  0  0  0  0  0
   44.6306    6.8670   -3.4844 O   0  0  0  0  0  0  0  0  0  0  0  0
   42.6414    1.4044   -3.9181 C   0  0  1  0  0  0  0  0  0  0  0  0
   41.5668    0.7101   -3.3753 O   0  0  0  0  0  0  0  0  0  0  0  0
   37.9009    0.8863   -5.0082 C   0  0  0  0  0  0  0  0  0  0  0  0
   39.2037   -0.9909   -0.4745 C   0  0  0  0  0  0  0  0  0  0  0  0
   37.9636   -1.4763   -1.0270 N   0  0  0  0  0  0  0  0  0  0  0  0
   38.1883    1.4911   -6.3863 C   0  0  0  0  0  0  0  0  0  0  0  0
   38.0404    0.4320   -7.4365 N   0  0  0  0  0  0  0  0  0  0  0  0
   36.5835    0.1136   -7.8681 C   0  0  0  0  0  0  0  0  0  0  0  0
  1  2  1  6  0  0  0
  1  9  1  0  0  0  0
  1 35  1  0  0  0  0
  3  4  1  1  0  0  0
  3 11  1  0  0  0  0
  3 45  1  0  0  0  0
  5  6  1  0  0  0  0
  5 12  1  0  0  0  0
  5 37  1  1  0  0  0
  6 30  1  0  0  0  0
  7 14  1  0  0  0  0
  7 41  1  0  0  0  0
  7 23  1  6  0  0  0
  8 16  2  0  0  0  0
  8 42  1  0  0  0  0
  9 10  1  6  0  0  0
  9 18  1  0  0  0  0
 11 20  1  0  0  0  0
 12 13  1  6  0  0  0
 12 22  1  0  0  0  0
 13 47  1  0  0  0  0
 14 15  1  6  0  0  0
 14 24  1  0  0  0  0
 16 17  1  0  0  0  0
 17 26  2  0  0  0  0
 18 19  1  6  0  0  0
 18 27  1  0  0  0  0
 20 21  1  1  0  0  0
 20 29  1  0  0  0  0
 22 23  1  1  0  0  0
 22 30  1  0  0  0  0
 24 25  1  1  0  0  0
 24 31  1  0  0  0  0
 26 33  1  0  0  0  0
 27 28  1  6  0  0  0
 27 34  1  0  0  0  0
 29  2  1  6  0  0  0
 29 36  1  0  0  0  0
 30 38  1  1  0  0  0
 31 32  1  6  0  0  0
 31 40  1  0  0  0  0
 33 42  2  0  0  0  0
 34 35  1  0  0  0  0
 34 43  1  1  0  0  0
 36 37  1  1  0  0  0
 36 45  1  0  0  0  0
 38 39  1  0  0  0  0
 40 41  1  0  0  0  0
 40 48  1  6  0  0  0
 43 44  1  0  0  0  0
 45 46  1  6  0  0  0
 47 50  1  0  0  0  0
 48 49  1  0  0  0  0
 50 51  1  0  0  0  0
 51 52  1  0  0  0  0
 52  8  1  0  0  0  0
M  END
>  <CHROM.1>
174.81398265,-149.42965558,65.75748622,62.51924101,-74.56339539,62.83842087
179.52683604,-65.22024327,-155.67518015,141.13398827,174.24819159,-178.19327046
79.78195405,-174.71504573,-67.34607078,40.58435567,2.70733725,-4.65896611
-0.22168372,-0.88717835,-1.57357695

>  <Name>
2be0_lig

>  <RI>
3.37048e+07

>  <Rbt.Current_Directory>
/home/itssahil/PROJECTS/Mol_Feturizer/New_Systems/rnas/2be0

>  <Rbt.Executable>
rbdock ($Id: //depot/dev/client3/rdock/2013.1/src/exe/rbdock.cxx#4 $)

>  <Rbt.Library>
libRbt.so (2013.1, Build901 2013/11/27)

>  <Rbt.Parameter_File>
/export/apps/rDock/src/rDock_2013.1_src/data/scripts/dock_solv.prm

>  <Rbt.Receptor>
prm/pocket_docking_8.prm

>  <SCORE>
-20.7259

>  <SCORE.INTER>
-6.06325

>  <SCORE.INTER.CONST>
1

>  <SCORE.INTER.POLAR>
-1.48031

>  <SCORE.INTER.ROT>
15

>  <SCORE.INTER.SOLV>
9.60933

>  <SCORE.INTER.VDW>
-15.9109

>  <SCORE.INTER.norm>
-0.116601

>  <SCORE.INTRA>
-14.6626

>  <SCORE.INTRA.DIHEDRAL>
-34.0242

>  <SCORE.INTRA.DIHEDRAL.0>
47.8724

>  <SCORE.INTRA.POLAR>
0

>  <SCORE.INTRA.POLAR.0>
0

>  <SCORE.INTRA.REPUL>
0.0924727

>  <SCORE.INTRA.REPUL.0>
0

>  <SCORE.INTRA.SOLV>
0.154532

>  <SCORE.INTRA.SOLV.lig_0>
-115.677

>  <SCORE.INTRA.VDW>
1.80983

>  <SCORE.INTRA.VDW.0>
-7.4833

>  <SCORE.INTRA.norm>
-0.281973

>  <SCORE.RESTR>
0

>  <SCORE.RESTR.CAVITY>
0

>  <SCORE.RESTR.norm>
0

>  <SCORE.SYSTEM>
0

>  <SCORE.SYSTEM.CONST>
0

>  <SCORE.SYSTEM.DIHEDRAL>
0

>  <SCORE.SYSTEM.SOLV>
0

>  <SCORE.SYSTEM.norm>
0

>  <SCORE.heavy>
52

>  <SCORE.norm>
-0.398574

>  <RMSD>
5.546

$$$$
2be0_lig
 OpenBabel11021811423D
libRbt.so/2013.1/901 2013/11/27
 52 56  0  0  0  0  0  0  0  0999 V2000
   46.4461    2.8965   -4.2415 C   0  0  2  0  0  0  0  0  0  0  0  0
   46.7386    3.1473   -5.5959 O   0  0  0  0  0  0  0  0  0  0  0  0
   44.7806    6.1166   -8.1882 C   0  0  2  0  0  0  0  0  0  0  0  0
   43.7654    6.7282   -9.0909 N   0  0  0  0  0  0  0  0  0  0  0  0
   43.4253    4.3047   -4.4533 C   0  0  2  0  0  0  0  0  0  0  0  0
   42.4443    5.3409   -4.6633 O   0  0  0  0  0  0  0  0  0  0  0  0
   42.4976    5.7950    0.0180 C   0  0  1  0  0  0  0  0  0  0  0  0
   37.2870    1.2974   -6.7623 C   0  0  0  0  0  0  0  0  0  0  0  0
   47.6648    2.1982   -3.5116 C   0  0  2  0  0  0  0  0  0  0  0  0
   48.8768    2.9997   -3.6939 N   0  0  0  0  0  0  0  0  0  0  0  0
   45.2741    4.7347   -8.8167 C   0  0  0  0  0  0  0  0  0  0  0  0
   43.1669    3.7274   -3.0524 C   0  0  2  0  0  0  0  0  0  0  0  0
   42.1060    2.6995   -3.2882 O   0  0  0  0  0  0  0  0  0  0  0  0
   42.0108    5.0766    1.3921 C   0  0  2  0  0  0  0  0  0  0  0  0
   40.5323    4.8448    1.3154 N   0  0  0  0  0  0  0  0  0  0  0  0
   36.7125    2.2311   -7.6858 C   0  0  0  0  0  0  0  0  0  0  0  0
   35.4312    1.9741   -8.2401 N   0  0  0  0  0  0  0  0  0  0  0  0
   47.8428    0.7098   -4.0671 C   0  0  1  0  0  0  0  0  0  0  0  0
   48.9435    0.1048   -3.4065 O   0  0  0  0  0  0  0  0  0  0  0  0
   46.3806    4.0232   -7.8476 C   0  0  2  0  0  0  0  0  0  0  0  0
   46.8345    2.7796   -8.4031 N   0  0  0  0  0  0  0  0  0  0  0  0
   42.8154    5.0359   -2.3195 C   0  0  2  0  0  0  0  0  0  0  0  0
   42.1536    4.9169   -1.0688 O   0  0  0  0  0  0  0  0  0  0  0  0
   42.3650    6.0235    2.5783 C   0  0  1  0  0  0  0  0  0  0  0  0
   43.8303    6.1654    2.5668 O   0  0  0  0  0  0  0  0  0  0  0  0
   34.6684    0.8138   -7.9243 C   0  0  0  0  0  0  0  0  0  0  0  0
   46.5193   -0.0717   -3.8224 C   0  0  2  0  0  0  0  0  0  0  0  0
   46.6223   -1.4640   -4.3225 O   0  0  0  0  0  0  0  0  0  0  0  0
   45.7549    3.7676   -6.4149 C   0  0  2  0  0  0  0  0  0  0  0  0
   42.0169    5.8347   -3.3771 C   0  0  1  0  0  0  0  0  0  0  0  0
   41.6334    7.4625    2.3789 C   0  0  2  0  0  0  0  0  0  0  0  0
   40.1683    7.3283    2.3890 O   0  0  0  0  0  0  0  0  0  0  0  0
   35.1842   -0.1441   -7.0168 C   0  0  0  0  0  0  0  0  0  0  0  0
   45.3178    0.6390   -4.5564 C   0  0  2  0  0  0  0  0  0  0  0  0
   45.2717    1.9933   -4.0286 O   0  0  0  0  0  0  0  0  0  0  0  0
   45.2780    5.1500   -5.8487 C   0  0  2  0  0  0  0  0  0  0  0  0
   44.7530    4.8052   -4.5725 O   0  0  0  0  0  0  0  0  0  0  0  0
   42.3376    7.3280   -3.3440 C   0  0  0  0  0  0  0  0  0  0  0  0
   41.2794    8.1829   -3.7053 O   0  0  0  0  0  0  0  0  0  0  0  0
   42.1026    8.1099    0.9956 C   0  0  1  0  0  0  0  0  0  0  0  0
   41.7830    7.1387   -0.1222 O   0  0  0  0  0  0  0  0  0  0  0  0
   36.5178    0.0774   -6.4114 C   0  0  0  0  0  0  0  0  0  0  0  0
   44.0957   -0.1301   -4.2717 C   0  0  0  0  0  0  0  0  0  0  0  0
   44.1060   -1.2639   -4.9839 O   0  0  0  0  0  0  0  0  0  0  0  0
   44.1833    5.7974   -6.7973 C   0  0  1  0  0  0  0  0  0  0  0  0
   43.7788    7.0255   -6.2877 O   0  0  0  0  0  0  0  0  0  0  0  0
   40.7592    2.8883   -3.8771 C   0  0  0  0  0  0  0  0  0  0  0  0
   41.3667    9.4701    0.8549 C   0  0  0  0  0  0  0  0  0  0  0  0
   41.6431   10.0662   -0.4285 N   0  0  0  0  0  0  0  0  0  0  0  0
   40.1033    1.5063   -3.9606 C   0  0  0  0  0  0  0  0  0  0  0  0
   38.7523    1.6329   -4.5974 N   0  0  0  0  0  0  0  0  0  0  0  0
   38.7377    1.6146   -6.1497 C   0  0  0  0  0  0  0  0  0  0  0  0
  1  2  1  6  0  0  0
  1  9  1  0  0  0  0
  1 35  1  0  0  0  0
  3  4  1  6  0  0  0
  3 11  1  0  0  0  0
  3 45  1  0  0  0  0
  5  6  1  0  0  0  0
  5 12  1  0  0  0  0
  5 37  1  1  0  0  0
  6 30  1  0  0  0  0
  7 14  1  0  0  0  0
  7 41  1  0  0  0  0
  7 23  1  6  0  0  0
  8 16  2  0  0  0  0
  8 42  1  0  0  0  0
  9 10  1  6  0  0  0
  9 18  1  0  0  0  0
 11 20  1  0  0  0  0
 12 13  1  6  0  0  0
 12 22  1  0  0  0  0
 13 47  1  0  0  0  0
 14 15  1  6  0  0  0
 14 24  1  0  0  0  0
 16 17  1  0  0  0  0
 17 26  2  0  0  0  0
 18 19  1  1  0  0  0
 18 27  1  0  0  0  0
 20 21  1  6  0  0  0
 20 29  1  0  0  0  0
 22 23  1  1  0  0  0
 22 30  1  0  0  0  0
 24 25  1  6  0  0  0
 24 31  1  0  0  0  0
 26 33  1  0  0  0  0
 27 28  1  6  0  0  0
 27 34  1  0  0  0  0
 29  2  1  1  0  0  0
 29 36  1  0  0  0  0
 30 38  1  6  0  0  0
 31 32  1  6  0  0  0
 31 40  1  0  0  0  0
 33 42  2  0  0  0  0
 34 35  1  0  0  0  0
 34 43  1  1  0  0  0
 36 37  1  1  0  0  0
 36 45  1  0  0  0  0
 38 39  1  0  0  0  0
 40 41  1  0  0  0  0
 40 48  1  6  0  0  0
 43 44  1  0  0  0  0
 45 46  1  1  0  0  0
 47 50  1  0  0  0  0
 48 49  1  0  0  0  0
 50 51  1  0  0  0  0
 51 52  1  0  0  0  0
 52  8  1  0  0  0  0
M  END
>  <CHROM.1>
179.74534652,-72.58569381,-159.26280063,-58.21268720,177.05739851,140.57012659
175.94354628,95.06159418,-74.33651742,-82.60183533,-174.81434564,-177.97318073
84.96165536,162.19531213,124.07769837,42.84357917,3.89060091,-3.81516655
-1.46143673,-0.05096790,0.91603861

>  <Name>
2be0_lig

>  <RI>
2.75444e+07

>  <Rbt.Current_Directory>
/home/itssahil/PROJECTS/Mol_Feturizer/New_Systems/rnas/2be0

>  <Rbt.Executable>
rbdock ($Id: //depot/dev/client3/rdock/2013.1/src/exe/rbdock.cxx#4 $)

>  <Rbt.Library>
libRbt.so (2013.1, Build901 2013/11/27)

>  <Rbt.Parameter_File>
/export/apps/rDock/src/rDock_2013.1_src/data/scripts/dock_solv.prm

>  <Rbt.Receptor>
prm/pocket_docking_5.prm

>  <SCORE>
-15.2251

>  <SCORE.INTER>
-1.44698

>  <SCORE.INTER.CONST>
1

>  <SCORE.INTER.POLAR>
-0.463588

>  <SCORE.INTER.ROT>
15

>  <SCORE.INTER.SOLV>
14.4088

>  <SCORE.INTER.VDW>
-17.8223

>  <SCORE.INTER.norm>
-0.0278265

>  <SCORE.INTRA>
-13.8004

>  <SCORE.INTRA.DIHEDRAL>
-31.485

>  <SCORE.INTRA.DIHEDRAL.0>
47.8724

>  <SCORE.INTRA.POLAR>
0

>  <SCORE.INTRA.POLAR.0>
0

>  <SCORE.INTRA.REPUL>
0

>  <SCORE.INTRA.REPUL.0>
0

>  <SCORE.INTRA.SOLV>
-3.22649

>  <SCORE.INTRA.SOLV.lig_0>
-115.677

>  <SCORE.INTRA.VDW>
3.55533

>  <SCORE.INTRA.VDW.0>
-7.4833

>  <SCORE.INTRA.norm>
-0.265392

>  <SCORE.RESTR>
0.0222726

>  <SCORE.RESTR.CAVITY>
0.0222726

>  <SCORE.RESTR.norm>
0.000428319

>  <SCORE.SYSTEM>
0

>  <SCORE.SYSTEM.CONST>
0

>  <SCORE.SYSTEM.DIHEDRAL>
0

>  <SCORE.SYSTEM.SOLV>
0

>  <SCORE.SYSTEM.norm>
0

>  <SCORE.heavy>
52

>  <SCORE.norm>
-0.292791

>  <RMSD>
5.572

$$$$
2be0_lig
 OpenBabel11021811423D
libRbt.so/2013.1/901 2013/11/27
 52 56  0  0  0  0  0  0  0  0999 V2000
   45.7610    7.8622   -6.9922 C   0  0  2  0  0  0  0  0  0  0  0  0
   46.6784    6.9446   -7.5392 O   0  0  0  0  0  0  0  0  0  0  0  0
   50.4528    5.1334   -6.1812 C   0  0  2  0  0  0  0  0  0  0  0  0
   51.8273    5.0294   -5.6160 N   0  0  0  0  0  0  0  0  0  0  0  0
   46.3479    5.5134   -3.9461 C   0  0  2  0  0  0  0  0  0  0  0  0
   46.4638    4.1233   -4.3129 O   0  0  0  0  0  0  0  0  0  0  0  0
   42.0665    5.8148   -5.1643 C   0  0  1  0  0  0  0  0  0  0  0  0
   42.2419    6.0634    2.2907 C   0  0  0  0  0  0  0  0  0  0  0  0
   44.3221    7.6818   -7.6269 C   0  0  2  0  0  0  0  0  0  0  0  0
   43.8892    6.2900   -7.4853 N   0  0  0  0  0  0  0  0  0  0  0  0
   50.4708    6.1439   -7.4168 C   0  0  0  0  0  0  0  0  0  0  0  0
   44.8470    5.8446   -3.9337 C   0  0  2  0  0  0  0  0  0  0  0  0
   44.4086    5.4290   -2.5654 O   0  0  0  0  0  0  0  0  0  0  0  0
   41.8560    6.0767   -3.5742 C   0  0  2  0  0  0  0  0  0  0  0  0
   41.3695    4.8096   -2.9389 N   0  0  0  0  0  0  0  0  0  0  0  0
   42.0263    6.7098    3.5518 C   0  0  0  0  0  0  0  0  0  0  0  0
   40.8574    6.4161    4.3019 N   0  0  0  0  0  0  0  0  0  0  0  0
   44.3469    8.1480   -9.1559 C   0  0  1  0  0  0  0  0  0  0  0  0
   43.0514    7.9713   -9.7077 O   0  0  0  0  0  0  0  0  0  0  0  0
   48.9757    6.2972   -8.0579 C   0  0  2  0  0  0  0  0  0  0  0  0
   48.9787    7.2024   -9.1723 N   0  0  0  0  0  0  0  0  0  0  0  0
   44.4135    5.0193   -5.1600 C   0  0  2  0  0  0  0  0  0  0  0  0
   43.0260    4.7510   -5.2991 O   0  0  0  0  0  0  0  0  0  0  0  0
   40.8077    7.2186   -3.4122 C   0  0  1  0  0  0  0  0  0  0  0  0
   41.3935    8.4075   -4.0531 O   0  0  0  0  0  0  0  0  0  0  0  0
   39.8640    5.4960    3.8608 C   0  0  0  0  0  0  0  0  0  0  0  0
   44.8031    9.6348   -9.2130 C   0  0  2  0  0  0  0  0  0  0  0  0
   44.8496   10.1246  -10.6119 O   0  0  0  0  0  0  0  0  0  0  0  0
   47.9682    6.8196   -6.9526 C   0  0  2  0  0  0  0  0  0  0  0  0
   45.2907    3.7484   -5.0638 C   0  0  1  0  0  0  0  0  0  0  0  0
   39.4089    6.7951   -4.1262 C   0  0  2  0  0  0  0  0  0  0  0  0
   38.8176    5.6070   -3.4911 O   0  0  0  0  0  0  0  0  0  0  0  0
   40.0232    4.8258    2.6228 C   0  0  0  0  0  0  0  0  0  0  0  0
   46.2372    9.7943   -8.5761 C   0  0  2  0  0  0  0  0  0  0  0  0
   46.1274    9.2963   -7.2142 O   0  0  0  0  0  0  0  0  0  0  0  0
   47.9965    5.8006   -5.7610 C   0  0  2  0  0  0  0  0  0  0  0  0
   47.0589    6.3563   -4.8470 O   0  0  0  0  0  0  0  0  0  0  0  0
   45.7720    3.2675   -6.4318 C   0  0  0  0  0  0  0  0  0  0  0  0
   46.2919    4.2663   -7.2764 O   0  0  0  0  0  0  0  0  0  0  0  0
   39.6707    6.5003   -5.6746 C   0  0  1  0  0  0  0  0  0  0  0  0
   40.7273    5.4206   -5.7862 O   0  0  0  0  0  0  0  0  0  0  0  0
   41.2257    5.0983    1.8019 C   0  0  0  0  0  0  0  0  0  0  0  0
   46.6038   11.2183   -8.6391 C   0  0  0  0  0  0  0  0  0  0  0  0
   46.7155   11.5941   -9.9193 O   0  0  0  0  0  0  0  0  0  0  0  0
   49.4546    5.6996   -5.1437 C   0  0  1  0  0  0  0  0  0  0  0  0
   49.4654    4.7859   -4.0965 O   0  0  0  0  0  0  0  0  0  0  0  0
   44.6017    6.1449   -1.2822 C   0  0  0  0  0  0  0  0  0  0  0  0
   38.3086    6.0919   -6.2986 C   0  0  0  0  0  0  0  0  0  0  0  0
   37.8887    4.8050   -5.8024 N   0  0  0  0  0  0  0  0  0  0  0  0
   43.3476    6.9916   -1.0425 C   0  0  0  0  0  0  0  0  0  0  0  0
   43.3460    7.4918    0.3705 N   0  0  0  0  0  0  0  0  0  0  0  0
   43.5740    6.4139    1.4642 C   0  0  0  0  0  0  0  0  0  0  0  0
  1  2  1  6  0  0  0
  1  9  1  0  0  0  0
  1 35  1  0  0  0  0
  3  4  1  1  0  0  0
  3 11  1  0  0  0  0
  3 45  1  0  0  0  0
  5  6  1  0  0  0  0
  5 12  1  0  0  0  0
  5 37  1  6  0  0  0
  6 30  1  0  0  0  0
  7 14  1  0  0  0  0
  7 41  1  0  0  0  0
  7 23  1  1  0  0  0
  8 16  2  0  0  0  0
  8 42  1  0  0  0  0
  9 10  1  6  0  0  0
  9 18  1  0  0  0  0
 11 20  1  0  0  0  0
 12 13  1  1  0  0  0
 12 22  1  0  0  0  0
 13 47  1  0  0  0  0
 14 15  1  1  0  0  0
 14 24  1  0  0  0  0
 16 17  1  0  0  0  0
 17 26  2  0  0  0  0
 18 19  1  1  0  0  0
 18 27  1  0  0  0  0
 20 21  1  6  0  0  0
 20 29  1  0  0  0  0
 22 23  1  1  0  0  0
 22 30  1  0  0  0  0
 24 25  1  6  0  0  0
 24 31  1  0  0  0  0
 26 33  1  0  0  0  0
 27 28  1  6  0  0  0
 27 34  1  0  0  0  0
 29  2  1  6  0  0  0
 29 36  1  0  0  0  0
 30 38  1  6  0  0  0
 31 32  1  1  0  0  0
 31 40  1  0  0  0  0
 33 42  2  0  0  0  0
 34 35  1  0  0  0  0
 34 43  1  1  0  0  0
 36 37  1  1  0  0  0
 36 45  1  0  0  0  0
 38 39  1  0  0  0  0
 40 41  1  0  0  0  0
 40 48  1  1  0  0  0
 43 44  1  0  0  0  0
 45 46  1  1  0  0  0
 47 50  1  0  0  0  0
 48 49  1  0  0  0  0
 50 51  1  0  0  0  0
 51 52  1  0  0  0  0
 52  8  1  0  0  0  0
M  END
>  <CHROM.1>
-170.65465122,-13.78376215,-79.59195414,77.82359164,93.53298551,48.39852457
-154.20299246,-69.80942115,-64.65103041,152.13065427,-69.03461319,167.31603296
-50.78684730,-107.07448203,-96.88265891,44.37199956,6.49564660,-4.74409682
0.92101046,0.13040386,-1.27379566

>  <Name>
2be0_lig

>  <RI>
224

>  <Rbt.Current_Directory>
/home/itssahil/PROJECTS/Mol_Feturizer/New_Systems/rnas/2be0

>  <Rbt.Executable>
rbdock ($Id: //depot/dev/client3/rdock/2013.1/src/exe/rbdock.cxx#4 $)

>  <Rbt.Library>
libRbt.so (2013.1, Build901 2013/11/27)

>  <Rbt.Parameter_File>
/export/apps/rDock/src/rDock_2013.1_src/data/scripts/dock_solv.prm

>  <Rbt.Receptor>
prm/blind_docking_100.prm

>  <SCORE>
14.759

>  <SCORE.INTER>
3.05017

>  <SCORE.INTER.CONST>
1

>  <SCORE.INTER.POLAR>
-0.848453

>  <SCORE.INTER.ROT>
15

>  <SCORE.INTER.SOLV>
29.0728

>  <SCORE.INTER.VDW>
-18.4293

>  <SCORE.INTER.norm>
0.0586571

>  <SCORE.INTRA>
-5.0514

>  <SCORE.INTRA.DIHEDRAL>
-23.5877

>  <SCORE.INTRA.DIHEDRAL.0>
47.8724

>  <SCORE.INTRA.POLAR>
0

>  <SCORE.INTRA.POLAR.0>
0

>  <SCORE.INTRA.REPUL>
0.00979799

>  <SCORE.INTRA.REPUL.0>
0

>  <SCORE.INTRA.SOLV>
7.71672

>  <SCORE.INTRA.SOLV.lig_0>
-115.677

>  <SCORE.INTRA.VDW>
2.83509

>  <SCORE.INTRA.VDW.0>
-7.4833

>  <SCORE.INTRA.norm>
-0.0971424

>  <SCORE.RESTR>
16.7602

>  <SCORE.RESTR.CAVITY>
16.7602

>  <SCORE.RESTR.norm>
0.322312

>  <SCORE.SYSTEM>
0

>  <SCORE.SYSTEM.CONST>
0

>  <SCORE.SYSTEM.DIHEDRAL>
0

>  <SCORE.SYSTEM.SOLV>
0

>  <SCORE.SYSTEM.norm>
0

>  <SCORE.heavy>
52

>  <SCORE.norm>
0.283827

>  <RMSD>
5.650

$$$$
2be0_lig
 OpenBabel11021811423D
libRbt.so/2013.1/901 2013/11/27
 52 56  0  0  0  0  0  0  0  0999 V2000
   44.8404    7.5626   -7.9960 C   0  0  2  0  0  0  0  0  0  0  0  0
   45.8450    6.7251   -8.5176 O   0  0  0  0  0  0  0  0  0  0  0  0
   48.8105    3.9257   -6.8622 C   0  0  2  0  0  0  0  0  0  0  0  0
   49.8591    3.3770   -5.9573 N   0  0  0  0  0  0  0  0  0  0  0  0
   45.1398    5.9047   -5.2839 C   0  0  2  0  0  0  0  0  0  0  0  0
   45.8570    5.3375   -4.1684 O   0  0  0  0  0  0  0  0  0  0  0  0
   42.3429    3.9029   -1.9936 C   0  0  1  0  0  0  0  0  0  0  0  0
   40.3703    7.6040    0.5308 C   0  0  0  0  0  0  0  0  0  0  0  0
   43.4117    7.1511   -8.5394 C   0  0  2  0  0  0  0  0  0  0  0  0
   43.1684    5.7326   -8.2689 N   0  0  0  0  0  0  0  0  0  0  0  0
   49.2990    5.3333   -7.4351 C   0  0  0  0  0  0  0  0  0  0  0  0
   43.7050    6.1688   -4.8000 C   0  0  2  0  0  0  0  0  0  0  0  0
   43.7965    7.5139   -4.1524 O   0  0  0  0  0  0  0  0  0  0  0  0
   42.0255    2.5061   -2.7613 C   0  0  2  0  0  0  0  0  0  0  0  0
   40.7465    2.6587   -3.5272 N   0  0  0  0  0  0  0  0  0  0  0  0
   38.9783    7.2742    0.4389 C   0  0  0  0  0  0  0  0  0  0  0  0
   38.1826    7.2483    1.6142 N   0  0  0  0  0  0  0  0  0  0  0  0
   43.3124    7.4882  -10.0990 C   0  0  1  0  0  0  0  0  0  0  0  0
   42.0287    7.1053  -10.5676 O   0  0  0  0  0  0  0  0  0  0  0  0
   48.1682    5.9771   -8.4235 C   0  0  2  0  0  0  0  0  0  0  0  0
   48.5967    7.2432   -8.9476 N   0  0  0  0  0  0  0  0  0  0  0  0
   43.5147    4.9118   -3.9302 C   0  0  2  0  0  0  0  0  0  0  0  0
   42.4443    4.9291   -2.9973 O   0  0  0  0  0  0  0  0  0  0  0  0
   41.8992    1.3865   -1.6845 C   0  0  1  0  0  0  0  0  0  0  0  0
   43.2068    1.3146   -1.0119 O   0  0  0  0  0  0  0  0  0  0  0  0
   38.7019    7.5363    2.9085 C   0  0  0  0  0  0  0  0  0  0  0  0
   43.5700    9.0107  -10.2940 C   0  0  2  0  0  0  0  0  0  0  0  0
   43.4945    9.3846  -11.7270 O   0  0  0  0  0  0  0  0  0  0  0  0
   46.8074    6.1626   -7.6340 C   0  0  2  0  0  0  0  0  0  0  0  0
   44.9059    4.7105   -3.2835 C   0  0  1  0  0  0  0  0  0  0  0  0
   40.7162    1.7580   -0.6317 C   0  0  2  0  0  0  0  0  0  0  0  0
   39.4062    1.8319   -1.2971 O   0  0  0  0  0  0  0  0  0  0  0  0
   40.0702    7.8699    3.0614 C   0  0  0  0  0  0  0  0  0  0  0  0
   44.9967    9.4010   -9.7466 C   0  0  2  0  0  0  0  0  0  0  0  0
   45.0089    9.0079   -8.3465 O   0  0  0  0  0  0  0  0  0  0  0  0
   46.3788    4.7577   -7.0849 C   0  0  2  0  0  0  0  0  0  0  0  0
   45.1562    5.0394   -6.4146 O   0  0  0  0  0  0  0  0  0  0  0  0
   45.2945    3.2364   -3.1838 C   0  0  0  0  0  0  0  0  0  0  0  0
   44.9266    2.4374   -4.2827 O   0  0  0  0  0  0  0  0  0  0  0  0
   41.0441    3.1589    0.0630 C   0  0  1  0  0  0  0  0  0  0  0  0
   41.2048    4.2061   -1.0196 O   0  0  0  0  0  0  0  0  0  0  0  0
   40.9433    7.9099    1.8654 C   0  0  0  0  0  0  0  0  0  0  0  0
   45.1733   10.8495   -9.9379 C   0  0  0  0  0  0  0  0  0  0  0  0
   45.2715   11.1181  -11.2459 O   0  0  0  0  0  0  0  0  0  0  0  0
   47.4842    4.1766   -6.1063 C   0  0  1  0  0  0  0  0  0  0  0  0
   47.0946    2.9279   -5.6367 O   0  0  0  0  0  0  0  0  0  0  0  0
   43.0567    8.0164   -2.9707 C   0  0  0  0  0  0  0  0  0  0  0  0
   39.8803    3.4655    1.0445 C   0  0  0  0  0  0  0  0  0  0  0  0
   39.9944    4.8056    1.5639 N   0  0  0  0  0  0  0  0  0  0  0  0
   43.6368    7.3124   -1.7398 C   0  0  0  0  0  0  0  0  0  0  0  0
   42.7751    7.6008   -0.5477 N   0  0  0  0  0  0  0  0  0  0  0  0
   41.2461    7.6270   -0.8155 C   0  0  0  0  0  0  0  0  0  0  0  0
  1  2  1  6  0  0  0
  1  9  1  0  0  0  0
  1 35  1  0  0  0  0
  3  4  1  1  0  0  0
  3 11  1  0  0  0  0
  3 45  1  0  0  0  0
  5  6  1  0  0  0  0
  5 12  1  0  0  0  0
  5 37  1  6  0  0  0
  6 30  1  0  0  0  0
  7 14  1  0  0  0  0
  7 41  1  0  0  0  0
  7 23  1  6  0  0  0
  8 16  2  0  0  0  0
  8 42  1  0  0  0  0
  9 10  1  6  0  0  0
  9 18  1  0  0  0  0
 11 20  1  0  0  0  0
 12 13  1  1  0  0  0
 12 22  1  0  0  0  0
 13 47  1  0  0  0  0
 14 15  1  1  0  0  0
 14 24  1  0  0  0  0
 16 17  1  0  0  0  0
 17 26  2  0  0  0  0
 18 19  1  1  0  0  0
 18 27  1  0  0  0  0
 20 21  1  1  0  0  0
 20 29  1  0  0  0  0
 22 23  1  1  0  0  0
 22 30  1  0  0  0  0
 24 25  1  1  0  0  0
 24 31  1  0  0  0  0
 26 33  1  0  0  0  0
 27 28  1  6  0  0  0
 27 34  1  0  0  0  0
 29  2  1  6  0  0  0
 29 36  1  0  0  0  0
 30 38  1  6  0  0  0
 31 32  1  6  0  0  0
 31 40  1  0  0  0  0
 33 42  2  0  0  0  0
 34 35  1  0  0  0  0
 34 43  1  1  0  0  0
 36 37  1  1  0  0  0
 36 45  1  0  0  0  0
 38 39  1  0  0  0  0
 40 41  1  0  0  0  0
 40 48  1  1  0  0  0
 43 44  1  0  0  0  0
 45 46  1  6  0  0  0
 47 50  1  0  0  0  0
 48 49  1  0  0  0  0
 50 51  1  0  0  0  0
 51 52  1  0  0  0  0
 52  8  1  0  0  0  0
M  END
>  <CHROM.1>
-131.99452517,-65.94138609,-66.96498045,-145.70532857,72.49946755,-169.06361725
-149.35373293,-77.60344892,-68.73447013,-63.50630909,-171.31897308,-170.30980989
38.74748621,166.84755181,-163.86020065,43.63336531,5.79269222,-4.47003416
0.84813113,0.76089207,-0.77481122

>  <Name>
2be0_lig

>  <RI>
0

>  <Rbt.Current_Directory>
/home/itssahil/PROJECTS/Mol_Feturizer/New_Systems/rnas/2be0

>  <Rbt.Executable>
rbdock ($Id: //depot/dev/client3/rdock/2013.1/src/exe/rbdock.cxx#4 $)

>  <Rbt.Library>
libRbt.so (2013.1, Build901 2013/11/27)

>  <Rbt.Parameter_File>
/export/apps/rDock/src/rDock_2013.1_src/data/scripts/dock_solv.prm

>  <Rbt.Receptor>
prm/pocket_docking_2.prm

>  <SCORE>
-1.27247

>  <SCORE.INTER>
-2.68783

>  <SCORE.INTER.CONST>
1

>  <SCORE.INTER.POLAR>
0

>  <SCORE.INTER.ROT>
15

>  <SCORE.INTER.SOLV>
16.6227

>  <SCORE.INTER.VDW>
-20.9328

>  <SCORE.INTER.norm>
-0.051689

>  <SCORE.INTRA>
-7.4306

>  <SCORE.INTRA.DIHEDRAL>
-28.3727

>  <SCORE.INTRA.DIHEDRAL.0>
47.8724

>  <SCORE.INTRA.POLAR>
0

>  <SCORE.INTRA.POLAR.0>
0

>  <SCORE.INTRA.REPUL>
0

>  <SCORE.INTRA.REPUL.0>
0

>  <SCORE.INTRA.SOLV>
8.2655

>  <SCORE.INTRA.SOLV.lig_0>
-115.677

>  <SCORE.INTRA.VDW>
2.62302

>  <SCORE.INTRA.VDW.0>
-7.4833

>  <SCORE.INTRA.norm>
-0.142896

>  <SCORE.RESTR>
8.84596

>  <SCORE.RESTR.CAVITY>
8.84596

>  <SCORE.RESTR.norm>
0.170115

>  <SCORE.SYSTEM>
0

>  <SCORE.SYSTEM.CONST>
0

>  <SCORE.SYSTEM.DIHEDRAL>
0

>  <SCORE.SYSTEM.SOLV>
0

>  <SCORE.SYSTEM.norm>
0

>  <SCORE.heavy>
52

>  <SCORE.norm>
-0.0244706

>  <RMSD>
5.674

$$$$
2be0_lig
 OpenBabel11021811423D
libRbt.so/2013.1/901 2013/11/27
 52 56  0  0  0  0  0  0  0  0999 V2000
   46.4685    1.6158   -6.3971 C   0  0  2  0  0  0  0  0  0  0  0  0
   45.4827    1.5382   -5.3947 O   0  0  0  0  0  0  0  0  0  0  0  0
   41.8820    1.4173   -7.9227 C   0  0  2  0  0  0  0  0  0  0  0  0
   40.4424    1.3419   -8.2990 N   0  0  0  0  0  0  0  0  0  0  0  0
   43.3766    4.0196   -4.5966 C   0  0  2  0  0  0  0  0  0  0  0  0
   42.0023    4.4306   -4.7478 O   0  0  0  0  0  0  0  0  0  0  0  0
   42.8438    7.6317   -2.2906 C   0  0  1  0  0  0  0  0  0  0  0  0
   41.4990    0.7253   -0.8972 C   0  0  0  0  0  0  0  0  0  0  0  0
   47.9168    1.4026   -5.7947 C   0  0  2  0  0  0  0  0  0  0  0  0
   47.9621    0.1442   -5.0471 N   0  0  0  0  0  0  0  0  0  0  0  0
   42.2579    0.1440   -7.0364 C   0  0  0  0  0  0  0  0  0  0  0  0
   44.0700    5.0963   -3.7468 C   0  0  2  0  0  0  0  0  0  0  0  0
   43.7721    4.6783   -2.3418 O   0  0  0  0  0  0  0  0  0  0  0  0
   42.6079    9.2084   -1.9752 C   0  0  2  0  0  0  0  0  0  0  0  0
   43.9335    9.9068   -1.9995 N   0  0  0  0  0  0  0  0  0  0  0  0
   40.2188    0.0805   -0.8937 C   0  0  0  0  0  0  0  0  0  0  0  0
   39.7758   -0.6097   -2.0523 N   0  0  0  0  0  0  0  0  0  0  0  0
   48.3088    2.6552   -4.8819 C   0  0  1  0  0  0  0  0  0  0  0  0
   49.6054    2.4412   -4.3461 O   0  0  0  0  0  0  0  0  0  0  0  0
   43.8288    0.1959   -6.5899 C   0  0  2  0  0  0  0  0  0  0  0  0
   44.1804   -0.9458   -5.7935 N   0  0  0  0  0  0  0  0  0  0  0  0
   43.3818    6.3417   -4.3370 C   0  0  2  0  0  0  0  0  0  0  0  0
   43.4668    7.5430   -3.5847 O   0  0  0  0  0  0  0  0  0  0  0  0
   41.9453    9.3209   -0.5690 C   0  0  1  0  0  0  0  0  0  0  0  0
   40.6542    8.6202   -0.6663 O   0  0  0  0  0  0  0  0  0  0  0  0
   40.5486   -0.6976   -3.2453 C   0  0  0  0  0  0  0  0  0  0  0  0
   48.2477    3.9424   -5.7545 C   0  0  2  0  0  0  0  0  0  0  0  0
   48.5991    5.1432   -4.9584 O   0  0  0  0  0  0  0  0  0  0  0  0
   44.1109    1.5219   -5.7703 C   0  0  2  0  0  0  0  0  0  0  0  0
   41.9326    5.8628   -4.5909 C   0  0  1  0  0  0  0  0  0  0  0  0
   42.9027    8.6359    0.5536 C   0  0  2  0  0  0  0  0  0  0  0  0
   44.1953    9.3309    0.6562 O   0  0  0  0  0  0  0  0  0  0  0  0
   41.8225   -0.0809   -3.3076 C   0  0  0  0  0  0  0  0  0  0  0  0
   46.7985    4.1371   -6.3457 C   0  0  2  0  0  0  0  0  0  0  0  0
   46.5126    2.9322   -7.1081 O   0  0  0  0  0  0  0  0  0  0  0  0
   43.7162    2.7376   -6.6788 C   0  0  2  0  0  0  0  0  0  0  0  0
   44.0192    3.8584   -5.8570 O   0  0  0  0  0  0  0  0  0  0  0  0
   41.3514    6.4254   -5.8869 C   0  0  0  0  0  0  0  0  0  0  0  0
   40.0389    6.0170   -6.1896 O   0  0  0  0  0  0  0  0  0  0  0  0
   43.1475    7.1021    0.1787 C   0  0  1  0  0  0  0  0  0  0  0  0
   43.7471    7.0370   -1.2109 O   0  0  0  0  0  0  0  0  0  0  0  0
   42.3300    0.6525   -2.1249 C   0  0  0  0  0  0  0  0  0  0  0  0
   46.8085    5.3527   -7.1754 C   0  0  0  0  0  0  0  0  0  0  0  0
   45.5650    5.6156   -7.5966 O   0  0  0  0  0  0  0  0  0  0  0  0
   42.1794    2.6718   -7.0677 C   0  0  1  0  0  0  0  0  0  0  0  0
   41.8480    3.7493   -7.8805 O   0  0  0  0  0  0  0  0  0  0  0  0
   44.0528    3.3763   -1.6920 C   0  0  0  0  0  0  0  0  0  0  0  0
   44.0727    6.5061    1.2742 C   0  0  0  0  0  0  0  0  0  0  0  0
   43.3317    6.2627    2.4868 N   0  0  0  0  0  0  0  0  0  0  0  0
   43.5093    3.4570   -0.2619 C   0  0  0  0  0  0  0  0  0  0  0  0
   43.4112    2.0763    0.3132 N   0  0  0  0  0  0  0  0  0  0  0  0
   41.9752    1.4977    0.4283 C   0  0  0  0  0  0  0  0  0  0  0  0
  1  2  1  1  0  0  0
  1  9  1  0  0  0  0
  1 35  1  0  0  0  0
  3  4  1  1  0  0  0
  3 11  1  0  0  0  0
  3 45  1  0  0  0  0
  5  6  1  0  0  0  0
  5 12  1  0  0  0  0
  5 37  1  6  0  0  0
  6 30  1  0  0  0  0
  7 14  1  0  0  0  0
  7 41  1  0  0  0  0
  7 23  1  6  0  0  0
  8 16  2  0  0  0  0
  8 42  1  0  0  0  0
  9 10  1  1  0  0  0
  9 18  1  0  0  0  0
 11 20  1  0  0  0  0
 12 13  1  1  0  0  0
 12 22  1  0  0  0  0
 13 47  1  0  0  0  0
 14 15  1  1  0  0  0
 14 24  1  0  0  0  0
 16 17  1  0  0  0  0
 17 26  2  0  0  0  0
 18 19  1  6  0  0  0
 18 27  1  0  0  0  0
 20 21  1  1  0  0  0
 20 29  1  0  0  0  0
 22 23  1  1  0  0  0
 22 30  1  0  0  0  0
 24 25  1  6  0  0  0
 24 31  1  0  0  0  0
 26 33  1  0  0  0  0
 27 28  1  1  0  0  0
 27 34  1  0  0  0  0
 29  2  1  6  0  0  0
 29 36  1  0  0  0  0
 30 38  1  6  0  0  0
 31 32  1  6  0  0  0
 31 40  1  0  0  0  0
 33 42  2  0  0  0  0
 34 35  1  0  0  0  0
 34 43  1  6  0  0  0
 36 37  1  1  0  0  0
 36 45  1  0  0  0  0
 38 39  1  0  0  0  0
 40 41  1  0  0  0  0
 40 48  1  1  0  0  0
 43 44  1  0  0  0  0
 45 46  1  6  0  0  0
 47 50  1  0  0  0  0
 48 49  1  0  0  0  0
 50 51  1  0  0  0  0
 51 52  1  0  0  0  0
 52  8  1  0  0  0  0
M  END
>  <CHROM.1>
-171.45151781,-73.68256536,-158.04423219,55.48948732,-178.27883185,-64.65332464
64.78416390,63.00023716,-174.49377971,-59.78189391,75.92723608,164.17556063
-105.96556630,88.35818435,176.62059641,43.73258896,3.98855655,-3.80927134
-1.29472044,0.73430929,0.55913129

>  <Name>
2be0_lig

>  <RI>
0

>  <Rbt.Current_Directory>
/home/itssahil/PROJECTS/Mol_Feturizer/New_Systems/rnas/2be0

>  <Rbt.Executable>
rbdock ($Id: //depot/dev/client3/rdock/2013.1/src/exe/rbdock.cxx#4 $)

>  <Rbt.Library>
libRbt.so (2013.1, Build901 2013/11/27)

>  <Rbt.Parameter_File>
/export/apps/rDock/src/rDock_2013.1_src/data/scripts/dock_solv.prm

>  <Rbt.Receptor>
prm/pocket_docking_4.prm

>  <SCORE>
-22.4473

>  <SCORE.INTER>
-2.37545

>  <SCORE.INTER.CONST>
1

>  <SCORE.INTER.POLAR>
-0.979796

>  <SCORE.INTER.ROT>
15

>  <SCORE.INTER.SOLV>
19.8162

>  <SCORE.INTER.VDW>
-18.5231

>  <SCORE.INTER.norm>
-0.0456817

>  <SCORE.INTRA>
-20.0778

>  <SCORE.INTRA.DIHEDRAL>
-39.4836

>  <SCORE.INTRA.DIHEDRAL.0>
47.8724

>  <SCORE.INTRA.POLAR>
0

>  <SCORE.INTRA.POLAR.0>
0

>  <SCORE.INTRA.REPUL>
0

>  <SCORE.INTRA.REPUL.0>
0

>  <SCORE.INTRA.SOLV>
-0.378012

>  <SCORE.INTRA.SOLV.lig_0>
-115.677

>  <SCORE.INTRA.VDW>
-0.146959

>  <SCORE.INTRA.VDW.0>
-7.4833

>  <SCORE.INTRA.norm>
-0.386111

>  <SCORE.RESTR>
0.00592176

>  <SCORE.RESTR.CAVITY>
0.00592176

>  <SCORE.RESTR.norm>
0.00011388

>  <SCORE.SYSTEM>
0

>  <SCORE.SYSTEM.CONST>
0

>  <SCORE.SYSTEM.DIHEDRAL>
0

>  <SCORE.SYSTEM.SOLV>
0

>  <SCORE.SYSTEM.norm>
0

>  <SCORE.heavy>
52

>  <SCORE.norm>
-0.431679

>  <RMSD>
5.677

$$$$
2be0_lig
 OpenBabel11021811423D
libRbt.so/2013.1/901 2013/11/27
 52 56  0  0  0  0  0  0  0  0999 V2000
   44.7612   10.5074   -8.3865 C   0  0  2  0  0  0  0  0  0  0  0  0
   45.9974   10.3525   -7.7302 O   0  0  0  0  0  0  0  0  0  0  0  0
   47.2820    6.4335   -9.2671 C   0  0  2  0  0  0  0  0  0  0  0  0
   48.0448    5.1584   -9.3756 N   0  0  0  0  0  0  0  0  0  0  0  0
   44.6560    6.8563   -5.8442 C   0  0  2  0  0  0  0  0  0  0  0  0
   43.8214    5.9586   -6.6044 O   0  0  0  0  0  0  0  0  0  0  0  0
   41.5775    7.3481   -2.8855 C   0  0  1  0  0  0  0  0  0  0  0  0
   49.7008    5.1530   -5.8363 C   0  0  0  0  0  0  0  0  0  0  0  0
   44.6689    9.5752   -9.6626 C   0  0  2  0  0  0  0  0  0  0  0  0
   44.9429    8.1875   -9.2834 N   0  0  0  0  0  0  0  0  0  0  0  0
   48.3048    7.6587   -9.2979 C   0  0  0  0  0  0  0  0  0  0  0  0
   43.8675    7.2294   -4.5786 C   0  0  2  0  0  0  0  0  0  0  0  0
   44.1766    6.1128   -3.6325 O   0  0  0  0  0  0  0  0  0  0  0  0
   40.2680    6.6930   -2.1802 C   0  0  2  0  0  0  0  0  0  0  0  0
   39.0616    7.4910   -2.5719 N   0  0  0  0  0  0  0  0  0  0  0  0
   49.9145    6.3179   -6.6438 C   0  0  0  0  0  0  0  0  0  0  0  0
   51.2278    6.8336   -6.8007 N   0  0  0  0  0  0  0  0  0  0  0  0
   45.6795   10.0993  -10.7851 C   0  0  1  0  0  0  0  0  0  0  0  0
   45.5870    9.2469  -11.9160 O   0  0  0  0  0  0  0  0  0  0  0  0
   47.5073    9.0788   -9.1667 C   0  0  2  0  0  0  0  0  0  0  0  0
   48.4165   10.1896   -9.1953 N   0  0  0  0  0  0  0  0  0  0  0  0
   42.4624    7.3390   -5.2003 C   0  0  2  0  0  0  0  0  0  0  0  0
   41.3585    7.3159   -4.3073 O   0  0  0  0  0  0  0  0  0  0  0  0
   40.4852    6.7334   -0.6374 C   0  0  1  0  0  0  0  0  0  0  0  0
   41.6760    5.9106   -0.3688 O   0  0  0  0  0  0  0  0  0  0  0  0
   52.3700    6.2462   -6.1855 C   0  0  0  0  0  0  0  0  0  0  0  0
   45.3102   11.5699  -11.1363 C   0  0  2  0  0  0  0  0  0  0  0  0
   46.2192   12.1143  -12.1738 O   0  0  0  0  0  0  0  0  0  0  0  0
   46.6779    9.1064   -7.8173 C   0  0  2  0  0  0  0  0  0  0  0  0
   42.4448    6.2001   -6.2475 C   0  0  1  0  0  0  0  0  0  0  0  0
   40.7083    8.2682   -0.1470 C   0  0  2  0  0  0  0  0  0  0  0  0
   39.5219    9.0968   -0.4127 O   0  0  0  0  0  0  0  0  0  0  0  0
   52.2207    5.0926   -5.3769 C   0  0  0  0  0  0  0  0  0  0  0  0
   45.4075   12.4821   -9.8533 C   0  0  2  0  0  0  0  0  0  0  0  0
   44.5016   11.8973   -8.8774 O   0  0  0  0  0  0  0  0  0  0  0  0
   45.6998    7.8808   -7.8330 C   0  0  2  0  0  0  0  0  0  0  0  0
   45.0076    8.0125   -6.5973 O   0  0  0  0  0  0  0  0  0  0  0  0
   41.7152    6.5983   -7.5294 C   0  0  0  0  0  0  0  0  0  0  0  0
   41.6179    5.5918   -8.5085 O   0  0  0  0  0  0  0  0  0  0  0  0
   41.9740    8.8878   -0.9000 C   0  0  1  0  0  0  0  0  0  0  0  0
   41.7420    8.7856   -2.3935 O   0  0  0  0  0  0  0  0  0  0  0  0
   50.8703    4.5161   -5.1809 C   0  0  0  0  0  0  0  0  0  0  0  0
   45.0279   13.8500  -10.2416 C   0  0  0  0  0  0  0  0  0  0  0  0
   43.9920   13.8022  -11.0885 O   0  0  0  0  0  0  0  0  0  0  0  0
   46.5082    6.5190   -7.9303 C   0  0  1  0  0  0  0  0  0  0  0  0
   45.6276    5.4440   -7.9535 O   0  0  0  0  0  0  0  0  0  0  0  0
   45.5034    5.6432   -3.1683 C   0  0  0  0  0  0  0  0  0  0  0  0
   42.1305   10.3506   -0.4026 C   0  0  0  0  0  0  0  0  0  0  0  0
   43.0780   11.0660   -1.2206 N   0  0  0  0  0  0  0  0  0  0  0  0
   46.5083    5.9502   -4.2834 C   0  0  0  0  0  0  0  0  0  0  0  0
   47.5807    4.9030   -4.2906 N   0  0  0  0  0  0  0  0  0  0  0  0
   48.2044    4.5908   -5.6776 C   0  0  0  0  0  0  0  0  0  0  0  0
  1  2  1  6  0  0  0
  1  9  1  0  0  0  0
  1 35  1  0  0  0  0
  3  4  1  1  0  0  0
  3 11  1  0  0  0  0
  3 45  1  0  0  0  0
  5  6  1  0  0  0  0
  5 12  1  0  0  0  0
  5 37  1  6  0  0  0
  6 30  1  0  0  0  0
  7 14  1  0  0  0  0
  7 41  1  0  0  0  0
  7 23  1  6  0  0  0
  8 16  2  0  0  0  0
  8 42  1  0  0  0  0
  9 10  1  1  0  0  0
  9 18  1  0  0  0  0
 11 20  1  0  0  0  0
 12 13  1  1  0  0  0
 12 22  1  0  0  0  0
 13 47  1  0  0  0  0
 14 15  1  1  0  0  0
 14 24  1  0  0  0  0
 16 17  1  0  0  0  0
 17 26  2  0  0  0  0
 18 19  1  6  0  0  0
 18 27  1  0  0  0  0
 20 21  1  1  0  0  0
 20 29  1  0  0  0  0
 22 23  1  1  0  0  0
 22 30  1  0  0  0  0
 24 25  1  6  0  0  0
 24 31  1  0  0  0  0
 26 33  1  0  0  0  0
 27 28  1  6  0  0  0
 27 34  1  0  0  0  0
 29  2  1  6  0  0  0
 29 36  1  0  0  0  0
 30 38  1  6  0  0  0
 31 32  1  6  0  0  0
 31 40  1  0  0  0  0
 33 42  2  0  0  0  0
 34 35  1  0  0  0  0
 34 43  1  6  0  0  0
 36 37  1  1  0  0  0
 36 45  1  0  0  0  0
 38 39  1  0  0  0  0
 40 41  1  0  0  0  0
 40 48  1  1  0  0  0
 43 44  1  0  0  0  0
 45 46  1  6  0  0  0
 47 50  1  0  0  0  0
 48 49  1  0  0  0  0
 50 51  1  0  0  0  0
 51 52  1  0  0  0  0
 52  8  1  0  0  0  0
M  END
>  <CHROM.1>
-28.67006357,-58.41508900,-156.40472150,56.33345256,-28.70095962,7.08386425
83.71876175,65.98495199,40.21370930,-142.86327549,-168.57324911,-147.76507577
149.08774139,107.75052859,-105.21548274,44.99305067,7.99905516,-6.27592419
0.78808472,0.50141008,-0.94389132

>  <Name>
2be0_lig

>  <RI>
224

>  <Rbt.Current_Directory>
/home/itssahil/PROJECTS/Mol_Feturizer/New_Systems/rnas/2be0

>  <Rbt.Executable>
rbdock ($Id: //depot/dev/client3/rdock/2013.1/src/exe/rbdock.cxx#4 $)

>  <Rbt.Library>
libRbt.so (2013.1, Build901 2013/11/27)

>  <Rbt.Parameter_File>
/export/apps/rDock/src/rDock_2013.1_src/data/scripts/dock_solv.prm

>  <Rbt.Receptor>
prm/blind_docking_100.prm

>  <SCORE>
112.059

>  <SCORE.INTER>
70.6448

>  <SCORE.INTER.CONST>
1

>  <SCORE.INTER.POLAR>
-1.7624

>  <SCORE.INTER.ROT>
15

>  <SCORE.INTER.SOLV>
33.5168

>  <SCORE.INTER.VDW>
28.1989

>  <SCORE.INTER.norm>
1.35855

>  <SCORE.INTRA>
34.4635

>  <SCORE.INTRA.DIHEDRAL>
-15.5019

>  <SCORE.INTRA.DIHEDRAL.0>
47.8724

>  <SCORE.INTRA.POLAR>
0

>  <SCORE.INTRA.POLAR.0>
0

>  <SCORE.INTRA.REPUL>
0

>  <SCORE.INTRA.REPUL.0>
0

>  <SCORE.INTRA.SOLV>
10.2347

>  <SCORE.INTRA.SOLV.lig_0>
-115.677

>  <SCORE.INTRA.VDW>
37.0971

>  <SCORE.INTRA.VDW.0>
-7.4833

>  <SCORE.INTRA.norm>
0.66276

>  <SCORE.RESTR>
6.95037

>  <SCORE.RESTR.CAVITY>
6.95037

>  <SCORE.RESTR.norm>
0.133661

>  <SCORE.SYSTEM>
0

>  <SCORE.SYSTEM.CONST>
0

>  <SCORE.SYSTEM.DIHEDRAL>
0

>  <SCORE.SYSTEM.SOLV>
0

>  <SCORE.SYSTEM.norm>
0

>  <SCORE.heavy>
52

>  <SCORE.norm>
2.15497

>  <RMSD>
5.856

$$$$
2be0_lig
 OpenBabel11021811423D
libRbt.so/2013.1/901 2013/11/27
 52 56  0  0  0  0  0  0  0  0999 V2000
   45.7184    9.6303   -8.0356 C   0  0  2  0  0  0  0  0  0  0  0  0
   44.6350    9.3631   -8.8946 O   0  0  0  0  0  0  0  0  0  0  0  0
   41.6364    6.1498   -9.1261 C   0  0  2  0  0  0  0  0  0  0  0  0
   41.0660    4.7757   -9.2042 N   0  0  0  0  0  0  0  0  0  0  0  0
   44.5219    6.9494   -5.9828 C   0  0  2  0  0  0  0  0  0  0  0  0
   43.6152    5.9278   -5.5196 O   0  0  0  0  0  0  0  0  0  0  0  0
   43.6546    7.7418   -1.3191 C   0  0  1  0  0  0  0  0  0  0  0  0
   49.7728    3.8116   -7.4831 C   0  0  0  0  0  0  0  0  0  0  0  0
   46.0584   11.1760   -8.0055 C   0  0  2  0  0  0  0  0  0  0  0  0
   44.8574   11.9410   -7.6631 N   0  0  0  0  0  0  0  0  0  0  0  0
   42.6447    6.3672  -10.3444 C   0  0  0  0  0  0  0  0  0  0  0  0
   45.3299    7.4122   -4.7599 C   0  0  2  0  0  0  0  0  0  0  0  0
   46.4512    6.4249   -4.6878 O   0  0  0  0  0  0  0  0  0  0  0  0
   43.2634    6.3789   -0.5249 C   0  0  2  0  0  0  0  0  0  0  0  0
   42.6788    5.4045   -1.5018 N   0  0  0  0  0  0  0  0  0  0  0  0
   50.9515    3.2837   -8.1050 C   0  0  0  0  0  0  0  0  0  0  0  0
   51.0507    3.2637   -9.5209 N   0  0  0  0  0  0  0  0  0  0  0  0
   46.6685   11.6196   -9.4151 C   0  0  1  0  0  0  0  0  0  0  0  0
   46.9590   13.0080   -9.3698 O   0  0  0  0  0  0  0  0  0  0  0  0
   43.3044    7.8610  -10.2870 C   0  0  2  0  0  0  0  0  0  0  0  0
   44.2122    8.0702  -11.3795 N   0  0  0  0  0  0  0  0  0  0  0  0
   44.2065    7.3728   -3.7067 C   0  0  2  0  0  0  0  0  0  0  0  0
   44.6007    7.3838   -2.3425 O   0  0  0  0  0  0  0  0  0  0  0  0
   42.2277    6.7493    0.5793 C   0  0  1  0  0  0  0  0  0  0  0  0
   42.9100    7.6899    1.4832 O   0  0  0  0  0  0  0  0  0  0  0  0
   50.0210    3.7477  -10.3772 C   0  0  0  0  0  0  0  0  0  0  0  0
   47.9425   10.7698   -9.6927 C   0  0  2  0  0  0  0  0  0  0  0  0
   48.5533   11.1348  -10.9938 O   0  0  0  0  0  0  0  0  0  0  0  0
   44.0712    8.0573   -8.9148 C   0  0  2  0  0  0  0  0  0  0  0  0
   43.3816    6.1275   -4.1102 C   0  0  1  0  0  0  0  0  0  0  0  0
   40.9143    7.4309   -0.0961 C   0  0  2  0  0  0  0  0  0  0  0  0
   40.2273    6.4965   -1.0013 O   0  0  0  0  0  0  0  0  0  0  0  0
   48.8332    4.2821   -9.8199 C   0  0  0  0  0  0  0  0  0  0  0  0
   47.5838    9.2342   -9.7183 C   0  0  2  0  0  0  0  0  0  0  0  0
   46.9888    8.9410   -8.4241 O   0  0  0  0  0  0  0  0  0  0  0  0
   43.0420    7.8230   -7.7551 C   0  0  2  0  0  0  0  0  0  0  0  0
   43.8268    8.0349   -6.5878 O   0  0  0  0  0  0  0  0  0  0  0  0
   41.8792    6.3412   -3.9333 C   0  0  0  0  0  0  0  0  0  0  0  0
   41.3402    7.4475   -4.6165 O   0  0  0  0  0  0  0  0  0  0  0  0
   41.3507    8.7376   -0.9056 C   0  0  1  0  0  0  0  0  0  0  0  0
   42.3901    8.3409   -1.9337 O   0  0  0  0  0  0  0  0  0  0  0  0
   48.6804    4.3247   -8.3471 C   0  0  0  0  0  0  0  0  0  0  0  0
   48.8262    8.4840   -9.9623 C   0  0  0  0  0  0  0  0  0  0  0  0
   49.5038    9.0568  -10.9651 O   0  0  0  0  0  0  0  0  0  0  0  0
   42.4448    6.3546   -7.8231 C   0  0  1  0  0  0  0  0  0  0  0  0
   41.5277    6.1662   -6.7959 O   0  0  0  0  0  0  0  0  0  0  0  0
   46.3722    4.9451   -4.6721 C   0  0  0  0  0  0  0  0  0  0  0  0
   40.0635    9.3364   -1.5347 C   0  0  0  0  0  0  0  0  0  0  0  0
   40.3751   10.5179   -2.3000 N   0  0  0  0  0  0  0  0  0  0  0  0
   47.7560    4.4216   -4.2740 C   0  0  0  0  0  0  0  0  0  0  0  0
   48.2677    3.5024   -5.3417 N   0  0  0  0  0  0  0  0  0  0  0  0
   49.6885    3.8231   -5.8791 C   0  0  0  0  0  0  0  0  0  0  0  0
  1  2  1  6  0  0  0
  1  9  1  0  0  0  0
  1 35  1  0  0  0  0
  3  4  1  1  0  0  0
  3 11  1  0  0  0  0
  3 45  1  0  0  0  0
  5  6  1  0  0  0  0
  5 12  1  0  0  0  0
  5 37  1  1  0  0  0
  6 30  1  0  0  0  0
  7 14  1  0  0  0  0
  7 41  1  0  0  0  0
  7 23  1  6  0  0  0
  8 16  2  0  0  0  0
  8 42  1  0  0  0  0
  9 10  1  6  0  0  0
  9 18  1  0  0  0  0
 11 20  1  0  0  0  0
 12 13  1  1  0  0  0
 12 22  1  0  0  0  0
 13 47  1  0  0  0  0
 14 15  1  6  0  0  0
 14 24  1  0  0  0  0
 16 17  1  0  0  0  0
 17 26  2  0  0  0  0
 18 19  1  1  0  0  0
 18 27  1  0  0  0  0
 20 21  1  6  0  0  0
 20 29  1  0  0  0  0
 22 23  1  1  0  0  0
 22 30  1  0  0  0  0
 24 25  1  1  0  0  0
 24 31  1  0  0  0  0
 26 33  1  0  0  0  0
 27 28  1  6  0  0  0
 27 34  1  0  0  0  0
 29  2  1  6  0  0  0
 29 36  1  0  0  0  0
 30 38  1  6  0  0  0
 31 32  1  6  0  0  0
 31 40  1  0  0  0  0
 33 42  2  0  0  0  0
 34 35  1  0  0  0  0
 34 43  1  1  0  0  0
 36 37  1  1  0  0  0
 36 45  1  0  0  0  0
 38 39  1  0  0  0  0
 40 41  1  0  0  0  0
 40 48  1  6  0  0  0
 43 44  1  0  0  0  0
 45 46  1  1  0  0  0
 47 50  1  0  0  0  0
 48 49  1  0  0  0  0
 50 51  1  0  0  0  0
 51 52  1  0  0  0  0
 52  8  1  0  0  0  0
M  END
>  <CHROM.1>
-171.68029652,-62.12319532,107.39476569,-52.45414002,-167.45346447,161.67208727
-158.34304005,-60.20818684,-46.13375897,-89.69134110,-179.33604789,-122.81375419
127.88512138,-132.84662444,-142.28433271,44.94625228,7.34422733,-6.16502609
0.67342888,0.67899207,-0.90140813

>  <Name>
2be0_lig

>  <RI>
224

>  <Rbt.Current_Directory>
/home/itssahil/PROJECTS/Mol_Feturizer/New_Systems/rnas/2be0

>  <Rbt.Executable>
rbdock ($Id: //depot/dev/client3/rdock/2013.1/src/exe/rbdock.cxx#4 $)

>  <Rbt.Library>
libRbt.so (2013.1, Build901 2013/11/27)

>  <Rbt.Parameter_File>
/export/apps/rDock/src/rDock_2013.1_src/data/scripts/dock_solv.prm

>  <Rbt.Receptor>
prm/blind_docking_100.prm

>  <SCORE>
43.2925

>  <SCORE.INTER>
31.8193

>  <SCORE.INTER.CONST>
1

>  <SCORE.INTER.POLAR>
-1.11187

>  <SCORE.INTER.ROT>
15

>  <SCORE.INTER.SOLV>
41.0918

>  <SCORE.INTER.VDW>
-2.37817

>  <SCORE.INTER.norm>
0.61191

>  <SCORE.INTRA>
-2.88585

>  <SCORE.INTRA.DIHEDRAL>
-23.3692

>  <SCORE.INTRA.DIHEDRAL.0>
47.8724

>  <SCORE.INTRA.POLAR>
0

>  <SCORE.INTRA.POLAR.0>
0

>  <SCORE.INTRA.REPUL>
0

>  <SCORE.INTRA.REPUL.0>
0

>  <SCORE.INTRA.SOLV>
1.56688

>  <SCORE.INTRA.SOLV.lig_0>
-115.677

>  <SCORE.INTRA.VDW>
8.01531

>  <SCORE.INTRA.VDW.0>
-7.4833

>  <SCORE.INTRA.norm>
-0.0554971

>  <SCORE.RESTR>
14.359

>  <SCORE.RESTR.CAVITY>
14.359

>  <SCORE.RESTR.norm>
0.276135

>  <SCORE.SYSTEM>
0

>  <SCORE.SYSTEM.CONST>
0

>  <SCORE.SYSTEM.DIHEDRAL>
0

>  <SCORE.SYSTEM.SOLV>
0

>  <SCORE.SYSTEM.norm>
0

>  <SCORE.heavy>
52

>  <SCORE.norm>
0.832548

>  <RMSD>
5.899

$$$$
2be0_lig
 OpenBabel11021811423D
libRbt.so/2013.1/901 2013/11/27
 52 56  0  0  0  0  0  0  0  0999 V2000
   46.4332    5.3226   -4.5767 C   0  0  2  0  0  0  0  0  0  0  0  0
   46.4033    3.9541   -4.9071 O   0  0  0  0  0  0  0  0  0  0  0  0
   49.6002    0.9411   -4.6369 C   0  0  2  0  0  0  0  0  0  0  0  0
   50.6574    0.0771   -4.0407 N   0  0  0  0  0  0  0  0  0  0  0  0
   45.0914    0.1674   -4.3761 C   0  0  2  0  0  0  0  0  0  0  0  0
   44.8181    0.0327   -5.7859 O   0  0  0  0  0  0  0  0  0  0  0  0
   40.6773    1.6044   -5.5238 C   0  0  1  0  0  0  0  0  0  0  0  0
   39.8255   -4.2100   -5.4240 C   0  0  0  0  0  0  0  0  0  0  0  0
   44.9706    5.9025   -4.4031 C   0  0  2  0  0  0  0  0  0  0  0  0
   44.2306    5.0971   -3.4293 N   0  0  0  0  0  0  0  0  0  0  0  0
   49.9391    2.4702   -4.3282 C   0  0  0  0  0  0  0  0  0  0  0  0
   43.7325    0.1517   -3.6580 C   0  0  2  0  0  0  0  0  0  0  0  0
   43.4474   -1.3060   -3.4813 O   0  0  0  0  0  0  0  0  0  0  0  0
   39.2093    1.7732   -4.8474 C   0  0  2  0  0  0  0  0  0  0  0  0
   38.6612    0.4121   -4.5428 N   0  0  0  0  0  0  0  0  0  0  0  0
   40.6535   -5.1566   -6.1117 C   0  0  0  0  0  0  0  0  0  0  0  0
   40.6021   -5.2376   -7.5280 N   0  0  0  0  0  0  0  0  0  0  0  0
   44.2378    5.9462   -5.8233 C   0  0  1  0  0  0  0  0  0  0  0  0
   42.9274    6.4612   -5.6449 O   0  0  0  0  0  0  0  0  0  0  0  0
   48.7933    3.4523   -4.9546 C   0  0  2  0  0  0  0  0  0  0  0  0
   49.0878    4.8315   -4.6855 N   0  0  0  0  0  0  0  0  0  0  0  0
   42.9187    0.9729   -4.6759 C   0  0  2  0  0  0  0  0  0  0  0  0
   41.5038    0.8980   -4.5811 O   0  0  0  0  0  0  0  0  0  0  0  0
   38.2981    2.5256   -5.8637 C   0  0  1  0  0  0  0  0  0  0  0  0
   38.9189    3.8438   -6.0739 O   0  0  0  0  0  0  0  0  0  0  0  0
   39.7535   -4.4138   -8.3213 C   0  0  0  0  0  0  0  0  0  0  0  0
   45.0809    6.8292   -6.7886 C   0  0  2  0  0  0  0  0  0  0  0  0
   44.4509    6.9046   -8.1290 O   0  0  0  0  0  0  0  0  0  0  0  0
   47.3781    3.0833   -4.3458 C   0  0  2  0  0  0  0  0  0  0  0  0
   43.4805    0.5087   -6.0408 C   0  0  1  0  0  0  0  0  0  0  0  0
   38.2087    1.6891   -7.2559 C   0  0  2  0  0  0  0  0  0  0  0  0
   37.5895    0.3700   -7.0534 O   0  0  0  0  0  0  0  0  0  0  0  0
   38.9134   -3.4589   -7.6974 C   0  0  0  0  0  0  0  0  0  0  0  0
   46.5336    6.2361   -6.9481 C   0  0  2  0  0  0  0  0  0  0  0  0
   47.0936    6.1842   -5.6071 O   0  0  0  0  0  0  0  0  0  0  0  0
   47.0994    1.5738   -4.6665 C   0  0  2  0  0  0  0  0  0  0  0  0
   45.8157    1.3600   -4.0922 O   0  0  0  0  0  0  0  0  0  0  0  0
   43.5990    1.6558   -7.0429 C   0  0  0  0  0  0  0  0  0  0  0  0
   44.1235    1.3083   -8.3020 O   0  0  0  0  0  0  0  0  0  0  0  0
   39.6763    1.5049   -7.8601 C   0  0  1  0  0  0  0  0  0  0  0  0
   40.5390    0.8137   -6.8243 O   0  0  0  0  0  0  0  0  0  0  0  0
   38.9294   -3.3357   -6.2213 C   0  0  0  0  0  0  0  0  0  0  0  0
   47.2865    7.1215   -7.8510 C   0  0  0  0  0  0  0  0  0  0  0  0
   48.4913    6.5904   -8.0944 O   0  0  0  0  0  0  0  0  0  0  0  0
   48.2128    0.6477   -4.0184 C   0  0  1  0  0  0  0  0  0  0  0  0
   47.9577   -0.6848   -4.3200 O   0  0  0  0  0  0  0  0  0  0  0  0
   42.2835   -1.9402   -2.8184 C   0  0  0  0  0  0  0  0  0  0  0  0
   39.5300    0.6936   -9.1761 C   0  0  0  0  0  0  0  0  0  0  0  0
   40.8121    0.5259   -9.8140 N   0  0  0  0  0  0  0  0  0  0  0  0
   41.1038   -1.8520   -3.7920 C   0  0  0  0  0  0  0  0  0  0  0  0
   39.9695   -2.6863   -3.2782 N   0  0  0  0  0  0  0  0  0  0  0  0
   39.9054   -4.1393   -3.8212 C   0  0  0  0  0  0  0  0  0  0  0  0
  1  2  1  6  0  0  0
  1  9  1  0  0  0  0
  1 35  1  0  0  0  0
  3  4  1  1  0  0  0
  3 11  1  0  0  0  0
  3 45  1  0  0  0  0
  5  6  1  0  0  0  0
  5 12  1  0  0  0  0
  5 37  1  6  0  0  0
  6 30  1  0  0  0  0
  7 14  1  0  0  0  0
  7 41  1  0  0  0  0
  7 23  1  1  0  0  0
  8 16  2  0  0  0  0
  8 42  1  0  0  0  0
  9 10  1  1  0  0  0
  9 18  1  0  0  0  0
 11 20  1  0  0  0  0
 12 13  1  6  0  0  0
 12 22  1  0  0  0  0
 13 47  1  0  0  0  0
 14 15  1  6  0  0  0
 14 24  1  0  0  0  0
 16 17  1  0  0  0  0
 17 26  2  0  0  0  0
 18 19  1  1  0  0  0
 18 27  1  0  0  0  0
 20 21  1  1  0  0  0
 20 29  1  0  0  0  0
 22 23  1  6  0  0  0
 22 30  1  0  0  0  0
 24 25  1  6  0  0  0
 24 31  1  0  0  0  0
 26 33  1  0  0  0  0
 27 28  1  6  0  0  0
 27 34  1  0  0  0  0
 29  2  1  6  0  0  0
 29 36  1  0  0  0  0
 30 38  1  6  0  0  0
 31 32  1  1  0  0  0
 31 40  1  0  0  0  0
 33 42  2  0  0  0  0
 34 35  1  0  0  0  0
 34 43  1  6  0  0  0
 36 37  1  1  0  0  0
 36 45  1  0  0  0  0
 38 39  1  0  0  0  0
 40 41  1  0  0  0  0
 40 48  1  6  0  0  0
 43 44  1  0  0  0  0
 45 46  1  6  0  0  0
 47 50  1  0  0  0  0
 48 49  1  0  0  0  0
 50 51  1  0  0  0  0
 51 52  1  0  0  0  0
 52  8  1  0  0  0  0
M  END
>  <CHROM.1>
-141.57977757,-60.42956055,-159.45722403,178.39698296,77.08377184,-178.05337584
-67.98353951,62.81311359,-175.07727987,168.58756289,177.84361863,170.10986277
-93.79790235,-57.19231433,135.32219880,43.47867668,1.48204620,-5.66683403
0.65083406,-0.27324690,-0.25032317

>  <Name>
2be0_lig

>  <RI>
0

>  <Rbt.Current_Directory>
/home/itssahil/PROJECTS/Mol_Feturizer/New_Systems/rnas/2be0

>  <Rbt.Executable>
rbdock ($Id: //depot/dev/client3/rdock/2013.1/src/exe/rbdock.cxx#4 $)

>  <Rbt.Library>
libRbt.so (2013.1, Build901 2013/11/27)

>  <Rbt.Parameter_File>
/export/apps/rDock/src/rDock_2013.1_src/data/scripts/dock_solv.prm

>  <Rbt.Receptor>
prm/pocket_docking_7.prm

>  <SCORE>
-17.6034

>  <SCORE.INTER>
-1.12818

>  <SCORE.INTER.CONST>
1

>  <SCORE.INTER.POLAR>
-0.894427

>  <SCORE.INTER.ROT>
15

>  <SCORE.INTER.SOLV>
10.6196

>  <SCORE.INTER.VDW>
-14.9106

>  <SCORE.INTER.norm>
-0.0216957

>  <SCORE.INTRA>
-16.4752

>  <SCORE.INTRA.DIHEDRAL>
-36.1147

>  <SCORE.INTRA.DIHEDRAL.0>
47.8724

>  <SCORE.INTRA.POLAR>
0

>  <SCORE.INTRA.POLAR.0>
0

>  <SCORE.INTRA.REPUL>
0

>  <SCORE.INTRA.REPUL.0>
0

>  <SCORE.INTRA.SOLV>
0.747914

>  <SCORE.INTRA.SOLV.lig_0>
-115.677

>  <SCORE.INTRA.VDW>
1.20817

>  <SCORE.INTRA.VDW.0>
-7.4833

>  <SCORE.INTRA.norm>
-0.316831

>  <SCORE.RESTR>
0

>  <SCORE.RESTR.CAVITY>
0

>  <SCORE.RESTR.norm>
0

>  <SCORE.SYSTEM>
0

>  <SCORE.SYSTEM.CONST>
0

>  <SCORE.SYSTEM.DIHEDRAL>
0

>  <SCORE.SYSTEM.SOLV>
0

>  <SCORE.SYSTEM.norm>
0

>  <SCORE.heavy>
52

>  <SCORE.norm>
-0.338527

>  <RMSD>
5.903

$$$$
2be0_lig
 OpenBabel11021811423D
libRbt.so/2013.1/901 2013/11/27
 52 56  0  0  0  0  0  0  0  0999 V2000
   42.1461    5.0934   -4.3250 C   0  0  2  0  0  0  0  0  0  0  0  0
   43.2435    4.4422   -4.9202 O   0  0  0  0  0  0  0  0  0  0  0  0
   44.0200    0.5119   -6.7424 C   0  0  2  0  0  0  0  0  0  0  0  0
   43.9772   -0.9624   -6.9523 N   0  0  0  0  0  0  0  0  0  0  0  0
   40.2314    2.5737   -6.2862 C   0  0  2  0  0  0  0  0  0  0  0  0
   39.0185    3.2270   -6.7132 O   0  0  0  0  0  0  0  0  0  0  0  0
   39.5525    3.4068   -1.9736 C   0  0  1  0  0  0  0  0  0  0  0  0
   39.1693   -4.0387   -5.6145 C   0  0  0  0  0  0  0  0  0  0  0  0
   42.2297    6.6609   -4.5294 C   0  0  2  0  0  0  0  0  0  0  0  0
   42.3703    6.9679   -5.9543 N   0  0  0  0  0  0  0  0  0  0  0  0
   44.5691    0.8151   -5.2745 C   0  0  0  0  0  0  0  0  0  0  0  0
   40.1354    2.4147   -4.7604 C   0  0  2  0  0  0  0  0  0  0  0  0
   39.3688    1.1417   -4.5892 O   0  0  0  0  0  0  0  0  0  0  0  0
   39.0754    1.8739   -1.7203 C   0  0  2  0  0  0  0  0  0  0  0  0
   37.5888    1.8585   -1.5320 N   0  0  0  0  0  0  0  0  0  0  0  0
   38.6935   -5.1607   -4.8598 C   0  0  0  0  0  0  0  0  0  0  0  0
   39.5189   -6.3052   -4.7052 N   0  0  0  0  0  0  0  0  0  0  0  0
   43.4402    7.2513   -3.6680 C   0  0  1  0  0  0  0  0  0  0  0  0
   43.5026    8.6545   -3.8708 O   0  0  0  0  0  0  0  0  0  0  0  0
   44.6183    2.4249   -4.9987 C   0  0  2  0  0  0  0  0  0  0  0  0
   45.1130    2.7113   -3.6816 N   0  0  0  0  0  0  0  0  0  0  0  0
   39.4673    3.7615   -4.4248 C   0  0  2  0  0  0  0  0  0  0  0  0
   38.8641    3.8810   -3.1448 O   0  0  0  0  0  0  0  0  0  0  0  0
   39.8034    1.3509   -0.4454 C   0  0  1  0  0  0  0  0  0  0  0  0
   41.2435    1.3947   -0.7480 O   0  0  0  0  0  0  0  0  0  0  0  0
   40.8215   -6.4039   -5.2721 C   0  0  0  0  0  0  0  0  0  0  0  0
   43.2050    6.8920   -2.1721 C   0  0  2  0  0  0  0  0  0  0  0  0
   44.3020    7.4119   -1.3203 O   0  0  0  0  0  0  0  0  0  0  0  0
   43.1697    3.0434   -5.1676 C   0  0  2  0  0  0  0  0  0  0  0  0
   38.4867    3.9774   -5.6020 C   0  0  1  0  0  0  0  0  0  0  0  0
   39.4414    2.2950    0.8288 C   0  0  2  0  0  0  0  0  0  0  0  0
   38.0034    2.2564    1.1368 O   0  0  0  0  0  0  0  0  0  0  0  0
   41.3457   -5.3260   -6.0273 C   0  0  0  0  0  0  0  0  0  0  0  0
   43.1241    5.3276   -1.9889 C   0  0  2  0  0  0  0  0  0  0  0  0
   42.0388    4.8802   -2.8474 O   0  0  0  0  0  0  0  0  0  0  0  0
   42.6740    2.7091   -6.6173 C   0  0  2  0  0  0  0  0  0  0  0  0
   41.3880    3.3155   -6.6598 O   0  0  0  0  0  0  0  0  0  0  0  0
   38.4182    5.4386   -6.0429 C   0  0  0  0  0  0  0  0  0  0  0  0
   39.6413    6.0084   -6.4433 O   0  0  0  0  0  0  0  0  0  0  0  0
   39.8826    3.7989    0.5179 C   0  0  1  0  0  0  0  0  0  0  0  0
   39.1901    4.2500   -0.7516 O   0  0  0  0  0  0  0  0  0  0  0  0
   40.5232   -4.1090   -6.2186 C   0  0  0  0  0  0  0  0  0  0  0  0
   42.8803    5.0514   -0.5640 C   0  0  0  0  0  0  0  0  0  0  0  0
   42.6933    3.7371   -0.3899 O   0  0  0  0  0  0  0  0  0  0  0  0
   42.6094    1.1395   -6.8401 C   0  0  1  0  0  0  0  0  0  0  0  0
   42.1787    0.8600   -8.1316 O   0  0  0  0  0  0  0  0  0  0  0  0
   37.9824    0.8400   -5.0174 C   0  0  0  0  0  0  0  0  0  0  0  0
   39.5038    4.6518    1.7591 C   0  0  0  0  0  0  0  0  0  0  0  0
   40.3125    4.2828    2.8943 N   0  0  0  0  0  0  0  0  0  0  0  0
   37.6508   -0.5701   -4.5186 C   0  0  0  0  0  0  0  0  0  0  0  0
   38.7148   -1.5231   -4.9730 N   0  0  0  0  0  0  0  0  0  0  0  0
   38.2144   -2.7566   -5.7718 C   0  0  0  0  0  0  0  0  0  0  0  0
  1  2  1  1  0  0  0
  1  9  1  0  0  0  0
  1 35  1  0  0  0  0
  3  4  1  1  0  0  0
  3 11  1  0  0  0  0
  3 45  1  0  0  0  0
  5  6  1  0  0  0  0
  5 12  1  0  0  0  0
  5 37  1  1  0  0  0
  6 30  1  0  0  0  0
  7 14  1  0  0  0  0
  7 41  1  0  0  0  0
  7 23  1  6  0  0  0
  8 16  2  0  0  0  0
  8 42  1  0  0  0  0
  9 10  1  6  0  0  0
  9 18  1  0  0  0  0
 11 20  1  0  0  0  0
 12 13  1  6  0  0  0
 12 22  1  0  0  0  0
 13 47  1  0  0  0  0
 14 15  1  1  0  0  0
 14 24  1  0  0  0  0
 16 17  1  0  0  0  0
 17 26  2  0  0  0  0
 18 19  1  1  0  0  0
 18 27  1  0  0  0  0
 20 21  1  1  0  0  0
 20 29  1  0  0  0  0
 22 23  1  1  0  0  0
 22 30  1  0  0  0  0
 24 25  1  6  0  0  0
 24 31  1  0  0  0  0
 26 33  1  0  0  0  0
 27 28  1  1  0  0  0
 27 34  1  0  0  0  0
 29  2  1  6  0  0  0
 29 36  1  0  0  0  0
 30 38  1  6  0  0  0
 31 32  1  6  0  0  0
 31 40  1  0  0  0  0
 33 42  2  0  0  0  0
 34 35  1  0  0  0  0
 34 43  1  1  0  0  0
 36 37  1  1  0  0  0
 36 45  1  0  0  0  0
 38 39  1  0  0  0  0
 40 41  1  0  0  0  0
 40 48  1  1  0  0  0
 43 44  1  0  0  0  0
 45 46  1  6  0  0  0
 47 50  1  0  0  0  0
 48 49  1  0  0  0  0
 50 51  1  0  0  0  0
 51 52  1  0  0  0  0
 52  8  1  0  0  0  0
M  END
>  <CHROM.1>
-162.82265494,-165.23517775,-92.52898289,-62.52693559,-176.28064539,44.78779387
-146.86832594,-58.24616452,174.81661661,-90.88500150,67.47566260,-52.73075603
-125.16135145,-151.67423020,109.54644343,40.94833453,2.34900597,-3.79650811
-1.20138279,-0.98814750,-2.47714285

>  <Name>
2be0_lig

>  <RI>
0

>  <Rbt.Current_Directory>
/home/itssahil/PROJECTS/Mol_Feturizer/New_Systems/rnas/2be0

>  <Rbt.Executable>
rbdock ($Id: //depot/dev/client3/rdock/2013.1/src/exe/rbdock.cxx#4 $)

>  <Rbt.Library>
libRbt.so (2013.1, Build901 2013/11/27)

>  <Rbt.Parameter_File>
/export/apps/rDock/src/rDock_2013.1_src/data/scripts/dock_solv.prm

>  <Rbt.Receptor>
prm/pocket_docking_7.prm

>  <SCORE>
-15.9875

>  <SCORE.INTER>
-2.22186

>  <SCORE.INTER.CONST>
1

>  <SCORE.INTER.POLAR>
-1.28607

>  <SCORE.INTER.ROT>
15

>  <SCORE.INTER.SOLV>
11.4003

>  <SCORE.INTER.VDW>
-14.5945

>  <SCORE.INTER.norm>
-0.042728

>  <SCORE.INTRA>
-13.7657

>  <SCORE.INTRA.DIHEDRAL>
-28.8445

>  <SCORE.INTRA.DIHEDRAL.0>
47.8724

>  <SCORE.INTRA.POLAR>
0

>  <SCORE.INTRA.POLAR.0>
0

>  <SCORE.INTRA.REPUL>
0.020193

>  <SCORE.INTRA.REPUL.0>
0

>  <SCORE.INTRA.SOLV>
3.68581

>  <SCORE.INTRA.SOLV.lig_0>
-115.677

>  <SCORE.INTRA.VDW>
-1.28733

>  <SCORE.INTRA.VDW.0>
-7.4833

>  <SCORE.INTRA.norm>
-0.264725

>  <SCORE.RESTR>
0

>  <SCORE.RESTR.CAVITY>
0

>  <SCORE.RESTR.norm>
0

>  <SCORE.SYSTEM>
0

>  <SCORE.SYSTEM.CONST>
0

>  <SCORE.SYSTEM.DIHEDRAL>
0

>  <SCORE.SYSTEM.SOLV>
0

>  <SCORE.SYSTEM.norm>
0

>  <SCORE.heavy>
52

>  <SCORE.norm>
-0.307453

>  <RMSD>
5.945

$$$$
2be0_lig
 OpenBabel11021811423D
libRbt.so/2013.1/901 2013/11/27
 52 56  0  0  0  0  0  0  0  0999 V2000
   44.4903    4.1199   -5.7874 C   0  0  2  0  0  0  0  0  0  0  0  0
   43.2839    3.5087   -5.3950 O   0  0  0  0  0  0  0  0  0  0  0  0
   42.2506    1.4602   -9.1509 C   0  0  2  0  0  0  0  0  0  0  0  0
   41.4969    0.6131  -10.1173 N   0  0  0  0  0  0  0  0  0  0  0  0
   40.0703    4.5060   -6.9045 C   0  0  2  0  0  0  0  0  0  0  0  0
   39.4901    5.7214   -6.3880 O   0  0  0  0  0  0  0  0  0  0  0  0
   40.2085    2.6207   -2.7195 C   0  0  1  0  0  0  0  0  0  0  0  0
   35.6812   -2.4021   -8.0734 C   0  0  0  0  0  0  0  0  0  0  0  0
   45.2532    4.7335   -4.5436 C   0  0  2  0  0  0  0  0  0  0  0  0
   45.4429    3.7027   -3.5209 N   0  0  0  0  0  0  0  0  0  0  0  0
   42.6016    0.5921   -7.8580 C   0  0  0  0  0  0  0  0  0  0  0  0
   39.8043    3.4097   -5.8606 C   0  0  2  0  0  0  0  0  0  0  0  0
   38.4330    2.9228   -6.2067 O   0  0  0  0  0  0  0  0  0  0  0  0
   39.2306    2.0586   -1.5494 C   0  0  2  0  0  0  0  0  0  0  0  0
   38.9323    3.1750   -0.5952 N   0  0  0  0  0  0  0  0  0  0  0  0
   35.9351   -3.0560   -9.3235 C   0  0  0  0  0  0  0  0  0  0  0  0
   35.9162   -4.4738   -9.3921 N   0  0  0  0  0  0  0  0  0  0  0  0
   44.4412    5.9910   -3.9821 C   0  0  1  0  0  0  0  0  0  0  0  0
   45.1369    6.5210   -2.8644 O   0  0  0  0  0  0  0  0  0  0  0  0
   43.4181    1.4908   -6.7646 C   0  0  2  0  0  0  0  0  0  0  0  0
   43.7420    0.7204   -5.5972 N   0  0  0  0  0  0  0  0  0  0  0  0
   40.0209    4.2431   -4.5833 C   0  0  2  0  0  0  0  0  0  0  0  0
   39.5196    3.7043   -3.3689 O   0  0  0  0  0  0  0  0  0  0  0  0
   39.9700    0.8920   -0.8275 C   0  0  1  0  0  0  0  0  0  0  0  0
   40.1949   -0.1452   -1.8478 O   0  0  0  0  0  0  0  0  0  0  0  0
   35.6551   -5.3012   -8.2629 C   0  0  0  0  0  0  0  0  0  0  0  0
   44.2973    7.0379   -5.1247 C   0  0  2  0  0  0  0  0  0  0  0  0
   43.5462    8.2304   -4.6633 O   0  0  0  0  0  0  0  0  0  0  0  0
   42.5497    2.7481   -6.3467 C   0  0  2  0  0  0  0  0  0  0  0  0
   39.4231    5.6222   -4.9505 C   0  0  1  0  0  0  0  0  0  0  0  0
   41.3775    1.4234   -0.2092 C   0  0  2  0  0  0  0  0  0  0  0  0
   41.1604    2.4607    0.8113 O   0  0  0  0  0  0  0  0  0  0  0  0
   35.3961   -4.7115   -7.0011 C   0  0  0  0  0  0  0  0  0  0  0  0
   43.5359    6.4082   -6.3540 C   0  0  2  0  0  0  0  0  0  0  0  0
   44.3154    5.2480   -6.7554 O   0  0  0  0  0  0  0  0  0  0  0  0
   42.2244    3.5579   -7.6496 C   0  0  2  0  0  0  0  0  0  0  0  0
   41.4634    4.6548   -7.1587 O   0  0  0  0  0  0  0  0  0  0  0  0
   40.2418    6.7815   -4.3851 C   0  0  0  0  0  0  0  0  0  0  0  0
   40.4077    6.7808   -2.9874 O   0  0  0  0  0  0  0  0  0  0  0  0
   42.2863    2.0105   -1.3849 C   0  0  1  0  0  0  0  0  0  0  0  0
   41.5128    3.1067   -2.0883 O   0  0  0  0  0  0  0  0  0  0  0  0
   35.4052   -3.2354   -6.8767 C   0  0  0  0  0  0  0  0  0  0  0  0
   43.4498    7.4340   -7.4059 C   0  0  0  0  0  0  0  0  0  0  0  0
   42.6109    7.0211   -8.3642 O   0  0  0  0  0  0  0  0  0  0  0  0
   41.4059    2.6657   -8.6750 C   0  0  1  0  0  0  0  0  0  0  0  0
   41.1346    3.3936   -9.8274 O   0  0  0  0  0  0  0  0  0  0  0  0
   37.7774    1.6580   -5.7982 C   0  0  0  0  0  0  0  0  0  0  0  0
   43.6056    2.5105   -0.7363 C   0  0  0  0  0  0  0  0  0  0  0  0
   44.2850    1.4279   -0.0690 N   0  0  0  0  0  0  0  0  0  0  0  0
   36.8221    1.2576   -6.9272 C   0  0  0  0  0  0  0  0  0  0  0  0
   36.6930   -0.2352   -6.9655 N   0  0  0  0  0  0  0  0  0  0  0  0
   35.7076   -0.7967   -8.0256 C   0  0  0  0  0  0  0  0  0  0  0  0
  1  2  1  1  0  0  0
  1  9  1  0  0  0  0
  1 35  1  0  0  0  0
  3  4  1  6  0  0  0
  3 11  1  0  0  0  0
  3 45  1  0  0  0  0
  5  6  1  0  0  0  0
  5 12  1  0  0  0  0
  5 37  1  1  0  0  0
  6 30  1  0  0  0  0
  7 14  1  0  0  0  0
  7 41  1  0  0  0  0
  7 23  1  1  0  0  0
  8 16  2  0  0  0  0
  8 42  1  0  0  0  0
  9 10  1  1  0  0  0
  9 18  1  0  0  0  0
 11 20  1  0  0  0  0
 12 13  1  1  0  0  0
 12 22  1  0  0  0  0
 13 47  1  0  0  0  0
 14 15  1  1  0  0  0
 14 24  1  0  0  0  0
 16 17  1  0  0  0  0
 17 26  2  0  0  0  0
 18 19  1  1  0  0  0
 18 27  1  0  0  0  0
 20 21  1  1  0  0  0
 20 29  1  0  0  0  0
 22 23  1  1  0  0  0
 22 30  1  0  0  0  0
 24 25  1  6  0  0  0
 24 31  1  0  0  0  0
 26 33  1  0  0  0  0
 27 28  1  1  0  0  0
 27 34  1  0  0  0  0
 29  2  1  1  0  0  0
 29 36  1  0  0  0  0
 30 38  1  1  0  0  0
 31 32  1  1  0  0  0
 31 40  1  0  0  0  0
 33 42  2  0  0  0  0
 34 35  1  0  0  0  0
 34 43  1  6  0  0  0
 36 37  1  1  0  0  0
 36 45  1  0  0  0  0
 38 39  1  0  0  0  0
 40 41  1  0  0  0  0
 40 48  1  1  0  0  0
 43 44  1  0  0  0  0
 45 46  1  6  0  0  0
 47 50  1  0  0  0  0
 48 49  1  0  0  0  0
 50 51  1  0  0  0  0
 51 52  1  0  0  0  0
 52  8  1  0  0  0  0
M  END
>  <CHROM.1>
-171.68170953,178.83572675,-168.89332122,162.45274481,-149.18210412,75.39438189
64.69504211,-173.96138227,-169.12477911,-82.38275968,59.65489115,150.32036138
177.59370538,176.58011928,-124.74465231,40.87514475,2.71006123,-5.30377860
-0.23380005,-0.87182696,-1.43649475

>  <Name>
2be0_lig

>  <RI>
2.75444e+07

>  <Rbt.Current_Directory>
/home/itssahil/PROJECTS/Mol_Feturizer/New_Systems/rnas/2be0

>  <Rbt.Executable>
rbdock ($Id: //depot/dev/client3/rdock/2013.1/src/exe/rbdock.cxx#4 $)

>  <Rbt.Library>
libRbt.so (2013.1, Build901 2013/11/27)

>  <Rbt.Parameter_File>
/export/apps/rDock/src/rDock_2013.1_src/data/scripts/dock_solv.prm

>  <Rbt.Receptor>
prm/pocket_docking_5.prm

>  <SCORE>
-17.3481

>  <SCORE.INTER>
-0.449502

>  <SCORE.INTER.CONST>
1

>  <SCORE.INTER.POLAR>
-0.62259

>  <SCORE.INTER.ROT>
15

>  <SCORE.INTER.SOLV>
13.5722

>  <SCORE.INTER.VDW>
-16.3484

>  <SCORE.INTER.norm>
-0.00864427

>  <SCORE.INTRA>
-16.9198

>  <SCORE.INTRA.DIHEDRAL>
-34.0423

>  <SCORE.INTRA.DIHEDRAL.0>
47.8724

>  <SCORE.INTRA.POLAR>
0

>  <SCORE.INTRA.POLAR.0>
0

>  <SCORE.INTRA.REPUL>
0

>  <SCORE.INTRA.REPUL.0>
0

>  <SCORE.INTRA.SOLV>
-0.973222

>  <SCORE.INTRA.SOLV.lig_0>
-115.677

>  <SCORE.INTRA.VDW>
0.58796

>  <SCORE.INTRA.VDW.0>
-7.4833

>  <SCORE.INTRA.norm>
-0.325381

>  <SCORE.RESTR>
0.0211679

>  <SCORE.RESTR.CAVITY>
0.0211679

>  <SCORE.RESTR.norm>
0.000407074

>  <SCORE.SYSTEM>
0

>  <SCORE.SYSTEM.CONST>
0

>  <SCORE.SYSTEM.DIHEDRAL>
0

>  <SCORE.SYSTEM.SOLV>
0

>  <SCORE.SYSTEM.norm>
0

>  <SCORE.heavy>
52

>  <SCORE.norm>
-0.333618

>  <RMSD>
6.043

$$$$
2be0_lig
 OpenBabel11021811423D
libRbt.so/2013.1/901 2013/11/27
 52 56  0  0  0  0  0  0  0  0999 V2000
   46.2038    8.7313   -7.1457 C   0  0  2  0  0  0  0  0  0  0  0  0
   44.9784    8.4680   -7.7875 O   0  0  0  0  0  0  0  0  0  0  0  0
   42.9072    4.9621   -9.4576 C   0  0  2  0  0  0  0  0  0  0  0  0
   42.7059    3.6585  -10.1502 N   0  0  0  0  0  0  0  0  0  0  0  0
   44.2964    5.7398   -5.0666 C   0  0  2  0  0  0  0  0  0  0  0  0
   42.8559    5.6766   -5.1024 O   0  0  0  0  0  0  0  0  0  0  0  0
   42.3982    8.4379   -2.1494 C   0  0  1  0  0  0  0  0  0  0  0  0
   42.2108    6.2918    2.1761 C   0  0  0  0  0  0  0  0  0  0  0  0
   47.2777    9.2879   -8.1669 C   0  0  2  0  0  0  0  0  0  0  0  0
   46.7380   10.4560   -8.8659 N   0  0  0  0  0  0  0  0  0  0  0  0
   43.6628    5.9659  -10.4422 C   0  0  0  0  0  0  0  0  0  0  0  0
   44.6680    6.7652   -3.9835 C   0  0  2  0  0  0  0  0  0  0  0  0
   44.6545    5.9617   -2.7220 O   0  0  0  0  0  0  0  0  0  0  0  0
   40.9046    8.8412   -2.6475 C   0  0  2  0  0  0  0  0  0  0  0  0
   40.8870   10.3025   -2.9789 N   0  0  0  0  0  0  0  0  0  0  0  0
   41.2642    5.4590    1.4941 C   0  0  0  0  0  0  0  0  0  0  0  0
   40.0544    5.0942    2.1409 N   0  0  0  0  0  0  0  0  0  0  0  0
   47.7061    8.1288   -9.1812 C   0  0  1  0  0  0  0  0  0  0  0  0
   48.6622    8.6496  -10.0915 O   0  0  0  0  0  0  0  0  0  0  0  0
   43.9160    7.4064   -9.7137 C   0  0  2  0  0  0  0  0  0  0  0  0
   44.5934    8.3198  -10.5902 N   0  0  0  0  0  0  0  0  0  0  0  0
   43.5554    7.7979   -4.2452 C   0  0  2  0  0  0  0  0  0  0  0  0
   43.3054    8.7500   -3.2218 O   0  0  0  0  0  0  0  0  0  0  0  0
   39.9116    8.5210   -1.4897 C   0  0  1  0  0  0  0  0  0  0  0  0
   40.0003    7.0691   -1.2627 O   0  0  0  0  0  0  0  0  0  0  0  0
   39.7220    5.5172    3.4595 C   0  0  0  0  0  0  0  0  0  0  0  0
   48.2778    6.9375   -8.3590 C   0  0  2  0  0  0  0  0  0  0  0  0
   48.6903    5.8252   -9.2488 O   0  0  0  0  0  0  0  0  0  0  0  0
   44.7731    7.1996   -8.3976 C   0  0  2  0  0  0  0  0  0  0  0  0
   42.3301    6.9216   -4.5983 C   0  0  1  0  0  0  0  0  0  0  0  0
   40.3277    9.3513   -0.1543 C   0  0  2  0  0  0  0  0  0  0  0  0
   40.2418   10.8035   -0.3740 O   0  0  0  0  0  0  0  0  0  0  0  0
   40.6182    6.3426    4.1824 C   0  0  0  0  0  0  0  0  0  0  0  0
   47.1944    6.3976   -7.3479 C   0  0  2  0  0  0  0  0  0  0  0  0
   46.8299    7.5294   -6.5106 O   0  0  0  0  0  0  0  0  0  0  0  0
   43.9944    6.2007   -7.4729 C   0  0  2  0  0  0  0  0  0  0  0  0
   44.8388    6.1011   -6.3326 O   0  0  0  0  0  0  0  0  0  0  0  0
   41.4800    7.5300   -5.7124 C   0  0  0  0  0  0  0  0  0  0  0  0
   41.8011    7.1106   -7.0171 O   0  0  0  0  0  0  0  0  0  0  0  0
   41.8175    8.9610    0.2712 C   0  0  1  0  0  0  0  0  0  0  0  0
   42.7402    9.2434   -0.8965 O   0  0  0  0  0  0  0  0  0  0  0  0
   41.8950    6.7506    3.5518 C   0  0  0  0  0  0  0  0  0  0  0  0
   47.7975    5.2913   -6.5874 C   0  0  0  0  0  0  0  0  0  0  0  0
   47.7221    5.5573   -5.2773 O   0  0  0  0  0  0  0  0  0  0  0  0
   43.7931    4.8044   -8.1992 C   0  0  1  0  0  0  0  0  0  0  0  0
   43.0932    3.9346   -7.3716 O   0  0  0  0  0  0  0  0  0  0  0  0
   44.1142    6.3435   -1.3959 C   0  0  0  0  0  0  0  0  0  0  0  0
   42.1622    9.7889    1.5390 C   0  0  0  0  0  0  0  0  0  0  0  0
   42.4096   11.1667    1.1936 N   0  0  0  0  0  0  0  0  0  0  0  0
   44.1116    5.0815   -0.5271 C   0  0  0  0  0  0  0  0  0  0  0  0
   44.3623    5.4590    0.9017 N   0  0  0  0  0  0  0  0  0  0  0  0
   43.5707    6.6900    1.4194 C   0  0  0  0  0  0  0  0  0  0  0  0
  1  2  1  6  0  0  0
  1  9  1  0  0  0  0
  1 35  1  0  0  0  0
  3  4  1  6  0  0  0
  3 11  1  0  0  0  0
  3 45  1  0  0  0  0
  5  6  1  0  0  0  0
  5 12  1  0  0  0  0
  5 37  1  6  0  0  0
  6 30  1  0  0  0  0
  7 14  1  0  0  0  0
  7 41  1  0  0  0  0
  7 23  1  6  0  0  0
  8 16  2  0  0  0  0
  8 42  1  0  0  0  0
  9 10  1  6  0  0  0
  9 18  1  0  0  0  0
 11 20  1  0  0  0  0
 12 13  1  1  0  0  0
 12 22  1  0  0  0  0
 13 47  1  0  0  0  0
 14 15  1  1  0  0  0
 14 24  1  0  0  0  0
 16 17  1  0  0  0  0
 17 26  2  0  0  0  0
 18 19  1  6  0  0  0
 18 27  1  0  0  0  0
 20 21  1  6  0  0  0
 20 29  1  0  0  0  0
 22 23  1  1  0  0  0
 22 30  1  0  0  0  0
 24 25  1  1  0  0  0
 24 31  1  0  0  0  0
 26 33  1  0  0  0  0
 27 28  1  6  0  0  0
 27 34  1  0  0  0  0
 29  2  1  1  0  0  0
 29 36  1  0  0  0  0
 30 38  1  6  0  0  0
 31 32  1  6  0  0  0
 31 40  1  0  0  0  0
 33 42  2  0  0  0  0
 34 35  1  0  0  0  0
 34 43  1  1  0  0  0
 36 37  1  1  0  0  0
 36 45  1  0  0  0  0
 38 39  1  0  0  0  0
 40 41  1  0  0  0  0
 40 48  1  1  0  0  0
 43 44  1  0  0  0  0
 45 46  1  1  0  0  0
 47 50  1  0  0  0  0
 48 49  1  0  0  0  0
 50 51  1  0  0  0  0
 51 52  1  0  0  0  0
 52  8  1  0  0  0  0
M  END
>  <CHROM.1>
87.05264119,-7.16626369,-87.07259647,-138.25836689,169.59748629,-86.65649566
-144.04471783,-23.82409909,123.52574266,154.97662906,-74.39203464,147.34687723
44.44338393,95.22116799,-54.36441823,43.70849218,7.18658296,-4.21124962,-1.07832510
-0.51125491,1.76839250

>  <Name>
2be0_lig

>  <RI>
0

>  <Rbt.Current_Directory>
/home/itssahil/PROJECTS/Mol_Feturizer/New_Systems/rnas/2be0

>  <Rbt.Executable>
rbdock ($Id: //depot/dev/client3/rdock/2013.1/src/exe/rbdock.cxx#4 $)

>  <Rbt.Library>
libRbt.so (2013.1, Build901 2013/11/27)

>  <Rbt.Parameter_File>
/export/apps/rDock/src/rDock_2013.1_src/data/scripts/dock_solv.prm

>  <Rbt.Receptor>
prm/blind_docking_80.prm

>  <SCORE>
67.1887

>  <SCORE.INTER>
22.0587

>  <SCORE.INTER.CONST>
1

>  <SCORE.INTER.POLAR>
-0.781481

>  <SCORE.INTER.ROT>
15

>  <SCORE.INTER.SOLV>
29.3791

>  <SCORE.INTER.VDW>
-6.08229

>  <SCORE.INTER.norm>
0.424206

>  <SCORE.INTRA>
8.24399

>  <SCORE.INTRA.DIHEDRAL>
-4.28947

>  <SCORE.INTRA.DIHEDRAL.0>
47.8724

>  <SCORE.INTRA.POLAR>
0

>  <SCORE.INTRA.POLAR.0>
0

>  <SCORE.INTRA.REPUL>
0

>  <SCORE.INTRA.REPUL.0>
0

>  <SCORE.INTRA.SOLV>
5.15808

>  <SCORE.INTRA.SOLV.lig_0>
-115.677

>  <SCORE.INTRA.VDW>
7.80969

>  <SCORE.INTRA.VDW.0>
-7.4833

>  <SCORE.INTRA.norm>
0.158538

>  <SCORE.RESTR>
36.886

>  <SCORE.RESTR.CAVITY>
36.886

>  <SCORE.RESTR.norm>
0.709345

>  <SCORE.SYSTEM>
0

>  <SCORE.SYSTEM.CONST>
0

>  <SCORE.SYSTEM.DIHEDRAL>
0

>  <SCORE.SYSTEM.SOLV>
0

>  <SCORE.SYSTEM.norm>
0

>  <SCORE.heavy>
52

>  <SCORE.norm>
1.29209

>  <RMSD>
6.084

$$$$
2be0_lig
 OpenBabel11021811423D
libRbt.so/2013.1/901 2013/11/27
 52 56  0  0  0  0  0  0  0  0999 V2000
   44.4734    9.7404   -7.8033 C   0  0  2  0  0  0  0  0  0  0  0  0
   45.5137    9.0262   -7.1784 O   0  0  0  0  0  0  0  0  0  0  0  0
   44.9653    4.8698   -8.5182 C   0  0  2  0  0  0  0  0  0  0  0  0
   44.9667    3.3804   -8.4840 N   0  0  0  0  0  0  0  0  0  0  0  0
   43.7545    7.9474   -5.2122 C   0  0  2  0  0  0  0  0  0  0  0  0
   44.6681    6.9312   -4.7508 O   0  0  0  0  0  0  0  0  0  0  0  0
   42.3073    6.8191   -1.3305 C   0  0  1  0  0  0  0  0  0  0  0  0
   40.4770   10.2843    0.0927 C   0  0  0  0  0  0  0  0  0  0  0  0
   44.0578    9.0662   -9.1738 C   0  0  2  0  0  0  0  0  0  0  0  0
   43.7285    7.6565   -8.9527 N   0  0  0  0  0  0  0  0  0  0  0  0
   46.4369    5.4013   -8.2016 C   0  0  0  0  0  0  0  0  0  0  0  0
   42.6526    8.0689   -4.1475 C   0  0  2  0  0  0  0  0  0  0  0  0
   43.2338    9.0197   -3.1498 O   0  0  0  0  0  0  0  0  0  0  0  0
   43.8277    6.2885   -1.1111 C   0  0  2  0  0  0  0  0  0  0  0  0
   43.8143    4.7902   -1.0833 N   0  0  0  0  0  0  0  0  0  0  0  0
   39.7835    9.8971   -1.1006 C   0  0  0  0  0  0  0  0  0  0  0  0
   38.8031    8.8721   -1.0430 N   0  0  0  0  0  0  0  0  0  0  0  0
   45.2356    9.2453  -10.2398 C   0  0  1  0  0  0  0  0  0  0  0  0
   44.8467    8.6283  -11.4573 O   0  0  0  0  0  0  0  0  0  0  0  0
   46.4752    7.0348   -8.2156 C   0  0  2  0  0  0  0  0  0  0  0  0
   47.7947    7.5258   -7.9342 N   0  0  0  0  0  0  0  0  0  0  0  0
   42.5062    6.5780   -3.7889 C   0  0  2  0  0  0  0  0  0  0  0  0
   41.8378    6.2693   -2.5746 O   0  0  0  0  0  0  0  0  0  0  0  0
   44.3453    6.8656    0.2410 C   0  0  1  0  0  0  0  0  0  0  0  0
   44.3312    8.3304    0.0942 O   0  0  0  0  0  0  0  0  0  0  0  0
   38.4638    8.1905    0.1605 C   0  0  0  0  0  0  0  0  0  0  0  0
   45.5107   10.7661  -10.4231 C   0  0  2  0  0  0  0  0  0  0  0  0
   46.6010   10.9964  -11.4015 O   0  0  0  0  0  0  0  0  0  0  0  0
   45.4570    7.6053   -7.1444 C   0  0  2  0  0  0  0  0  0  0  0  0
   43.9590    6.0498   -3.8559 C   0  0  1  0  0  0  0  0  0  0  0  0
   43.3768    6.3873    1.4572 C   0  0  2  0  0  0  0  0  0  0  0  0
   43.3856    4.9240    1.6095 O   0  0  0  0  0  0  0  0  0  0  0  0
   39.1151    8.5310    1.3716 C   0  0  0  0  0  0  0  0  0  0  0  0
   45.9225   11.4196   -9.0479 C   0  0  2  0  0  0  0  0  0  0  0  0
   44.8209   11.1579   -8.1353 O   0  0  0  0  0  0  0  0  0  0  0  0
   44.0340    7.0464   -7.4935 C   0  0  2  0  0  0  0  0  0  0  0  0
   43.2110    7.6261   -6.4885 O   0  0  0  0  0  0  0  0  0  0  0  0
   44.0420    4.6464   -4.4540 C   0  0  0  0  0  0  0  0  0  0  0  0
   42.9695    4.2793   -5.2884 O   0  0  0  0  0  0  0  0  0  0  0  0
   41.8856    6.8877    1.1770 C   0  0  1  0  0  0  0  0  0  0  0  0
   41.4405    6.3440   -0.1650 O   0  0  0  0  0  0  0  0  0  0  0  0
   40.1469    9.5938    1.3644 C   0  0  0  0  0  0  0  0  0  0  0  0
   46.1477   12.8555   -9.2794 C   0  0  0  0  0  0  0  0  0  0  0  0
   45.0513   13.3968   -9.8250 O   0  0  0  0  0  0  0  0  0  0  0  0
   44.0255    5.4607   -7.4408 C   0  0  1  0  0  0  0  0  0  0  0  0
   42.7613    4.9811   -7.7623 O   0  0  0  0  0  0  0  0  0  0  0  0
   42.5459    9.7193   -2.0391 C   0  0  0  0  0  0  0  0  0  0  0  0
   41.0084    6.3945    2.3598 C   0  0  0  0  0  0  0  0  0  0  0  0
   40.9418    4.9543    2.3759 N   0  0  0  0  0  0  0  0  0  0  0  0
   43.6216   10.4482   -1.2273 C   0  0  0  0  0  0  0  0  0  0  0  0
   43.0361   10.9141    0.0715 N   0  0  0  0  0  0  0  0  0  0  0  0
   41.5802   11.4480   -0.0017 C   0  0  0  0  0  0  0  0  0  0  0  0
  1  2  1  6  0  0  0
  1  9  1  0  0  0  0
  1 35  1  0  0  0  0
  3  4  1  1  0  0  0
  3 11  1  0  0  0  0
  3 45  1  0  0  0  0
  5  6  1  0  0  0  0
  5 12  1  0  0  0  0
  5 37  1  6  0  0  0
  6 30  1  0  0  0  0
  7 14  1  0  0  0  0
  7 41  1  0  0  0  0
  7 23  1  6  0  0  0
  8 16  2  0  0  0  0
  8 42  1  0  0  0  0
  9 10  1  1  0  0  0
  9 18  1  0  0  0  0
 11 20  1  0  0  0  0
 12 13  1  1  0  0  0
 12 22  1  0  0  0  0
 13 47  1  0  0  0  0
 14 15  1  1  0  0  0
 14 24  1  0  0  0  0
 16 17  1  0  0  0  0
 17 26  2  0  0  0  0
 18 19  1  6  0  0  0
 18 27  1  0  0  0  0
 20 21  1  1  0  0  0
 20 29  1  0  0  0  0
 22 23  1  1  0  0  0
 22 30  1  0  0  0  0
 24 25  1  6  0  0  0
 24 31  1  0  0  0  0
 26 33  1  0  0  0  0
 27 28  1  6  0  0  0
 27 34  1  0  0  0  0
 29  2  1  6  0  0  0
 29 36  1  0  0  0  0
 30 38  1  6  0  0  0
 31 32  1  6  0  0  0
 31 40  1  0  0  0  0
 33 42  2  0  0  0  0
 34 35  1  0  0  0  0
 34 43  1  6  0  0  0
 36 37  1  1  0  0  0
 36 45  1  0  0  0  0
 38 39  1  0  0  0  0
 40 41  1  0  0  0  0
 40 48  1  1  0  0  0
 43 44  1  0  0  0  0
 45 46  1  6  0  0  0
 47 50  1  0  0  0  0
 48 49  1  0  0  0  0
 50 51  1  0  0  0  0
 51 52  1  0  0  0  0
 52  8  1  0  0  0  0
M  END
>  <CHROM.1>
-43.32787008,-40.07527330,-60.74992562,167.26437882,173.79119411,-56.25286349
104.15422678,-92.69734173,55.83497404,-28.67508887,-65.20346907,-167.36533679
-38.69591225,84.77842604,-105.23819140,43.48919380,7.91359342,-4.37242007
0.39379032,1.16995513,-0.27783323

>  <Name>
2be0_lig

>  <RI>
224

>  <Rbt.Current_Directory>
/home/itssahil/PROJECTS/Mol_Feturizer/New_Systems/rnas/2be0

>  <Rbt.Executable>
rbdock ($Id: //depot/dev/client3/rdock/2013.1/src/exe/rbdock.cxx#4 $)

>  <Rbt.Library>
libRbt.so (2013.1, Build901 2013/11/27)

>  <Rbt.Parameter_File>
/export/apps/rDock/src/rDock_2013.1_src/data/scripts/dock_solv.prm

>  <Rbt.Receptor>
prm/blind_docking_100.prm

>  <SCORE>
30.0163

>  <SCORE.INTER>
-12.2596

>  <SCORE.INTER.CONST>
1

>  <SCORE.INTER.POLAR>
-1.70176

>  <SCORE.INTER.ROT>
15

>  <SCORE.INTER.SOLV>
23.9151

>  <SCORE.INTER.VDW>
-24.0722

>  <SCORE.INTER.norm>
-0.235762

>  <SCORE.INTRA>
27.777

>  <SCORE.INTRA.DIHEDRAL>
-28.3057

>  <SCORE.INTRA.DIHEDRAL.0>
47.8724

>  <SCORE.INTRA.POLAR>
0

>  <SCORE.INTRA.POLAR.0>
0

>  <SCORE.INTRA.REPUL>
0

>  <SCORE.INTRA.REPUL.0>
0

>  <SCORE.INTRA.SOLV>
13.2586

>  <SCORE.INTRA.SOLV.lig_0>
-115.677

>  <SCORE.INTRA.VDW>
35.3006

>  <SCORE.INTRA.VDW.0>
-7.4833

>  <SCORE.INTRA.norm>
0.534173

>  <SCORE.RESTR>
14.4989

>  <SCORE.RESTR.CAVITY>
14.4989

>  <SCORE.RESTR.norm>
0.278825

>  <SCORE.SYSTEM>
0

>  <SCORE.SYSTEM.CONST>
0

>  <SCORE.SYSTEM.DIHEDRAL>
0

>  <SCORE.SYSTEM.SOLV>
0

>  <SCORE.SYSTEM.norm>
0

>  <SCORE.heavy>
52

>  <SCORE.norm>
0.577236

>  <RMSD>
6.106

$$$$
2be0_lig
 OpenBabel11021811423D
libRbt.so/2013.1/901 2013/11/27
 52 56  0  0  0  0  0  0  0  0999 V2000
   44.2270    5.6885   -8.4156 C   0  0  2  0  0  0  0  0  0  0  0  0
   43.8083    5.8204   -7.0776 O   0  0  0  0  0  0  0  0  0  0  0  0
   39.6712    6.0846   -5.5992 C   0  0  2  0  0  0  0  0  0  0  0  0
   38.2720    5.6796   -5.2867 N   0  0  0  0  0  0  0  0  0  0  0  0
   44.4302    5.3512   -4.2239 C   0  0  2  0  0  0  0  0  0  0  0  0
   44.7938    5.0318   -2.8652 O   0  0  0  0  0  0  0  0  0  0  0  0
   42.9082    9.3097   -2.0009 C   0  0  1  0  0  0  0  0  0  0  0  0
   49.3484    5.0252   -6.6498 C   0  0  0  0  0  0  0  0  0  0  0  0
   45.7793    5.9628   -8.5601 C   0  0  2  0  0  0  0  0  0  0  0  0
   46.5230    5.0972   -7.6423 N   0  0  0  0  0  0  0  0  0  0  0  0
   39.9321    5.8992   -7.1632 C   0  0  0  0  0  0  0  0  0  0  0  0
   44.4500    6.8838   -4.3390 C   0  0  2  0  0  0  0  0  0  0  0  0
   45.8838    7.1939   -4.6313 O   0  0  0  0  0  0  0  0  0  0  0  0
   43.3595    9.9763   -0.5890 C   0  0  2  0  0  0  0  0  0  0  0  0
   43.7587    8.8815    0.3532 N   0  0  0  0  0  0  0  0  0  0  0  0
   49.2074    6.0092   -7.6826 C   0  0  0  0  0  0  0  0  0  0  0  0
   48.8709    5.6025   -9.0003 N   0  0  0  0  0  0  0  0  0  0  0  0
   46.0783    7.5110   -8.2969 C   0  0  1  0  0  0  0  0  0  0  0  0
   47.4741    7.7341   -8.4236 O   0  0  0  0  0  0  0  0  0  0  0  0
   41.4638    6.3202   -7.5459 C   0  0  2  0  0  0  0  0  0  0  0  0
   41.7107    6.1600   -8.9511 N   0  0  0  0  0  0  0  0  0  0  0  0
   43.8575    7.2313   -2.9603 C   0  0  2  0  0  0  0  0  0  0  0  0
   44.0325    8.5633   -2.5002 O   0  0  0  0  0  0  0  0  0  0  0  0
   42.1458   10.7777   -0.0288 C   0  0  1  0  0  0  0  0  0  0  0  0
   41.8543   11.8269   -1.0196 O   0  0  0  0  0  0  0  0  0  0  0  0
   48.6626    4.2409   -9.3620 C   0  0  0  0  0  0  0  0  0  0  0  0
   45.2617    8.3539   -9.3191 C   0  0  2  0  0  0  0  0  0  0  0  0
   45.4957    9.8048   -9.1210 O   0  0  0  0  0  0  0  0  0  0  0  0
   42.4863    5.4332   -6.7229 C   0  0  2  0  0  0  0  0  0  0  0  0
   44.4713    6.1606   -2.0271 C   0  0  1  0  0  0  0  0  0  0  0  0
   40.8706    9.7881    0.1719 C   0  0  2  0  0  0  0  0  0  0  0  0
   41.1549    8.7364    1.1606 O   0  0  0  0  0  0  0  0  0  0  0  0
   48.7872    3.2241   -8.3835 C   0  0  0  0  0  0  0  0  0  0  0  0
   43.7190    8.0668   -9.1600 C   0  0  2  0  0  0  0  0  0  0  0  0
   43.5560    6.6357   -9.3605 O   0  0  0  0  0  0  0  0  0  0  0  0
   42.1811    5.6428   -5.1991 C   0  0  2  0  0  0  0  0  0  0  0  0
   43.1537    4.8207   -4.5655 O   0  0  0  0  0  0  0  0  0  0  0  0
   43.4794    5.6661   -0.9756 C   0  0  0  0  0  0  0  0  0  0  0  0
   42.7935    6.6722   -0.2695 O   0  0  0  0  0  0  0  0  0  0  0  0
   40.4921    9.1185   -1.2286 C   0  0  1  0  0  0  0  0  0  0  0  0
   41.7108    8.3914   -1.7584 O   0  0  0  0  0  0  0  0  0  0  0  0
   49.1378    3.5967   -6.9933 C   0  0  0  0  0  0  0  0  0  0  0  0
   43.0037    8.8722  -10.1628 C   0  0  0  0  0  0  0  0  0  0  0  0
   43.5153    8.6310  -11.3763 O   0  0  0  0  0  0  0  0  0  0  0  0
   40.6975    5.1960   -4.8573 C   0  0  1  0  0  0  0  0  0  0  0  0
   40.4395    5.3974   -3.5066 O   0  0  0  0  0  0  0  0  0  0  0  0
   46.8291    6.4425   -5.4905 C   0  0  0  0  0  0  0  0  0  0  0  0
   39.2811    8.1803   -0.9739 C   0  0  0  0  0  0  0  0  0  0  0  0
   38.7817    7.6477   -2.2172 N   0  0  0  0  0  0  0  0  0  0  0  0
   47.2065    5.1626   -4.7376 C   0  0  0  0  0  0  0  0  0  0  0  0
   48.5755    5.3167   -4.1470 N   0  0  0  0  0  0  0  0  0  0  0  0
   49.7285    5.5143   -5.1677 C   0  0  0  0  0  0  0  0  0  0  0  0
  1  2  1  1  0  0  0
  1  9  1  0  0  0  0
  1 35  1  0  0  0  0
  3  4  1  6  0  0  0
  3 11  1  0  0  0  0
  3 45  1  0  0  0  0
  5  6  1  0  0  0  0
  5 12  1  0  0  0  0
  5 37  1  1  0  0  0
  6 30  1  0  0  0  0
  7 14  1  0  0  0  0
  7 41  1  0  0  0  0
  7 23  1  1  0  0  0
  8 16  2  0  0  0  0
  8 42  1  0  0  0  0
  9 10  1  1  0  0  0
  9 18  1  0  0  0  0
 11 20  1  0  0  0  0
 12 13  1  1  0  0  0
 12 22  1  0  0  0  0
 13 47  1  0  0  0  0
 14 15  1  1  0  0  0
 14 24  1  0  0  0  0
 16 17  1  0  0  0  0
 17 26  2  0  0  0  0
 18 19  1  6  0  0  0
 18 27  1  0  0  0  0
 20 21  1  6  0  0  0
 20 29  1  0  0  0  0
 22 23  1  1  0  0  0
 22 30  1  0  0  0  0
 24 25  1  6  0  0  0
 24 31  1  0  0  0  0
 26 33  1  0  0  0  0
 27 28  1  1  0  0  0
 27 34  1  0  0  0  0
 29  2  1  1  0  0  0
 29 36  1  0  0  0  0
 30 38  1  1  0  0  0
 31 32  1  1  0  0  0
 31 40  1  0  0  0  0
 33 42  2  0  0  0  0
 34 35  1  0  0  0  0
 34 43  1  6  0  0  0
 36 37  1  1  0  0  0
 36 45  1  0  0  0  0
 38 39  1  0  0  0  0
 40 41  1  0  0  0  0
 40 48  1  1  0  0  0
 43 44  1  0  0  0  0
 45 46  1  1  0  0  0
 47 50  1  0  0  0  0
 48 49  1  0  0  0  0
 50 51  1  0  0  0  0
 51 52  1  0  0  0  0
 52  8  1  0  0  0  0
M  END
>  <CHROM.1>
-171.44683787,131.68813335,131.87672164,38.32959637,-73.23223352,130.46949725
-60.75473843,-165.06322646,53.42177918,89.74153516,173.66178312,-103.06015453
-62.67657550,-19.79541178,111.82101137,43.99016373,6.88519713,-5.10262707
0.92144296,0.23456598,-1.71857830

>  <Name>
2be0_lig

>  <RI>
224

>  <Rbt.Current_Directory>
/home/itssahil/PROJECTS/Mol_Feturizer/New_Systems/rnas/2be0

>  <Rbt.Executable>
rbdock ($Id: //depot/dev/client3/rdock/2013.1/src/exe/rbdock.cxx#4 $)

>  <Rbt.Library>
libRbt.so (2013.1, Build901 2013/11/27)

>  <Rbt.Parameter_File>
/export/apps/rDock/src/rDock_2013.1_src/data/scripts/dock_solv.prm

>  <Rbt.Receptor>
prm/blind_docking_100.prm

>  <SCORE>
38.2921

>  <SCORE.INTER>
-2.59439

>  <SCORE.INTER.CONST>
1

>  <SCORE.INTER.POLAR>
-1.9706

>  <SCORE.INTER.ROT>
15

>  <SCORE.INTER.SOLV>
27.8137

>  <SCORE.INTER.VDW>
-18.0322

>  <SCORE.INTER.norm>
-0.0498921

>  <SCORE.INTRA>
25.5374

>  <SCORE.INTRA.DIHEDRAL>
-13.8638

>  <SCORE.INTRA.DIHEDRAL.0>
47.8724

>  <SCORE.INTRA.POLAR>
0

>  <SCORE.INTRA.POLAR.0>
0

>  <SCORE.INTRA.REPUL>
0.0251793

>  <SCORE.INTRA.REPUL.0>
0

>  <SCORE.INTRA.SOLV>
17.5416

>  <SCORE.INTRA.SOLV.lig_0>
-115.677

>  <SCORE.INTRA.VDW>
23.5726

>  <SCORE.INTRA.VDW.0>
-7.4833

>  <SCORE.INTRA.norm>
0.491104

>  <SCORE.RESTR>
15.3491

>  <SCORE.RESTR.CAVITY>
15.3491

>  <SCORE.RESTR.norm>
0.295175

>  <SCORE.SYSTEM>
0

>  <SCORE.SYSTEM.CONST>
0

>  <SCORE.SYSTEM.DIHEDRAL>
0

>  <SCORE.SYSTEM.SOLV>
0

>  <SCORE.SYSTEM.norm>
0

>  <SCORE.heavy>
52

>  <SCORE.norm>
0.736387

>  <RMSD>
6.156

$$$$
2be0_lig
 OpenBabel11021811423D
libRbt.so/2013.1/901 2013/11/27
 52 56  0  0  0  0  0  0  0  0999 V2000
   44.6076    8.7469   -7.8940 C   0  0  2  0  0  0  0  0  0  0  0  0
   45.3255    7.5469   -8.0600 O   0  0  0  0  0  0  0  0  0  0  0  0
   47.8343    4.9651   -5.5280 C   0  0  2  0  0  0  0  0  0  0  0  0
   48.8522    4.5677   -4.5154 N   0  0  0  0  0  0  0  0  0  0  0  0
   44.4990    7.2296   -4.0342 C   0  0  2  0  0  0  0  0  0  0  0  0
   44.0406    6.0585   -3.3279 O   0  0  0  0  0  0  0  0  0  0  0  0
   40.0810    7.3125   -2.4578 C   0  0  1  0  0  0  0  0  0  0  0  0
   41.3175    8.0955    3.1099 C   0  0  0  0  0  0  0  0  0  0  0  0
   43.6270    9.0012   -9.1103 C   0  0  2  0  0  0  0  0  0  0  0  0
   42.7572    7.8379   -9.2971 N   0  0  0  0  0  0  0  0  0  0  0  0
   48.5266    5.8895   -6.6300 C   0  0  0  0  0  0  0  0  0  0  0  0
   43.5147    8.3619   -3.7002 C   0  0  2  0  0  0  0  0  0  0  0  0
   44.0389    8.9122   -2.4119 O   0  0  0  0  0  0  0  0  0  0  0  0
   38.9133    8.2981   -1.9043 C   0  0  2  0  0  0  0  0  0  0  0  0
   39.5217    9.2682   -0.9376 N   0  0  0  0  0  0  0  0  0  0  0  0
   40.6468    9.0508    3.9419 C   0  0  0  0  0  0  0  0  0  0  0  0
   40.4497    8.7683    5.3190 N   0  0  0  0  0  0  0  0  0  0  0  0
   44.4753    9.3311  -10.4246 C   0  0  1  0  0  0  0  0  0  0  0  0
   43.5791    9.5480  -11.5035 O   0  0  0  0  0  0  0  0  0  0  0  0
   47.4381    6.3598   -7.7543 C   0  0  2  0  0  0  0  0  0  0  0  0
   48.0490    7.1906   -8.7532 N   0  0  0  0  0  0  0  0  0  0  0  0
   42.2072    7.5476   -3.7091 C   0  0  2  0  0  0  0  0  0  0  0  0
   41.0745    8.1395   -3.0900 O   0  0  0  0  0  0  0  0  0  0  0  0
   37.8355    7.4165   -1.2041 C   0  0  1  0  0  0  0  0  0  0  0  0
   37.2994    6.5214   -2.2427 O   0  0  0  0  0  0  0  0  0  0  0  0
   40.8892    7.5611    5.9334 C   0  0  0  0  0  0  0  0  0  0  0  0
   45.3574   10.5821  -10.1437 C   0  0  2  0  0  0  0  0  0  0  0  0
   46.1736   10.9359  -11.3301 O   0  0  0  0  0  0  0  0  0  0  0  0
   46.2543    7.1497   -7.0585 C   0  0  2  0  0  0  0  0  0  0  0  0
   42.6249    6.1938   -3.0870 C   0  0  1  0  0  0  0  0  0  0  0  0
   38.5116    6.5703    0.0095 C   0  0  2  0  0  0  0  0  0  0  0  0
   39.0500    7.4586    1.0513 O   0  0  0  0  0  0  0  0  0  0  0  0
   41.5590    6.5800    5.1616 C   0  0  0  0  0  0  0  0  0  0  0  0
   46.3263   10.3097   -8.9294 C   0  0  2  0  0  0  0  0  0  0  0  0
   45.4709    9.9663   -7.8046 O   0  0  0  0  0  0  0  0  0  0  0  0
   45.6177    6.2044   -5.9814 C   0  0  2  0  0  0  0  0  0  0  0  0
   44.5730    7.0021   -5.4378 O   0  0  0  0  0  0  0  0  0  0  0  0
   41.9422    5.0062   -3.7635 C   0  0  0  0  0  0  0  0  0  0  0  0
   42.2604    4.8178   -5.1217 O   0  0  0  0  0  0  0  0  0  0  0  0
   39.6841    5.6532   -0.5711 C   0  0  1  0  0  0  0  0  0  0  0  0
   40.6826    6.5431   -1.2823 O   0  0  0  0  0  0  0  0  0  0  0  0
   41.7887    6.8267    3.7191 C   0  0  0  0  0  0  0  0  0  0  0  0
   47.1159   11.5301   -8.6987 C   0  0  0  0  0  0  0  0  0  0  0  0
   46.3004   12.5262   -8.3306 O   0  0  0  0  0  0  0  0  0  0  0  0
   46.6933    5.7925   -4.8902 C   0  0  1  0  0  0  0  0  0  0  0  0
   46.1168    4.9473   -3.9496 O   0  0  0  0  0  0  0  0  0  0  0  0
   43.2780    9.2902   -1.1977 C   0  0  0  0  0  0  0  0  0  0  0  0
   40.2968    4.8811    0.6288 C   0  0  0  0  0  0  0  0  0  0  0  0
   41.2107    5.7227    1.3604 N   0  0  0  0  0  0  0  0  0  0  0  0
   43.3774    8.1172   -0.2171 C   0  0  0  0  0  0  0  0  0  0  0  0
   43.0224    8.5876    1.1611 N   0  0  0  0  0  0  0  0  0  0  0  0
   41.5279    8.4423    1.5556 C   0  0  0  0  0  0  0  0  0  0  0  0
  1  2  1  6  0  0  0
  1  9  1  0  0  0  0
  1 35  1  0  0  0  0
  3  4  1  1  0  0  0
  3 11  1  0  0  0  0
  3 45  1  0  0  0  0
  5  6  1  0  0  0  0
  5 12  1  0  0  0  0
  5 37  1  6  0  0  0
  6 30  1  0  0  0  0
  7 14  1  0  0  0  0
  7 41  1  0  0  0  0
  7 23  1  1  0  0  0
  8 16  2  0  0  0  0
  8 42  1  0  0  0  0
  9 10  1  6  0  0  0
  9 18  1  0  0  0  0
 11 20  1  0  0  0  0
 12 13  1  1  0  0  0
 12 22  1  0  0  0  0
 13 47  1  0  0  0  0
 14 15  1  1  0  0  0
 14 24  1  0  0  0  0
 16 17  1  0  0  0  0
 17 26  2  0  0  0  0
 18 19  1  6  0  0  0
 18 27  1  0  0  0  0
 20 21  1  6  0  0  0
 20 29  1  0  0  0  0
 22 23  1  1  0  0  0
 22 30  1  0  0  0  0
 24 25  1  6  0  0  0
 24 31  1  0  0  0  0
 26 33  1  0  0  0  0
 27 28  1  6  0  0  0
 27 34  1  0  0  0  0
 29  2  1  6  0  0  0
 29 36  1  0  0  0  0
 30 38  1  6  0  0  0
 31 32  1  1  0  0  0
 31 40  1  0  0  0  0
 33 42  2  0  0  0  0
 34 35  1  0  0  0  0
 34 43  1  1  0  0  0
 36 37  1  1  0  0  0
 36 45  1  0  0  0  0
 38 39  1  0  0  0  0
 40 41  1  0  0  0  0
 40 48  1  1  0  0  0
 43 44  1  0  0  0  0
 45 46  1  1  0  0  0
 47 50  1  0  0  0  0
 48 49  1  0  0  0  0
 50 51  1  0  0  0  0
 51 52  1  0  0  0  0
 52  8  1  0  0  0  0
M  END
>  <CHROM.1>
-179.72506785,-73.99665443,-178.09282542,-136.10203787,98.36527343,-148.83783762
-148.09511503,-52.87925114,64.00387315,-125.56185506,-79.83912644,161.97306418
91.88350218,145.47061444,115.50116159,43.24677883,7.65091842,-3.60953101
1.05663074,0.37623703,-1.23740455

>  <Name>
2be0_lig

>  <RI>
224

>  <Rbt.Current_Directory>
/home/itssahil/PROJECTS/Mol_Feturizer/New_Systems/rnas/2be0

>  <Rbt.Executable>
rbdock ($Id: //depot/dev/client3/rdock/2013.1/src/exe/rbdock.cxx#4 $)

>  <Rbt.Library>
libRbt.so (2013.1, Build901 2013/11/27)

>  <Rbt.Parameter_File>
/export/apps/rDock/src/rDock_2013.1_src/data/scripts/dock_solv.prm

>  <Rbt.Receptor>
prm/blind_docking_100.prm

>  <SCORE>
-8.38103

>  <SCORE.INTER>
-15.588

>  <SCORE.INTER.CONST>
1

>  <SCORE.INTER.POLAR>
-1.5815

>  <SCORE.INTER.ROT>
15

>  <SCORE.INTER.SOLV>
29.0477

>  <SCORE.INTER.VDW>
-28.4029

>  <SCORE.INTER.norm>
-0.299769

>  <SCORE.INTRA>
-0.213306

>  <SCORE.INTRA.DIHEDRAL>
-16.396

>  <SCORE.INTRA.DIHEDRAL.0>
47.8724

>  <SCORE.INTRA.POLAR>
0

>  <SCORE.INTRA.POLAR.0>
0

>  <SCORE.INTRA.REPUL>
0

>  <SCORE.INTRA.REPUL.0>
0

>  <SCORE.INTRA.SOLV>
7.31156

>  <SCORE.INTRA.SOLV.lig_0>
-115.677

>  <SCORE.INTRA.VDW>
4.3289

>  <SCORE.INTRA.VDW.0>
-7.4833

>  <SCORE.INTRA.norm>
-0.00410203

>  <SCORE.RESTR>
7.42029

>  <SCORE.RESTR.CAVITY>
7.42029

>  <SCORE.RESTR.norm>
0.142698

>  <SCORE.SYSTEM>
0

>  <SCORE.SYSTEM.CONST>
0

>  <SCORE.SYSTEM.DIHEDRAL>
0

>  <SCORE.SYSTEM.SOLV>
0

>  <SCORE.SYSTEM.norm>
0

>  <SCORE.heavy>
52

>  <SCORE.norm>
-0.161174

>  <RMSD>
6.299

$$$$
2be0_lig
 OpenBabel11021811423D
libRbt.so/2013.1/901 2013/11/27
 52 56  0  0  0  0  0  0  0  0999 V2000
   44.1990    7.2449   -3.9382 C   0  0  2  0  0  0  0  0  0  0  0  0
   43.0927    7.3118   -4.8067 O   0  0  0  0  0  0  0  0  0  0  0  0
   42.6699    7.0747   -9.1812 C   0  0  2  0  0  0  0  0  0  0  0  0
   42.8687    6.5995  -10.5791 N   0  0  0  0  0  0  0  0  0  0  0  0
   39.9441    5.1490   -5.9964 C   0  0  2  0  0  0  0  0  0  0  0  0
   39.1355    6.0915   -5.2628 O   0  0  0  0  0  0  0  0  0  0  0  0
   39.7401    2.7897   -1.8524 C   0  0  1  0  0  0  0  0  0  0  0  0
   35.7043    1.0483  -10.1407 C   0  0  0  0  0  0  0  0  0  0  0  0
   44.2136    5.8826   -3.1322 C   0  0  2  0  0  0  0  0  0  0  0  0
   44.1518    4.7548   -4.0643 N   0  0  0  0  0  0  0  0  0  0  0  0
   44.0867    7.4561   -8.5524 C   0  0  0  0  0  0  0  0  0  0  0  0
   39.6833    3.7662   -5.3781 C   0  0  2  0  0  0  0  0  0  0  0  0
   38.4552    3.2918   -6.0882 O   0  0  0  0  0  0  0  0  0  0  0  0
   38.8276    1.6613   -1.1207 C   0  0  2  0  0  0  0  0  0  0  0  0
   37.5209    2.2808   -0.7277 N   0  0  0  0  0  0  0  0  0  0  0  0
   35.6463    0.7226  -11.5355 C   0  0  0  0  0  0  0  0  0  0  0  0
   34.7934    1.4627  -12.3956 N   0  0  0  0  0  0  0  0  0  0  0  0
   43.0029    5.8629   -2.0883 C   0  0  1  0  0  0  0  0  0  0  0  0
   43.0293    4.6320   -1.3824 O   0  0  0  0  0  0  0  0  0  0  0  0
   43.9136    7.9700   -7.0110 C   0  0  2  0  0  0  0  0  0  0  0  0
   45.1814    8.3185   -6.4343 N   0  0  0  0  0  0  0  0  0  0  0  0
   39.5987    4.1823   -3.8974 C   0  0  2  0  0  0  0  0  0  0  0  0
   39.0067    3.2549   -2.9997 O   0  0  0  0  0  0  0  0  0  0  0  0
   39.6042    1.1574    0.1331 C   0  0  1  0  0  0  0  0  0  0  0  0
   40.8517    0.5590   -0.3699 O   0  0  0  0  0  0  0  0  0  0  0  0
   33.9723    2.5333  -11.9398 C   0  0  0  0  0  0  0  0  0  0  0  0
   43.1531    7.0821   -1.1327 C   0  0  2  0  0  0  0  0  0  0  0  0
   42.0521    7.1199   -0.1400 O   0  0  0  0  0  0  0  0  0  0  0  0
   43.2282    6.8374   -6.1409 C   0  0  2  0  0  0  0  0  0  0  0  0
   38.8772    5.5500   -3.9510 C   0  0  1  0  0  0  0  0  0  0  0  0
   39.9112    2.4019    1.1346 C   0  0  2  0  0  0  0  0  0  0  0  0
   38.6687    3.0053    1.6410 O   0  0  0  0  0  0  0  0  0  0  0  0
   33.9883    2.9014  -10.5719 C   0  0  0  0  0  0  0  0  0  0  0  0
   43.1369    8.4288   -1.9535 C   0  0  2  0  0  0  0  0  0  0  0  0
   44.2307    8.3290   -2.9068 O   0  0  0  0  0  0  0  0  0  0  0  0
   41.8501    6.4933   -6.8053 C   0  0  2  0  0  0  0  0  0  0  0  0
   41.3258    5.4893   -5.9448 O   0  0  0  0  0  0  0  0  0  0  0  0
   39.4404    6.5461   -2.9388 C   0  0  0  0  0  0  0  0  0  0  0  0
   39.0690    6.3239   -1.5994 O   0  0  0  0  0  0  0  0  0  0  0  0
   40.7672    3.5074    0.3613 C   0  0  1  0  0  0  0  0  0  0  0  0
   39.9988    3.9337   -0.8725 O   0  0  0  0  0  0  0  0  0  0  0  0
   34.8611    2.1593   -9.6329 C   0  0  0  0  0  0  0  0  0  0  0  0
   43.3035    9.5397   -1.0026 C   0  0  0  0  0  0  0  0  0  0  0  0
   42.1701    9.7077   -0.3099 O   0  0  0  0  0  0  0  0  0  0  0  0
   42.0575    5.9695   -8.2885 C   0  0  1  0  0  0  0  0  0  0  0  0
   40.8275    5.6789   -8.8666 O   0  0  0  0  0  0  0  0  0  0  0  0
   37.9552    1.9040   -6.2307 C   0  0  0  0  0  0  0  0  0  0  0  0
   41.0191    4.6704    1.3590 C   0  0  0  0  0  0  0  0  0  0  0  0
   39.8158    5.4400    1.5554 N   0  0  0  0  0  0  0  0  0  0  0  0
   36.8432    1.9289   -7.2844 C   0  0  0  0  0  0  0  0  0  0  0  0
   36.5035    0.5249   -7.6843 N   0  0  0  0  0  0  0  0  0  0  0  0
   36.6793    0.1951   -9.1911 C   0  0  0  0  0  0  0  0  0  0  0  0
  1  2  1  1  0  0  0
  1  9  1  0  0  0  0
  1 35  1  0  0  0  0
  3  4  1  6  0  0  0
  3 11  1  0  0  0  0
  3 45  1  0  0  0  0
  5  6  1  0  0  0  0
  5 12  1  0  0  0  0
  5 37  1  1  0  0  0
  6 30  1  0  0  0  0
  7 14  1  0  0  0  0
  7 41  1  0  0  0  0
  7 23  1  6  0  0  0
  8 16  2  0  0  0  0
  8 42  1  0  0  0  0
  9 10  1  6  0  0  0
  9 18  1  0  0  0  0
 11 20  1  0  0  0  0
 12 13  1  6  0  0  0
 12 22  1  0  0  0  0
 13 47  1  0  0  0  0
 14 15  1  1  0  0  0
 14 24  1  0  0  0  0
 16 17  1  0  0  0  0
 17 26  2  0  0  0  0
 18 19  1  1  0  0  0
 18 27  1  0  0  0  0
 20 21  1  1  0  0  0
 20 29  1  0  0  0  0
 22 23  1  1  0  0  0
 22 30  1  0  0  0  0
 24 25  1  6  0  0  0
 24 31  1  0  0  0  0
 26 33  1  0  0  0  0
 27 28  1  1  0  0  0
 27 34  1  0  0  0  0
 29  2  1  1  0  0  0
 29 36  1  0  0  0  0
 30 38  1  1  0  0  0
 31 32  1  6  0  0  0
 31 40  1  0  0  0  0
 33 42  2  0  0  0  0
 34 35  1  0  0  0  0
 34 43  1  1  0  0  0
 36 37  1  1  0  0  0
 36 45  1  0  0  0  0
 38 39  1  0  0  0  0
 40 41  1  0  0  0  0
 40 48  1  1  0  0  0
 43 44  1  0  0  0  0
 45 46  1  6  0  0  0
 47 50  1  0  0  0  0
 48 49  1  0  0  0  0
 50 51  1  0  0  0  0
 51 52  1  0  0  0  0
 52  8  1  0  0  0  0
M  END
>  <CHROM.1>
-90.91449752,-80.43781347,-175.38541095,159.80830190,-168.19971857,123.29821621
-81.50322025,168.57483934,-73.44216454,163.78203498,-73.95395807,167.92565974
-121.00106920,-63.37304245,-172.30984254,40.31493003,4.74155560,-4.48695120
-0.80664268,-0.73525482,-1.42633983

>  <Name>
2be0_lig

>  <RI>
3.37048e+07

>  <Rbt.Current_Directory>
/home/itssahil/PROJECTS/Mol_Feturizer/New_Systems/rnas/2be0

>  <Rbt.Executable>
rbdock ($Id: //depot/dev/client3/rdock/2013.1/src/exe/rbdock.cxx#4 $)

>  <Rbt.Library>
libRbt.so (2013.1, Build901 2013/11/27)

>  <Rbt.Parameter_File>
/export/apps/rDock/src/rDock_2013.1_src/data/scripts/dock_solv.prm

>  <Rbt.Receptor>
prm/pocket_docking_8.prm

>  <SCORE>
-34.3921

>  <SCORE.INTER>
-23.2227

>  <SCORE.INTER.CONST>
1

>  <SCORE.INTER.POLAR>
-2.10567

>  <SCORE.INTER.ROT>
15

>  <SCORE.INTER.SOLV>
20.9674

>  <SCORE.INTER.VDW>
-29.0521

>  <SCORE.INTER.norm>
-0.446591

>  <SCORE.INTRA>
-11.1694

>  <SCORE.INTRA.DIHEDRAL>
-24.7299

>  <SCORE.INTRA.DIHEDRAL.0>
47.8724

>  <SCORE.INTRA.POLAR>
0

>  <SCORE.INTRA.POLAR.0>
0

>  <SCORE.INTRA.REPUL>
0

>  <SCORE.INTRA.REPUL.0>
0

>  <SCORE.INTRA.SOLV>
3.11592

>  <SCORE.INTRA.SOLV.lig_0>
-115.677

>  <SCORE.INTRA.VDW>
-0.362404

>  <SCORE.INTRA.VDW.0>
-7.4833

>  <SCORE.INTRA.norm>
-0.214796

>  <SCORE.RESTR>
0

>  <SCORE.RESTR.CAVITY>
0

>  <SCORE.RESTR.norm>
0

>  <SCORE.SYSTEM>
0

>  <SCORE.SYSTEM.CONST>
0

>  <SCORE.SYSTEM.DIHEDRAL>
0

>  <SCORE.SYSTEM.SOLV>
0

>  <SCORE.SYSTEM.norm>
0

>  <SCORE.heavy>
52

>  <SCORE.norm>
-0.661387

>  <RMSD>
6.371

$$$$
2be0_lig
 OpenBabel11021811423D
libRbt.so/2013.1/901 2013/11/27
 52 56  0  0  0  0  0  0  0  0999 V2000
   39.7946    2.4414   -7.2799 C   0  0  2  0  0  0  0  0  0  0  0  0
   41.1437    2.7627   -7.5244 O   0  0  0  0  0  0  0  0  0  0  0  0
   43.4855    6.2909   -8.7236 C   0  0  2  0  0  0  0  0  0  0  0  0
   43.8285    7.7183   -8.9774 N   0  0  0  0  0  0  0  0  0  0  0  0
   43.5110    3.7552   -4.7248 C   0  0  2  0  0  0  0  0  0  0  0  0
   42.9371    3.2764   -3.4913 O   0  0  0  0  0  0  0  0  0  0  0  0
   43.7556    7.2702   -1.4541 C   0  0  1  0  0  0  0  0  0  0  0  0
   44.5524    1.3699   -1.8161 C   0  0  0  0  0  0  0  0  0  0  0  0
   39.5220    2.2512   -5.7323 C   0  0  2  0  0  0  0  0  0  0  0  0
   39.9663    3.4397   -5.0011 N   0  0  0  0  0  0  0  0  0  0  0  0
   42.1611    5.9196   -9.5336 C   0  0  0  0  0  0  0  0  0  0  0  0
   44.5191    4.8525   -4.3478 C   0  0  2  0  0  0  0  0  0  0  0  0
   45.7687    4.0892   -4.0424 O   0  0  0  0  0  0  0  0  0  0  0  0
   44.0310    6.7841    0.0721 C   0  0  2  0  0  0  0  0  0  0  0  0
   43.5344    5.3786    0.2257 N   0  0  0  0  0  0  0  0  0  0  0  0
   43.8876    1.9144   -0.6687 C   0  0  0  0  0  0  0  0  0  0  0  0
   42.5379    1.5623   -0.4051 N   0  0  0  0  0  0  0  0  0  0  0  0
   40.2509    0.9248   -5.2173 C   0  0  1  0  0  0  0  0  0  0  0  0
   40.0008    0.7769   -3.8282 O   0  0  0  0  0  0  0  0  0  0  0  0
   41.7419    4.3624   -9.2704 C   0  0  2  0  0  0  0  0  0  0  0  0
   40.5526    4.0150   -9.9957 N   0  0  0  0  0  0  0  0  0  0  0  0
   43.7285    5.5158   -3.2042 C   0  0  2  0  0  0  0  0  0  0  0  0
   44.4543    6.3622   -2.3247 O   0  0  0  0  0  0  0  0  0  0  0  0
   43.2683    7.7513    1.0271 C   0  0  1  0  0  0  0  0  0  0  0  0
   43.8449    9.0875    0.8041 O   0  0  0  0  0  0  0  0  0  0  0  0
   41.7902    0.6802   -1.2363 C   0  0  0  0  0  0  0  0  0  0  0  0
   39.7130   -0.2853   -6.0350 C   0  0  2  0  0  0  0  0  0  0  0  0
   40.3578   -1.5490   -5.6033 O   0  0  0  0  0  0  0  0  0  0  0  0
   41.5081    4.1233   -7.7220 C   0  0  2  0  0  0  0  0  0  0  0  0
   43.0458    4.3190   -2.5004 C   0  0  1  0  0  0  0  0  0  0  0  0
   41.6783    7.7325    0.6843 C   0  0  2  0  0  0  0  0  0  0  0  0
   41.0953    6.3998    0.9046 O   0  0  0  0  0  0  0  0  0  0  0  0
   42.3947    0.1102   -2.3838 C   0  0  0  0  0  0  0  0  0  0  0  0
   39.9932   -0.0771   -7.5730 C   0  0  2  0  0  0  0  0  0  0  0  0
   39.3423    1.1726   -7.9324 O   0  0  0  0  0  0  0  0  0  0  0  0
   42.8305    4.5119   -6.9740 C   0  0  2  0  0  0  0  0  0  0  0  0
   42.5131    4.2488   -5.6126 O   0  0  0  0  0  0  0  0  0  0  0  0
   41.6262    4.6460   -2.0400 C   0  0  0  0  0  0  0  0  0  0  0  0
   40.8638    3.5475   -1.6006 O   0  0  0  0  0  0  0  0  0  0  0  0
   41.4576    8.1691   -0.8367 C   0  0  1  0  0  0  0  0  0  0  0  0
   42.2519    7.2340   -1.7251 O   0  0  0  0  0  0  0  0  0  0  0  0
   43.8015    0.4467   -2.7032 C   0  0  0  0  0  0  0  0  0  0  0  0
   39.4453   -1.2378   -8.2933 C   0  0  0  0  0  0  0  0  0  0  0  0
   39.5612   -1.0397   -9.6124 O   0  0  0  0  0  0  0  0  0  0  0  0
   43.1907    6.0364   -7.2264 C   0  0  1  0  0  0  0  0  0  0  0  0
   44.3693    6.3621   -6.5660 O   0  0  0  0  0  0  0  0  0  0  0  0
   46.6678    3.3841   -4.9862 C   0  0  0  0  0  0  0  0  0  0  0  0
   39.9293    8.1219   -1.1082 C   0  0  0  0  0  0  0  0  0  0  0  0
   39.6690    7.7879   -2.4865 N   0  0  0  0  0  0  0  0  0  0  0  0
   47.4908    2.3847   -4.1670 C   0  0  0  0  0  0  0  0  0  0  0  0
   46.5707    1.4001   -3.5108 N   0  0  0  0  0  0  0  0  0  0  0  0
   46.0801    1.7845   -2.0889 C   0  0  0  0  0  0  0  0  0  0  0  0
  1  2  1  1  0  0  0
  1  9  1  0  0  0  0
  1 35  1  0  0  0  0
  3  4  1  1  0  0  0
  3 11  1  0  0  0  0
  3 45  1  0  0  0  0
  5  6  1  0  0  0  0
  5 12  1  0  0  0  0
  5 37  1  6  0  0  0
  6 30  1  0  0  0  0
  7 14  1  0  0  0  0
  7 41  1  0  0  0  0
  7 23  1  6  0  0  0
  8 16  2  0  0  0  0
  8 42  1  0  0  0  0
  9 10  1  1  0  0  0
  9 18  1  0  0  0  0
 11 20  1  0  0  0  0
 12 13  1  1  0  0  0
 12 22  1  0  0  0  0
 13 47  1  0  0  0  0
 14 15  1  6  0  0  0
 14 24  1  0  0  0  0
 16 17  1  0  0  0  0
 17 26  2  0  0  0  0
 18 19  1  1  0  0  0
 18 27  1  0  0  0  0
 20 21  1  6  0  0  0
 20 29  1  0  0  0  0
 22 23  1  1  0  0  0
 22 30  1  0  0  0  0
 24 25  1  6  0  0  0
 24 31  1  0  0  0  0
 26 33  1  0  0  0  0
 27 28  1  1  0  0  0
 27 34  1  0  0  0  0
 29  2  1  6  0  0  0
 29 36  1  0  0  0  0
 30 38  1  6  0  0  0
 31 32  1  6  0  0  0
 31 40  1  0  0  0  0
 33 42  2  0  0  0  0
 34 35  1  0  0  0  0
 34 43  1  6  0  0  0
 36 37  1  1  0  0  0
 36 45  1  0  0  0  0
 38 39  1  0  0  0  0
 40 41  1  0  0  0  0
 40 48  1  6  0  0  0
 43 44  1  0  0  0  0
 45 46  1  1  0  0  0
 47 50  1  0  0  0  0
 48 49  1  0  0  0  0
 50 51  1  0  0  0  0
 51 52  1  0  0  0  0
 52  8  1  0  0  0  0
M  END
>  <CHROM.1>
-98.35441014,-167.18838891,114.36928648,71.45502531,-160.67832835,164.40006234
-103.30073473,53.29826397,174.61996882,145.07892376,-149.15859289,60.96724825
-90.98254925,142.51788271,-166.69160299,42.40681562,3.85339189,-4.16941466
-2.94834845,1.29835343,2.31990298

>  <Name>
2be0_lig

>  <RI>
2.10017e+07

>  <Rbt.Current_Directory>
/home/itssahil/PROJECTS/Mol_Feturizer/New_Systems/rnas/2be0

>  <Rbt.Executable>
rbdock ($Id: //depot/dev/client3/rdock/2013.1/src/exe/rbdock.cxx#4 $)

>  <Rbt.Library>
libRbt.so (2013.1, Build901 2013/11/27)

>  <Rbt.Parameter_File>
/export/apps/rDock/src/rDock_2013.1_src/data/scripts/dock_solv.prm

>  <Rbt.Receptor>
prm/pocket_docking_3.prm

>  <SCORE>
-4.83912

>  <SCORE.INTER>
-2.23449

>  <SCORE.INTER.CONST>
1

>  <SCORE.INTER.POLAR>
-0.894272

>  <SCORE.INTER.ROT>
15

>  <SCORE.INTER.SOLV>
14.447

>  <SCORE.INTER.VDW>
-16.9244

>  <SCORE.INTER.norm>
-0.042971

>  <SCORE.INTRA>
-5.26556

>  <SCORE.INTRA.DIHEDRAL>
-15.4402

>  <SCORE.INTRA.DIHEDRAL.0>
47.8724

>  <SCORE.INTRA.POLAR>
0

>  <SCORE.INTRA.POLAR.0>
0

>  <SCORE.INTRA.REPUL>
0

>  <SCORE.INTRA.REPUL.0>
0

>  <SCORE.INTRA.SOLV>
8.79254

>  <SCORE.INTRA.SOLV.lig_0>
-115.677

>  <SCORE.INTRA.VDW>
-1.94171

>  <SCORE.INTRA.VDW.0>
-7.4833

>  <SCORE.INTRA.norm>
-0.101261

>  <SCORE.RESTR>
2.66093

>  <SCORE.RESTR.CAVITY>
2.66093

>  <SCORE.RESTR.norm>
0.0511718

>  <SCORE.SYSTEM>
0

>  <SCORE.SYSTEM.CONST>
0

>  <SCORE.SYSTEM.DIHEDRAL>
0

>  <SCORE.SYSTEM.SOLV>
0

>  <SCORE.SYSTEM.norm>
0

>  <SCORE.heavy>
52

>  <SCORE.norm>
-0.0930599

>  <RMSD>
6.383

$$$$
2be0_lig
 OpenBabel11021811423D
libRbt.so/2013.1/901 2013/11/27
 52 56  0  0  0  0  0  0  0  0999 V2000
   46.1770    8.1041   -8.1984 C   0  0  2  0  0  0  0  0  0  0  0  0
   45.7927    8.2026   -6.8473 O   0  0  0  0  0  0  0  0  0  0  0  0
   46.5967    4.2904   -4.9981 C   0  0  2  0  0  0  0  0  0  0  0  0
   47.1443    3.2813   -4.0488 N   0  0  0  0  0  0  0  0  0  0  0  0
   43.6383    7.0521   -3.4369 C   0  0  2  0  0  0  0  0  0  0  0  0
   42.3294    6.4843   -3.6486 O   0  0  0  0  0  0  0  0  0  0  0  0
   40.1805    9.4316   -1.8365 C   0  0  1  0  0  0  0  0  0  0  0  0
   41.7133    7.0748    3.6413 C   0  0  0  0  0  0  0  0  0  0  0  0
   45.8694    9.4451   -8.9811 C   0  0  2  0  0  0  0  0  0  0  0  0
   46.4947   10.5758   -8.2918 N   0  0  0  0  0  0  0  0  0  0  0  0
   47.8043    5.1157   -5.6376 C   0  0  0  0  0  0  0  0  0  0  0  0
   43.4401    8.3175   -2.5873 C   0  0  2  0  0  0  0  0  0  0  0  0
   43.4197    7.7973   -1.1850 O   0  0  0  0  0  0  0  0  0  0  0  0
   40.3799    9.7507   -0.2555 C   0  0  2  0  0  0  0  0  0  0  0  0
   41.5496    8.9620    0.2499 N   0  0  0  0  0  0  0  0  0  0  0  0
   40.7888    8.0322    3.1087 C   0  0  0  0  0  0  0  0  0  0  0  0
   40.1931    8.9896    3.9710 N   0  0  0  0  0  0  0  0  0  0  0  0
   44.2882    9.6326   -9.1253 C   0  0  1  0  0  0  0  0  0  0  0  0
   44.0340   10.8425   -9.8221 O   0  0  0  0  0  0  0  0  0  0  0  0
   47.2439    6.2454   -6.6767 C   0  0  2  0  0  0  0  0  0  0  0  0
   48.3211    6.9936   -7.2608 N   0  0  0  0  0  0  0  0  0  0  0  0
   42.1392    8.8325   -3.2316 C   0  0  2  0  0  0  0  0  0  0  0  0
   41.3996    9.8027   -2.5048 O   0  0  0  0  0  0  0  0  0  0  0  0
   39.0707    9.3405    0.4840 C   0  0  1  0  0  0  0  0  0  0  0  0
   38.0014   10.1829   -0.0767 O   0  0  0  0  0  0  0  0  0  0  0  0
   40.4672    9.0524    5.3670 C   0  0  0  0  0  0  0  0  0  0  0  0
   43.7097    8.3986   -9.8768 C   0  0  2  0  0  0  0  0  0  0  0  0
   42.2400    8.5137  -10.0379 O   0  0  0  0  0  0  0  0  0  0  0  0
   46.2619    7.2315   -5.9198 C   0  0  2  0  0  0  0  0  0  0  0  0
   41.3491    7.5355   -3.5278 C   0  0  1  0  0  0  0  0  0  0  0  0
   38.7647    7.7618    0.2392 C   0  0  2  0  0  0  0  0  0  0  0  0
   39.8297    6.9136    0.7968 O   0  0  0  0  0  0  0  0  0  0  0  0
   41.3734    8.1327    5.9500 C   0  0  0  0  0  0  0  0  0  0  0  0
   44.0265    7.0734   -9.0824 C   0  0  2  0  0  0  0  0  0  0  0  0
   45.4742    7.0204   -8.9546 O   0  0  0  0  0  0  0  0  0  0  0  0
   45.1041    6.3722   -5.3034 C   0  0  2  0  0  0  0  0  0  0  0  0
   44.2883    7.3493   -4.6684 O   0  0  0  0  0  0  0  0  0  0  0  0
   40.5992    7.6006   -4.8573 C   0  0  0  0  0  0  0  0  0  0  0  0
   39.9988    6.3975   -5.2736 O   0  0  0  0  0  0  0  0  0  0  0  0
   38.6245    7.4846   -1.3281 C   0  0  1  0  0  0  0  0  0  0  0  0
   39.8970    7.9401   -2.0122 O   0  0  0  0  0  0  0  0  0  0  0  0
   42.0212    7.1130    5.0928 C   0  0  0  0  0  0  0  0  0  0  0  0
   43.4760    5.9443   -9.8493 C   0  0  0  0  0  0  0  0  0  0  0  0
   44.0080    5.9379  -11.0780 O   0  0  0  0  0  0  0  0  0  0  0  0
   45.6803    5.3076   -4.2777 C   0  0  1  0  0  0  0  0  0  0  0  0
   44.6438    4.5479   -3.7485 O   0  0  0  0  0  0  0  0  0  0  0  0
   42.6960    6.6184   -0.6533 C   0  0  0  0  0  0  0  0  0  0  0  0
   38.3454    5.9668   -1.5004 C   0  0  0  0  0  0  0  0  0  0  0  0
   38.1570    5.6403   -2.8920 N   0  0  0  0  0  0  0  0  0  0  0  0
   43.6124    5.9508    0.3772 C   0  0  0  0  0  0  0  0  0  0  0  0
   43.4441    6.6250    1.7052 N   0  0  0  0  0  0  0  0  0  0  0  0
   42.3732    6.0041    2.6421 C   0  0  0  0  0  0  0  0  0  0  0  0
  1  2  1  1  0  0  0
  1  9  1  0  0  0  0
  1 35  1  0  0  0  0
  3  4  1  1  0  0  0
  3 11  1  0  0  0  0
  3 45  1  0  0  0  0
  5  6  1  0  0  0  0
  5 12  1  0  0  0  0
  5 37  1  6  0  0  0
  6 30  1  0  0  0  0
  7 14  1  0  0  0  0
  7 41  1  0  0  0  0
  7 23  1  6  0  0  0
  8 16  2  0  0  0  0
  8 42  1  0  0  0  0
  9 10  1  1  0  0  0
  9 18  1  0  0  0  0
 11 20  1  0  0  0  0
 12 13  1  1  0  0  0
 12 22  1  0  0  0  0
 13 47  1  0  0  0  0
 14 15  1  1  0  0  0
 14 24  1  0  0  0  0
 16 17  1  0  0  0  0
 17 26  2  0  0  0  0
 18 19  1  6  0  0  0
 18 27  1  0  0  0  0
 20 21  1  1  0  0  0
 20 29  1  0  0  0  0
 22 23  1  1  0  0  0
 22 30  1  0  0  0  0
 24 25  1  6  0  0  0
 24 31  1  0  0  0  0
 26 33  1  0  0  0  0
 27 28  1  1  0  0  0
 27 34  1  0  0  0  0
 29  2  1  6  0  0  0
 29 36  1  0  0  0  0
 30 38  1  6  0  0  0
 31 32  1  6  0  0  0
 31 40  1  0  0  0  0
 33 42  2  0  0  0  0
 34 35  1  0  0  0  0
 34 43  1  6  0  0  0
 36 37  1  1  0  0  0
 36 45  1  0  0  0  0
 38 39  1  0  0  0  0
 40 41  1  0  0  0  0
 40 48  1  1  0  0  0
 43 44  1  0  0  0  0
 45 46  1  6  0  0  0
 47 50  1  0  0  0  0
 48 49  1  0  0  0  0
 50 51  1  0  0  0  0
 51 52  1  0  0  0  0
 52  8  1  0  0  0  0
M  END
>  <CHROM.1>
-165.62623345,-89.86744990,120.48365922,-45.12703793,141.97512035,-105.57180342
3.36303971,55.96070567,57.60632950,-143.78791282,177.92684976,84.67738369
91.59727529,-151.29574879,73.12691003,42.84375291,7.48380574,-3.35805688
-1.10836843,-0.43162663,1.73566361

>  <Name>
2be0_lig

>  <RI>
224

>  <Rbt.Current_Directory>
/home/itssahil/PROJECTS/Mol_Feturizer/New_Systems/rnas/2be0

>  <Rbt.Executable>
rbdock ($Id: //depot/dev/client3/rdock/2013.1/src/exe/rbdock.cxx#4 $)

>  <Rbt.Library>
libRbt.so (2013.1, Build901 2013/11/27)

>  <Rbt.Parameter_File>
/export/apps/rDock/src/rDock_2013.1_src/data/scripts/dock_solv.prm

>  <Rbt.Receptor>
prm/blind_docking_100.prm

>  <SCORE>
15.9141

>  <SCORE.INTER>
-13.8212

>  <SCORE.INTER.CONST>
1

>  <SCORE.INTER.POLAR>
-0.942234

>  <SCORE.INTER.ROT>
15

>  <SCORE.INTER.SOLV>
30.3443

>  <SCORE.INTER.VDW>
-29.7881

>  <SCORE.INTER.norm>
-0.265792

>  <SCORE.INTRA>
21.4185

>  <SCORE.INTRA.DIHEDRAL>
-7.53375

>  <SCORE.INTRA.DIHEDRAL.0>
47.8724

>  <SCORE.INTRA.POLAR>
0

>  <SCORE.INTRA.POLAR.0>
0

>  <SCORE.INTRA.REPUL>
0

>  <SCORE.INTRA.REPUL.0>
0

>  <SCORE.INTRA.SOLV>
7.93617

>  <SCORE.INTRA.SOLV.lig_0>
-115.677

>  <SCORE.INTRA.VDW>
21.2173

>  <SCORE.INTRA.VDW.0>
-7.4833

>  <SCORE.INTRA.norm>
0.411895

>  <SCORE.RESTR>
8.31674

>  <SCORE.RESTR.CAVITY>
8.31674

>  <SCORE.RESTR.norm>
0.159937

>  <SCORE.SYSTEM>
0

>  <SCORE.SYSTEM.CONST>
0

>  <SCORE.SYSTEM.DIHEDRAL>
0

>  <SCORE.SYSTEM.SOLV>
0

>  <SCORE.SYSTEM.norm>
0

>  <SCORE.heavy>
52

>  <SCORE.norm>
0.30604

>  <RMSD>
6.395

$$$$
2be0_lig
 OpenBabel11021811423D
libRbt.so/2013.1/901 2013/11/27
 52 56  0  0  0  0  0  0  0  0999 V2000
   45.8063    4.4696   -6.3232 C   0  0  2  0  0  0  0  0  0  0  0  0
   44.9041    5.4900   -6.6802 O   0  0  0  0  0  0  0  0  0  0  0  0
   41.5440    6.0402   -9.4692 C   0  0  2  0  0  0  0  0  0  0  0  0
   40.4389    5.6985  -10.4080 N   0  0  0  0  0  0  0  0  0  0  0  0
   41.2468    5.7909   -4.9243 C   0  0  2  0  0  0  0  0  0  0  0  0
   41.4619    7.1712   -4.5656 O   0  0  0  0  0  0  0  0  0  0  0  0
   43.0723    6.4309   -0.5817 C   0  0  1  0  0  0  0  0  0  0  0  0
   39.1207    5.4996    1.5076 C   0  0  0  0  0  0  0  0  0  0  0  0
   46.5803    4.8293   -4.9901 C   0  0  2  0  0  0  0  0  0  0  0  0
   45.6206    5.1387   -3.9281 N   0  0  0  0  0  0  0  0  0  0  0  0
   42.9007    5.3866   -9.9990 C   0  0  0  0  0  0  0  0  0  0  0  0
   41.1699    4.9983   -3.6096 C   0  0  2  0  0  0  0  0  0  0  0  0
   39.7368    5.1342   -3.2029 O   0  0  0  0  0  0  0  0  0  0  0  0
   43.0341    5.8230    0.9250 C   0  0  2  0  0  0  0  0  0  0  0  0
   41.6091    5.7710    1.3861 N   0  0  0  0  0  0  0  0  0  0  0  0
   39.1540    6.8848    1.8751 C   0  0  0  0  0  0  0  0  0  0  0  0
   39.1476    7.2486    3.2472 N   0  0  0  0  0  0  0  0  0  0  0  0
   47.5836    6.0438   -5.2622 C   0  0  1  0  0  0  0  0  0  0  0  0
   48.2611    6.3552   -4.0547 O   0  0  0  0  0  0  0  0  0  0  0  0
   44.1379    5.7268   -8.9873 C   0  0  2  0  0  0  0  0  0  0  0  0
   45.3652    5.1461   -9.4541 N   0  0  0  0  0  0  0  0  0  0  0  0
   42.2632    5.7435   -2.8210 C   0  0  2  0  0  0  0  0  0  0  0  0
   42.2768    5.5660   -1.4122 O   0  0  0  0  0  0  0  0  0  0  0  0
   43.8813    6.7582    1.8397 C   0  0  1  0  0  0  0  0  0  0  0  0
   45.2534    6.7197    1.3074 O   0  0  0  0  0  0  0  0  0  0  0  0
   39.1073    6.2932    4.3025 C   0  0  0  0  0  0  0  0  0  0  0  0
   48.5718    5.6266   -6.3900 C   0  0  2  0  0  0  0  0  0  0  0  0
   49.5288    6.7188   -6.6907 O   0  0  0  0  0  0  0  0  0  0  0  0
   43.8108    5.1815   -7.5364 C   0  0  2  0  0  0  0  0  0  0  0  0
   42.0845    7.2149   -3.2652 C   0  0  1  0  0  0  0  0  0  0  0  0
   43.2783    8.2684    1.8021 C   0  0  2  0  0  0  0  0  0  0  0  0
   41.9068    8.3145    2.3323 O   0  0  0  0  0  0  0  0  0  0  0  0
   39.0743    4.9095    4.0004 C   0  0  0  0  0  0  0  0  0  0  0  0
   47.7825    5.2719   -7.7086 C   0  0  2  0  0  0  0  0  0  0  0  0
   46.8632    4.2040   -7.3491 O   0  0  0  0  0  0  0  0  0  0  0  0
   42.4685    5.8438   -7.0689 C   0  0  2  0  0  0  0  0  0  0  0  0
   42.2830    5.2989   -5.7681 O   0  0  0  0  0  0  0  0  0  0  0  0
   43.4192    7.9389   -3.4341 C   0  0  0  0  0  0  0  0  0  0  0  0
   44.4454    7.5287   -2.5624 O   0  0  0  0  0  0  0  0  0  0  0  0
   43.2896    8.8077    0.2981 C   0  0  1  0  0  0  0  0  0  0  0  0
   42.4963    7.8464   -0.5629 O   0  0  0  0  0  0  0  0  0  0  0  0
   39.0785    4.4779    2.5833 C   0  0  0  0  0  0  0  0  0  0  0  0
   48.7640    4.8661   -8.7274 C   0  0  0  0  0  0  0  0  0  0  0  0
   49.4228    3.7799   -8.3046 O   0  0  0  0  0  0  0  0  0  0  0  0
   41.2841    5.4682   -8.0555 C   0  0  1  0  0  0  0  0  0  0  0  0
   40.1048    6.0705   -7.6338 O   0  0  0  0  0  0  0  0  0  0  0  0
   38.8775    6.3404   -3.2565 C   0  0  0  0  0  0  0  0  0  0  0  0
   42.6953   10.2422    0.3227 C   0  0  0  0  0  0  0  0  0  0  0  0
   42.9660   10.9248   -0.9180 N   0  0  0  0  0  0  0  0  0  0  0  0
   38.8655    6.9510   -1.8513 C   0  0  0  0  0  0  0  0  0  0  0  0
   38.1865    6.0087   -0.9038 N   0  0  0  0  0  0  0  0  0  0  0  0
   39.1302    5.1171   -0.0525 C   0  0  0  0  0  0  0  0  0  0  0  0
  1  2  1  6  0  0  0
  1  9  1  0  0  0  0
  1 35  1  0  0  0  0
  3  4  1  6  0  0  0
  3 11  1  0  0  0  0
  3 45  1  0  0  0  0
  5  6  1  0  0  0  0
  5 12  1  0  0  0  0
  5 37  1  6  0  0  0
  6 30  1  0  0  0  0
  7 14  1  0  0  0  0
  7 41  1  0  0  0  0
  7 23  1  6  0  0  0
  8 16  2  0  0  0  0
  8 42  1  0  0  0  0
  9 10  1  1  0  0  0
  9 18  1  0  0  0  0
 11 20  1  0  0  0  0
 12 13  1  1  0  0  0
 12 22  1  0  0  0  0
 13 47  1  0  0  0  0
 14 15  1  1  0  0  0
 14 24  1  0  0  0  0
 16 17  1  0  0  0  0
 17 26  2  0  0  0  0
 18 19  1  1  0  0  0
 18 27  1  0  0  0  0
 20 21  1  6  0  0  0
 20 29  1  0  0  0  0
 22 23  1  1  0  0  0
 22 30  1  0  0  0  0
 24 25  1  6  0  0  0
 24 31  1  0  0  0  0
 26 33  1  0  0  0  0
 27 28  1  6  0  0  0
 27 34  1  0  0  0  0
 29  2  1  1  0  0  0
 29 36  1  0  0  0  0
 30 38  1  6  0  0  0
 31 32  1  6  0  0  0
 31 40  1  0  0  0  0
 33 42  2  0  0  0  0
 34 35  1  0  0  0  0
 34 43  1  6  0  0  0
 36 37  1  1  0  0  0
 36 45  1  0  0  0  0
 38 39  1  0  0  0  0
 40 41  1  0  0  0  0
 40 48  1  1  0  0  0
 43 44  1  0  0  0  0
 45 46  1  1  0  0  0
 47 50  1  0  0  0  0
 48 49  1  0  0  0  0
 50 51  1  0  0  0  0
 51 52  1  0  0  0  0
 52  8  1  0  0  0  0
M  END
>  <CHROM.1>
-158.16706035,-64.53819963,-171.77997630,-42.09005153,-98.42167121,-166.97979366
-103.57820879,-148.81317988,61.35870803,171.82055704,165.89792339,-65.72981606
98.47902794,111.00872747,-43.25550927,43.04382738,6.18852081,-3.33461844
-1.06286700,0.04747754,1.39317452

>  <Name>
2be0_lig

>  <RI>
224

>  <Rbt.Current_Directory>
/home/itssahil/PROJECTS/Mol_Feturizer/New_Systems/rnas/2be0

>  <Rbt.Executable>
rbdock ($Id: //depot/dev/client3/rdock/2013.1/src/exe/rbdock.cxx#4 $)

>  <Rbt.Library>
libRbt.so (2013.1, Build901 2013/11/27)

>  <Rbt.Parameter_File>
/export/apps/rDock/src/rDock_2013.1_src/data/scripts/dock_solv.prm

>  <Rbt.Receptor>
prm/blind_docking_100.prm

>  <SCORE>
38.7614

>  <SCORE.INTER>
28.2037

>  <SCORE.INTER.CONST>
1

>  <SCORE.INTER.POLAR>
-1.55132

>  <SCORE.INTER.ROT>
15

>  <SCORE.INTER.SOLV>
31.0257

>  <SCORE.INTER.VDW>
0.0316012

>  <SCORE.INTER.norm>
0.542378

>  <SCORE.INTRA>
-5.80128

>  <SCORE.INTRA.DIHEDRAL>
-25.0192

>  <SCORE.INTRA.DIHEDRAL.0>
47.8724

>  <SCORE.INTRA.POLAR>
0

>  <SCORE.INTRA.POLAR.0>
0

>  <SCORE.INTRA.REPUL>
0

>  <SCORE.INTRA.REPUL.0>
0

>  <SCORE.INTRA.SOLV>
9.56172

>  <SCORE.INTRA.SOLV.lig_0>
-115.677

>  <SCORE.INTRA.VDW>
1.92743

>  <SCORE.INTRA.VDW.0>
-7.4833

>  <SCORE.INTRA.norm>
-0.111563

>  <SCORE.RESTR>
16.359

>  <SCORE.RESTR.CAVITY>
16.359

>  <SCORE.RESTR.norm>
0.314596

>  <SCORE.SYSTEM>
0

>  <SCORE.SYSTEM.CONST>
0

>  <SCORE.SYSTEM.DIHEDRAL>
0

>  <SCORE.SYSTEM.SOLV>
0

>  <SCORE.SYSTEM.norm>
0

>  <SCORE.heavy>
52

>  <SCORE.norm>
0.745411

>  <RMSD>
6.404

$$$$
2be0_lig
 OpenBabel11021811423D
libRbt.so/2013.1/901 2013/11/27
 52 56  0  0  0  0  0  0  0  0999 V2000
   44.9866    6.6701   -7.7644 C   0  0  2  0  0  0  0  0  0  0  0  0
   45.8810    5.7822   -8.3926 O   0  0  0  0  0  0  0  0  0  0  0  0
   49.2956    3.2351   -7.2863 C   0  0  2  0  0  0  0  0  0  0  0  0
   50.4765    2.7357   -6.5277 N   0  0  0  0  0  0  0  0  0  0  0  0
   45.5384    4.5960   -5.2681 C   0  0  2  0  0  0  0  0  0  0  0  0
   46.3022    3.9970   -4.2012 O   0  0  0  0  0  0  0  0  0  0  0  0
   41.5653    3.3948   -3.4558 C   0  0  1  0  0  0  0  0  0  0  0  0
   43.4746    8.4467    0.6520 C   0  0  0  0  0  0  0  0  0  0  0  0
   43.6414    6.8066   -8.5875 C   0  0  2  0  0  0  0  0  0  0  0  0
   43.0628    5.4807   -8.8148 N   0  0  0  0  0  0  0  0  0  0  0  0
   49.5584    4.7469   -7.7266 C   0  0  0  0  0  0  0  0  0  0  0  0
   44.0989    4.7479   -4.7511 C   0  0  2  0  0  0  0  0  0  0  0  0
   44.1270    6.0506   -4.0164 O   0  0  0  0  0  0  0  0  0  0  0  0
   40.6302    3.2446   -2.1351 C   0  0  2  0  0  0  0  0  0  0  0  0
   40.9347    1.9328   -1.4776 N   0  0  0  0  0  0  0  0  0  0  0  0
   42.1446    8.3213    1.1718 C   0  0  0  0  0  0  0  0  0  0  0  0
   41.3967    9.4881    1.4791 N   0  0  0  0  0  0  0  0  0  0  0  0
   43.9264    7.5780   -9.9586 C   0  0  1  0  0  0  0  0  0  0  0  0
   42.7111    7.6830  -10.6839 O   0  0  0  0  0  0  0  0  0  0  0  0
   48.2775    5.3380   -8.5511 C   0  0  2  0  0  0  0  0  0  0  0  0
   48.5023    6.6972   -8.9552 N   0  0  0  0  0  0  0  0  0  0  0  0
   43.9904    3.4279   -3.9647 C   0  0  2  0  0  0  0  0  0  0  0  0
   42.9350    3.3245   -3.0203 O   0  0  0  0  0  0  0  0  0  0  0  0
   39.1418    3.3052   -2.5935 C   0  0  1  0  0  0  0  0  0  0  0  0
   38.9542    4.6313   -3.2046 O   0  0  0  0  0  0  0  0  0  0  0  0
   41.9059   10.8056    1.2975 C   0  0  0  0  0  0  0  0  0  0  0  0
   44.5250    8.9754   -9.6255 C   0  0  2  0  0  0  0  0  0  0  0  0
   44.8151    9.7395  -10.8629 O   0  0  0  0  0  0  0  0  0  0  0  0
   46.9766    5.2603   -7.6505 C   0  0  2  0  0  0  0  0  0  0  0  0
   45.4002    3.2616   -3.3490 C   0  0  1  0  0  0  0  0  0  0  0  0
   38.8402    2.1171   -3.6628 C   0  0  2  0  0  0  0  0  0  0  0  0
   39.0260    0.7885   -3.0589 O   0  0  0  0  0  0  0  0  0  0  0  0
   43.2138   10.9920    0.7860 C   0  0  0  0  0  0  0  0  0  0  0  0
   45.8631    8.8186   -8.8055 C   0  0  2  0  0  0  0  0  0  0  0  0
   45.5151    8.0622   -7.6132 O   0  0  0  0  0  0  0  0  0  0  0  0
   46.7706    3.7615   -7.2378 C   0  0  2  0  0  0  0  0  0  0  0  0
   45.5845    3.8092   -6.4540 O   0  0  0  0  0  0  0  0  0  0  0  0
   45.8698    1.8077   -3.3523 C   0  0  0  0  0  0  0  0  0  0  0  0
   45.5990    1.0864   -4.5302 O   0  0  0  0  0  0  0  0  0  0  0  0
   39.8129    2.2748   -4.9205 C   0  0  1  0  0  0  0  0  0  0  0  0
   41.2445    2.2579   -4.4256 O   0  0  0  0  0  0  0  0  0  0  0  0
   44.0355    9.8061    0.4505 C   0  0  0  0  0  0  0  0  0  0  0  0
   46.3683   10.1674   -8.5028 C   0  0  0  0  0  0  0  0  0  0  0  0
   45.4915   10.8066   -7.7183 O   0  0  0  0  0  0  0  0  0  0  0  0
   48.0180    3.2299   -6.4139 C   0  0  1  0  0  0  0  0  0  0  0  0
   47.8248    1.8987   -6.0647 O   0  0  0  0  0  0  0  0  0  0  0  0
   43.0235    6.7159   -3.2843 C   0  0  0  0  0  0  0  0  0  0  0  0
   39.4883    1.1123   -5.8976 C   0  0  0  0  0  0  0  0  0  0  0  0
   40.3702    1.1466   -7.0377 N   0  0  0  0  0  0  0  0  0  0  0  0
   43.1134    6.2659   -1.8225 C   0  0  0  0  0  0  0  0  0  0  0  0
   44.3687    6.8092   -1.2095 N   0  0  0  0  0  0  0  0  0  0  0  0
   44.2971    7.1095    0.3119 C   0  0  0  0  0  0  0  0  0  0  0  0
  1  2  1  6  0  0  0
  1  9  1  0  0  0  0
  1 35  1  0  0  0  0
  3  4  1  1  0  0  0
  3 11  1  0  0  0  0
  3 45  1  0  0  0  0
  5  6  1  0  0  0  0
  5 12  1  0  0  0  0
  5 37  1  6  0  0  0
  6 30  1  0  0  0  0
  7 14  1  0  0  0  0
  7 41  1  0  0  0  0
  7 23  1  1  0  0  0
  8 16  2  0  0  0  0
  8 42  1  0  0  0  0
  9 10  1  6  0  0  0
  9 18  1  0  0  0  0
 11 20  1  0  0  0  0
 12 13  1  1  0  0  0
 12 22  1  0  0  0  0
 13 47  1  0  0  0  0
 14 15  1  6  0  0  0
 14 24  1  0  0  0  0
 16 17  1  0  0  0  0
 17 26  2  0  0  0  0
 18 19  1  1  0  0  0
 18 27  1  0  0  0  0
 20 21  1  1  0  0  0
 20 29  1  0  0  0  0
 22 23  1  1  0  0  0
 22 30  1  0  0  0  0
 24 25  1  6  0  0  0
 24 31  1  0  0  0  0
 26 33  1  0  0  0  0
 27 28  1  6  0  0  0
 27 34  1  0  0  0  0
 29  2  1  6  0  0  0
 29 36  1  0  0  0  0
 30 38  1  6  0  0  0
 31 32  1  1  0  0  0
 31 40  1  0  0  0  0
 33 42  2  0  0  0  0
 34 35  1  0  0  0  0
 34 43  1  1  0  0  0
 36 37  1  1  0  0  0
 36 45  1  0  0  0  0
 38 39  1  0  0  0  0
 40 41  1  0  0  0  0
 40 48  1  6  0  0  0
 43 44  1  0  0  0  0
 45 46  1  6  0  0  0
 47 50  1  0  0  0  0
 48 49  1  0  0  0  0
 50 51  1  0  0  0  0
 51 52  1  0  0  0  0
 52  8  1  0  0  0  0
M  END
>  <CHROM.1>
-163.65010353,-73.02326758,-179.96657443,-179.06214848,92.34359985,62.33054034
-135.38901650,-73.97879707,63.47166680,-60.31734847,-177.35890143,66.63329391
149.36257881,-75.33506179,103.85542849,44.09484491,5.36361391,-5.03266677
-0.23857683,0.91982923,0.45185707

>  <Name>
2be0_lig

>  <RI>
0

>  <Rbt.Current_Directory>
/home/itssahil/PROJECTS/Mol_Feturizer/New_Systems/rnas/2be0

>  <Rbt.Executable>
rbdock ($Id: //depot/dev/client3/rdock/2013.1/src/exe/rbdock.cxx#4 $)

>  <Rbt.Library>
libRbt.so (2013.1, Build901 2013/11/27)

>  <Rbt.Parameter_File>
/export/apps/rDock/src/rDock_2013.1_src/data/scripts/dock_solv.prm

>  <Rbt.Receptor>
prm/pocket_docking_4.prm

>  <SCORE>
-26.6465

>  <SCORE.INTER>
-10.2763

>  <SCORE.INTER.CONST>
1

>  <SCORE.INTER.POLAR>
-0.896313

>  <SCORE.INTER.ROT>
15

>  <SCORE.INTER.SOLV>
15.1559

>  <SCORE.INTER.VDW>
-22.5151

>  <SCORE.INTER.norm>
-0.197621

>  <SCORE.INTRA>
-16.3902

>  <SCORE.INTRA.DIHEDRAL>
-32.773

>  <SCORE.INTRA.DIHEDRAL.0>
47.8724

>  <SCORE.INTRA.POLAR>
0

>  <SCORE.INTRA.POLAR.0>
0

>  <SCORE.INTRA.REPUL>
7.39678e-06

>  <SCORE.INTRA.REPUL.0>
0

>  <SCORE.INTRA.SOLV>
-0.315908

>  <SCORE.INTRA.SOLV.lig_0>
-115.677

>  <SCORE.INTRA.VDW>
0.154191

>  <SCORE.INTRA.VDW.0>
-7.4833

>  <SCORE.INTRA.norm>
-0.315197

>  <SCORE.RESTR>
0.0199848

>  <SCORE.RESTR.CAVITY>
0.0199848

>  <SCORE.RESTR.norm>
0.000384324

>  <SCORE.SYSTEM>
0

>  <SCORE.SYSTEM.CONST>
0

>  <SCORE.SYSTEM.DIHEDRAL>
0

>  <SCORE.SYSTEM.SOLV>
0

>  <SCORE.SYSTEM.norm>
0

>  <SCORE.heavy>
52

>  <SCORE.norm>
-0.512433

>  <RMSD>
6.447

$$$$
2be0_lig
 OpenBabel11021811423D
libRbt.so/2013.1/901 2013/11/27
 52 56  0  0  0  0  0  0  0  0999 V2000
   43.1634    2.1880   -6.1259 C   0  0  2  0  0  0  0  0  0  0  0  0
   43.1432    3.3439   -5.3220 O   0  0  0  0  0  0  0  0  0  0  0  0
   44.2128    1.6088   -1.4212 C   0  0  2  0  0  0  0  0  0  0  0  0
   44.7194    1.5242   -0.0228 N   0  0  0  0  0  0  0  0  0  0  0  0
   40.0552    3.0729   -3.2254 C   0  0  2  0  0  0  0  0  0  0  0  0
   39.0986    4.1524   -3.2161 O   0  0  0  0  0  0  0  0  0  0  0  0
   38.6177    3.7323    1.3167 C   0  0  1  0  0  0  0  0  0  0  0  0
   38.9627   -3.0598   -2.8026 C   0  0  0  0  0  0  0  0  0  0  0  0
   42.6294    2.4946   -7.5842 C   0  0  2  0  0  0  0  0  0  0  0  0
   43.3855    3.6061   -8.1652 N   0  0  0  0  0  0  0  0  0  0  0  0
   45.3651    2.1908   -2.3603 C   0  0  0  0  0  0  0  0  0  0  0  0
   39.7290    2.1817   -2.0163 C   0  0  2  0  0  0  0  0  0  0  0  0
   38.6649    1.2665   -2.5335 O   0  0  0  0  0  0  0  0  0  0  0  0
   40.1197    3.7576    1.9372 C   0  0  2  0  0  0  0  0  0  0  0  0
   40.5181    2.3562    2.2882 N   0  0  0  0  0  0  0  0  0  0  0  0
   39.8253   -3.3923   -3.8981 C   0  0  0  0  0  0  0  0  0  0  0  0
   41.2323   -3.3922   -3.7104 N   0  0  0  0  0  0  0  0  0  0  0  0
   41.0615    2.8019   -7.5289 C   0  0  1  0  0  0  0  0  0  0  0  0
   40.6047    3.0812   -8.8432 O   0  0  0  0  0  0  0  0  0  0  0  0
   44.8438    2.3129   -3.9040 C   0  0  2  0  0  0  0  0  0  0  0  0
   45.8724    2.8334   -4.7599 N   0  0  0  0  0  0  0  0  0  0  0  0
   39.3650    3.2833   -1.0030 C   0  0  2  0  0  0  0  0  0  0  0  0
   38.6488    2.8826    0.1558 O   0  0  0  0  0  0  0  0  0  0  0  0
   40.0983    4.6642    3.2047 C   0  0  1  0  0  0  0  0  0  0  0  0
   39.7136    6.0078    2.7418 O   0  0  0  0  0  0  0  0  0  0  0  0
   41.8487   -3.0713   -2.4674 C   0  0  0  0  0  0  0  0  0  0  0  0
   40.3368    1.5698   -6.9132 C   0  0  2  0  0  0  0  0  0  0  0  0
   38.8738    1.7979   -6.8319 O   0  0  0  0  0  0  0  0  0  0  0  0
   43.5723    3.2555   -3.9687 C   0  0  2  0  0  0  0  0  0  0  0  0
   38.6238    4.3321   -1.8660 C   0  0  1  0  0  0  0  0  0  0  0  0
   39.0283    4.0857    4.2846 C   0  0  2  0  0  0  0  0  0  0  0  0
   39.4062    2.7427    4.7514 O   0  0  0  0  0  0  0  0  0  0  0  0
   41.0472   -2.7357   -1.3485 C   0  0  0  0  0  0  0  0  0  0  0  0
   40.8823    1.2802   -5.4619 C   0  0  2  0  0  0  0  0  0  0  0  0
   42.3139    1.0701   -5.6075 O   0  0  0  0  0  0  0  0  0  0  0  0
   42.4785    2.6470   -3.0241 C   0  0  2  0  0  0  0  0  0  0  0  0
   41.3936    3.5554   -3.1696 O   0  0  0  0  0  0  0  0  0  0  0  0
   38.9637    5.7654   -1.4610 C   0  0  0  0  0  0  0  0  0  0  0  0
   40.3334    6.0894   -1.4723 O   0  0  0  0  0  0  0  0  0  0  0  0
   37.5770    4.0326    3.6182 C   0  0  1  0  0  0  0  0  0  0  0  0
   37.6537    3.1819    2.3672 O   0  0  0  0  0  0  0  0  0  0  0  0
   39.5730   -2.7206   -1.4928 C   0  0  0  0  0  0  0  0  0  0  0  0
   40.1781    0.0969   -4.9423 C   0  0  0  0  0  0  0  0  0  0  0  0
   40.6686   -0.2209   -3.7377 O   0  0  0  0  0  0  0  0  0  0  0  0
   43.0066    2.5714   -1.5298 C   0  0  1  0  0  0  0  0  0  0  0  0
   42.0305    2.0209   -0.7078 O   0  0  0  0  0  0  0  0  0  0  0  0
   38.0568    0.0934   -1.8623 C   0  0  0  0  0  0  0  0  0  0  0  0
   36.6042    3.4645    4.6871 C   0  0  0  0  0  0  0  0  0  0  0  0
   36.8765    2.0698    4.9309 N   0  0  0  0  0  0  0  0  0  0  0  0
   37.0475   -0.5157   -2.8409 C   0  0  0  0  0  0  0  0  0  0  0  0
   36.6482   -1.8786   -2.3615 N   0  0  0  0  0  0  0  0  0  0  0  0
   37.3745   -3.0693   -3.0434 C   0  0  0  0  0  0  0  0  0  0  0  0
  1  2  1  1  0  0  0
  1  9  1  0  0  0  0
  1 35  1  0  0  0  0
  3  4  1  1  0  0  0
  3 11  1  0  0  0  0
  3 45  1  0  0  0  0
  5  6  1  0  0  0  0
  5 12  1  0  0  0  0
  5 37  1  1  0  0  0
  6 30  1  0  0  0  0
  7 14  1  0  0  0  0
  7 41  1  0  0  0  0
  7 23  1  6  0  0  0
  8 16  2  0  0  0  0
  8 42  1  0  0  0  0
  9 10  1  1  0  0  0
  9 18  1  0  0  0  0
 11 20  1  0  0  0  0
 12 13  1  6  0  0  0
 12 22  1  0  0  0  0
 13 47  1  0  0  0  0
 14 15  1  1  0  0  0
 14 24  1  0  0  0  0
 16 17  1  0  0  0  0
 17 26  2  0  0  0  0
 18 19  1  6  0  0  0
 18 27  1  0  0  0  0
 20 21  1  6  0  0  0
 20 29  1  0  0  0  0
 22 23  1  1  0  0  0
 22 30  1  0  0  0  0
 24 25  1  6  0  0  0
 24 31  1  0  0  0  0
 26 33  1  0  0  0  0
 27 28  1  1  0  0  0
 27 34  1  0  0  0  0
 29  2  1  6  0  0  0
 29 36  1  0  0  0  0
 30 38  1  1  0  0  0
 31 32  1  6  0  0  0
 31 40  1  0  0  0  0
 33 42  2  0  0  0  0
 34 35  1  0  0  0  0
 34 43  1  6  0  0  0
 36 37  1  1  0  0  0
 36 45  1  0  0  0  0
 38 39  1  0  0  0  0
 40 41  1  0  0  0  0
 40 48  1  1  0  0  0
 43 44  1  0  0  0  0
 45 46  1  1  0  0  0
 47 50  1  0  0  0  0
 48 49  1  0  0  0  0
 50 51  1  0  0  0  0
 51 52  1  0  0  0  0
 52  8  1  0  0  0  0
M  END
>  <CHROM.1>
179.14484437,173.21933331,-68.06625735,172.97741477,-178.39441524,161.36143817
40.24703268,-60.53170040,176.70623794,140.69108587,-69.49519152,166.36794439
-99.02416680,61.92481545,-138.76489728,40.47895341,1.91791519,-2.08285434
-0.95165424,0.92448219,0.82814548

>  <Name>
2be0_lig

>  <RI>
0

>  <Rbt.Current_Directory>
/home/itssahil/PROJECTS/Mol_Feturizer/New_Systems/rnas/2be0

>  <Rbt.Executable>
rbdock ($Id: //depot/dev/client3/rdock/2013.1/src/exe/rbdock.cxx#4 $)

>  <Rbt.Library>
libRbt.so (2013.1, Build901 2013/11/27)

>  <Rbt.Parameter_File>
/export/apps/rDock/src/rDock_2013.1_src/data/scripts/dock_solv.prm

>  <Rbt.Receptor>
prm/pocket_docking_7.prm

>  <SCORE>
-16.0418

>  <SCORE.INTER>
1.08553

>  <SCORE.INTER.CONST>
1

>  <SCORE.INTER.POLAR>
0

>  <SCORE.INTER.ROT>
15

>  <SCORE.INTER.SOLV>
12.4436

>  <SCORE.INTER.VDW>
-17.0242

>  <SCORE.INTER.norm>
0.0208756

>  <SCORE.INTRA>
-17.1509

>  <SCORE.INTRA.DIHEDRAL>
-35.3615

>  <SCORE.INTRA.DIHEDRAL.0>
47.8724

>  <SCORE.INTRA.POLAR>
0

>  <SCORE.INTRA.POLAR.0>
0

>  <SCORE.INTRA.REPUL>
0

>  <SCORE.INTRA.REPUL.0>
0

>  <SCORE.INTRA.SOLV>
2.64276

>  <SCORE.INTRA.SOLV.lig_0>
-115.677

>  <SCORE.INTRA.VDW>
-0.791535

>  <SCORE.INTRA.VDW.0>
-7.4833

>  <SCORE.INTRA.norm>
-0.329825

>  <SCORE.RESTR>
0.0235437

>  <SCORE.RESTR.CAVITY>
0.0235437

>  <SCORE.RESTR.norm>
0.000452763

>  <SCORE.SYSTEM>
0

>  <SCORE.SYSTEM.CONST>
0

>  <SCORE.SYSTEM.DIHEDRAL>
0

>  <SCORE.SYSTEM.SOLV>
0

>  <SCORE.SYSTEM.norm>
0

>  <SCORE.heavy>
52

>  <SCORE.norm>
-0.308496

>  <RMSD>
6.481

$$$$
2be0_lig
 OpenBabel11021811423D
libRbt.so/2013.1/901 2013/11/27
 52 56  0  0  0  0  0  0  0  0999 V2000
   44.9329    5.4479   -9.0124 C   0  0  2  0  0  0  0  0  0  0  0  0
   45.1843    6.1779   -7.8348 O   0  0  0  0  0  0  0  0  0  0  0  0
   49.1602    4.6048   -6.7916 C   0  0  2  0  0  0  0  0  0  0  0  0
   50.4050    4.3643   -6.0091 N   0  0  0  0  0  0  0  0  0  0  0  0
   45.0219    4.5730   -4.9955 C   0  0  2  0  0  0  0  0  0  0  0  0
   45.4857    3.8513   -3.8360 O   0  0  0  0  0  0  0  0  0  0  0  0
   40.9132    2.3542   -4.4456 C   0  0  1  0  0  0  0  0  0  0  0  0
   39.8089    7.5870   -1.9705 C   0  0  0  0  0  0  0  0  0  0  0  0
   43.8768    6.1875   -9.9309 C   0  0  2  0  0  0  0  0  0  0  0  0
   44.3222    7.5576  -10.1937 N   0  0  0  0  0  0  0  0  0  0  0  0
   48.9724    6.1757   -7.0049 C   0  0  0  0  0  0  0  0  0  0  0  0
   43.4915    4.6583   -4.8813 C   0  0  2  0  0  0  0  0  0  0  0  0
   43.2717    5.8627   -4.0220 O   0  0  0  0  0  0  0  0  0  0  0  0
   39.5967    2.3159   -3.4935 C   0  0  2  0  0  0  0  0  0  0  0  0
   39.9418    1.5963   -2.2252 N   0  0  0  0  0  0  0  0  0  0  0  0
   38.5758    7.9273   -1.3235 C   0  0  0  0  0  0  0  0  0  0  0  0
   37.5991    6.9222   -1.0980 N   0  0  0  0  0  0  0  0  0  0  0  0
   42.4385    6.1494   -9.2339 C   0  0  1  0  0  0  0  0  0  0  0  0
   41.5092    6.8232  -10.0685 O   0  0  0  0  0  0  0  0  0  0  0  0
   47.6075    6.4836   -7.8488 C   0  0  2  0  0  0  0  0  0  0  0  0
   47.4280    7.8938   -8.0496 N   0  0  0  0  0  0  0  0  0  0  0  0
   43.2190    3.2527   -4.3132 C   0  0  2  0  0  0  0  0  0  0  0  0
   41.9499    3.0338   -3.7149 O   0  0  0  0  0  0  0  0  0  0  0  0
   38.4682    1.5698   -4.2675 C   0  0  1  0  0  0  0  0  0  0  0  0
   38.2024    2.3678   -5.4757 O   0  0  0  0  0  0  0  0  0  0  0  0
   37.7791    5.5647   -1.4889 C   0  0  0  0  0  0  0  0  0  0  0  0
   42.0389    4.6629   -9.0039 C   0  0  2  0  0  0  0  0  0  0  0  0
   40.7098    4.5629   -8.3538 O   0  0  0  0  0  0  0  0  0  0  0  0
   46.3551    5.8935   -7.0788 C   0  0  2  0  0  0  0  0  0  0  0  0
   44.4117    3.0163   -3.3563 C   0  0  1  0  0  0  0  0  0  0  0  0
   38.9571    0.0667   -4.6515 C   0  0  2  0  0  0  0  0  0  0  0  0
   39.2251   -0.7367   -3.4485 O   0  0  0  0  0  0  0  0  0  0  0  0
   38.9780    5.1686   -2.1314 C   0  0  0  0  0  0  0  0  0  0  0  0
   43.1024    3.9435   -8.0879 C   0  0  2  0  0  0  0  0  0  0  0  0
   44.3775    4.0786   -8.7740 O   0  0  0  0  0  0  0  0  0  0  0  0
   46.5943    4.3557   -6.8862 C   0  0  2  0  0  0  0  0  0  0  0  0
   45.4183    3.9353   -6.2054 O   0  0  0  0  0  0  0  0  0  0  0  0
   44.9154    1.5745   -3.3979 C   0  0  0  0  0  0  0  0  0  0  0  0
   45.2769    1.0957   -4.6712 O   0  0  0  0  0  0  0  0  0  0  0  0
   40.2788    0.1500   -5.5454 C   0  0  1  0  0  0  0  0  0  0  0  0
   41.3311    0.9218   -4.7762 O   0  0  0  0  0  0  0  0  0  0  0  0
   40.0284    6.1804   -2.3905 C   0  0  0  0  0  0  0  0  0  0  0  0
   42.6839    2.5420   -7.9246 C   0  0  0  0  0  0  0  0  0  0  0  0
   43.5847    1.8916   -7.1774 O   0  0  0  0  0  0  0  0  0  0  0  0
   47.9094    4.0943   -6.0379 C   0  0  1  0  0  0  0  0  0  0  0  0
   48.1128    2.7280   -5.8849 O   0  0  0  0  0  0  0  0  0  0  0  0
   43.8295    7.2253   -4.1908 C   0  0  0  0  0  0  0  0  0  0  0  0
   40.7032   -1.3080   -5.8703 C   0  0  0  0  0  0  0  0  0  0  0  0
   41.9397   -1.3233   -6.6117 N   0  0  0  0  0  0  0  0  0  0  0  0
   43.2421    8.0968   -3.0759 C   0  0  0  0  0  0  0  0  0  0  0  0
   41.8293    8.4612   -3.4196 N   0  0  0  0  0  0  0  0  0  0  0  0
   40.8964    8.7443   -2.2114 C   0  0  0  0  0  0  0  0  0  0  0  0
  1  2  1  1  0  0  0
  1  9  1  0  0  0  0
  1 35  1  0  0  0  0
  3  4  1  1  0  0  0
  3 11  1  0  0  0  0
  3 45  1  0  0  0  0
  5  6  1  0  0  0  0
  5 12  1  0  0  0  0
  5 37  1  6  0  0  0
  6 30  1  0  0  0  0
  7 14  1  0  0  0  0
  7 41  1  0  0  0  0
  7 23  1  1  0  0  0
  8 16  2  0  0  0  0
  8 42  1  0  0  0  0
  9 10  1  1  0  0  0
  9 18  1  0  0  0  0
 11 20  1  0  0  0  0
 12 13  1  1  0  0  0
 12 22  1  0  0  0  0
 13 47  1  0  0  0  0
 14 15  1  1  0  0  0
 14 24  1  0  0  0  0
 16 17  1  0  0  0  0
 17 26  2  0  0  0  0
 18 19  1  6  0  0  0
 18 27  1  0  0  0  0
 20 21  1  1  0  0  0
 20 29  1  0  0  0  0
 22 23  1  1  0  0  0
 22 30  1  0  0  0  0
 24 25  1  6  0  0  0
 24 31  1  0  0  0  0
 26 33  1  0  0  0  0
 27 28  1  1  0  0  0
 27 34  1  0  0  0  0
 29  2  1  6  0  0  0
 29 36  1  0  0  0  0
 30 38  1  6  0  0  0
 31 32  1  1  0  0  0
 31 40  1  0  0  0  0
 33 42  2  0  0  0  0
 34 35  1  0  0  0  0
 34 43  1  6  0  0  0
 36 37  1  1  0  0  0
 36 45  1  0  0  0  0
 38 39  1  0  0  0  0
 40 41  1  0  0  0  0
 40 48  1  1  0  0  0
 43 44  1  0  0  0  0
 45 46  1  6  0  0  0
 47 50  1  0  0  0  0
 48 49  1  0  0  0  0
 50 51  1  0  0  0  0
 51 52  1  0  0  0  0
 52  8  1  0  0  0  0
M  END
>  <CHROM.1>
-162.09011300,-95.75604791,-178.29334237,51.31924255,177.53111185,100.68849064
74.05314207,-60.84009801,178.47831228,-54.44211163,-176.58001355,-76.94037890
152.83699462,-108.19813243,-153.64901056,43.01832975,4.21086740,-5.50326548
0.13987469,0.54695772,0.19377170

>  <Name>
2be0_lig

>  <RI>
0

>  <Rbt.Current_Directory>
/home/itssahil/PROJECTS/Mol_Feturizer/New_Systems/rnas/2be0

>  <Rbt.Executable>
rbdock ($Id: //depot/dev/client3/rdock/2013.1/src/exe/rbdock.cxx#4 $)

>  <Rbt.Library>
libRbt.so (2013.1, Build901 2013/11/27)

>  <Rbt.Parameter_File>
/export/apps/rDock/src/rDock_2013.1_src/data/scripts/dock_solv.prm

>  <Rbt.Receptor>
prm/pocket_docking_4.prm

>  <SCORE>
-17.5952

>  <SCORE.INTER>
-1.37944

>  <SCORE.INTER.CONST>
1

>  <SCORE.INTER.POLAR>
0

>  <SCORE.INTER.ROT>
15

>  <SCORE.INTER.SOLV>
16.9625

>  <SCORE.INTER.VDW>
-20.1738

>  <SCORE.INTER.norm>
-0.0265278

>  <SCORE.INTRA>
-16.3367

>  <SCORE.INTRA.DIHEDRAL>
-30.8985

>  <SCORE.INTRA.DIHEDRAL.0>
47.8724

>  <SCORE.INTRA.POLAR>
0

>  <SCORE.INTRA.POLAR.0>
0

>  <SCORE.INTRA.REPUL>
0

>  <SCORE.INTRA.REPUL.0>
0

>  <SCORE.INTRA.SOLV>
0.914088

>  <SCORE.INTRA.SOLV.lig_0>
-115.677

>  <SCORE.INTRA.VDW>
-1.3445

>  <SCORE.INTRA.VDW.0>
-7.4833

>  <SCORE.INTRA.norm>
-0.314167

>  <SCORE.RESTR>
0.120904

>  <SCORE.RESTR.CAVITY>
0.120904

>  <SCORE.RESTR.norm>
0.00232508

>  <SCORE.SYSTEM>
0

>  <SCORE.SYSTEM.CONST>
0

>  <SCORE.SYSTEM.DIHEDRAL>
0

>  <SCORE.SYSTEM.SOLV>
0

>  <SCORE.SYSTEM.norm>
0

>  <SCORE.heavy>
52

>  <SCORE.norm>
-0.33837

>  <RMSD>
6.532

$$$$
2be0_lig
 OpenBabel11021811423D
libRbt.so/2013.1/901 2013/11/27
 52 56  0  0  0  0  0  0  0  0999 V2000
   43.2116    6.6284   -7.1856 C   0  0  2  0  0  0  0  0  0  0  0  0
   43.9624    5.4397   -7.2637 O   0  0  0  0  0  0  0  0  0  0  0  0
   47.7123    4.0255   -9.0828 C   0  0  2  0  0  0  0  0  0  0  0  0
   48.8816    3.9668  -10.0041 N   0  0  0  0  0  0  0  0  0  0  0  0
   46.3643    6.5627   -5.1194 C   0  0  2  0  0  0  0  0  0  0  0  0
   47.5534    5.9513   -4.5785 O   0  0  0  0  0  0  0  0  0  0  0  0
   43.7792    2.9577   -4.2442 C   0  0  1  0  0  0  0  0  0  0  0  0
   41.7862    8.3833    0.7678 C   0  0  0  0  0  0  0  0  0  0  0  0
   42.2367    6.7732   -8.4243 C   0  0  2  0  0  0  0  0  0  0  0  0
   41.3997    5.5769   -8.5386 N   0  0  0  0  0  0  0  0  0  0  0  0
   46.3676    3.9986   -9.9427 C   0  0  0  0  0  0  0  0  0  0  0  0
   45.1702    5.7485   -4.5961 C   0  0  2  0  0  0  0  0  0  0  0  0
   44.8938    6.3546   -3.2569 O   0  0  0  0  0  0  0  0  0  0  0  0
   42.9009    3.3110   -2.9232 C   0  0  2  0  0  0  0  0  0  0  0  0
   43.4384    2.5266   -1.7650 N   0  0  0  0  0  0  0  0  0  0  0  0
   41.4348    7.5923    1.9105 C   0  0  0  0  0  0  0  0  0  0  0  0
   40.0670    7.3828    2.2270 N   0  0  0  0  0  0  0  0  0  0  0  0
   43.0891    7.0359   -9.7511 C   0  0  1  0  0  0  0  0  0  0  0  0
   42.1983    7.1550  -10.8494 O   0  0  0  0  0  0  0  0  0  0  0  0
   45.0585    4.0758   -8.9679 C   0  0  2  0  0  0  0  0  0  0  0  0
   43.8416    4.0502   -9.7294 N   0  0  0  0  0  0  0  0  0  0  0  0
   45.7879    4.3402   -4.6861 C   0  0  2  0  0  0  0  0  0  0  0  0
   45.1451    3.3061   -3.9553 O   0  0  0  0  0  0  0  0  0  0  0  0
   41.4195    2.9258   -3.2167 C   0  0  1  0  0  0  0  0  0  0  0  0
   40.9951    3.7621   -4.3516 O   0  0  0  0  0  0  0  0  0  0  0  0
   39.0006    7.9280    1.4565 C   0  0  0  0  0  0  0  0  0  0  0  0
   43.9352    8.3264   -9.5487 C   0  0  2  0  0  0  0  0  0  0  0  0
   44.7536    8.6208  -10.7498 O   0  0  0  0  0  0  0  0  0  0  0  0
   45.1130    5.3994   -8.0991 C   0  0  2  0  0  0  0  0  0  0  0  0
   47.2631    4.5702   -4.2801 C   0  0  1  0  0  0  0  0  0  0  0  0
   41.3178    1.3439   -3.5817 C   0  0  2  0  0  0  0  0  0  0  0  0
   41.7409    0.5019   -2.4520 O   0  0  0  0  0  0  0  0  0  0  0  0
   39.2866    8.7171    0.3153 C   0  0  0  0  0  0  0  0  0  0  0  0
   44.8988    8.1631   -8.3109 C   0  0  2  0  0  0  0  0  0  0  0  0
   44.0415    7.8738   -7.1723 O   0  0  0  0  0  0  0  0  0  0  0  0
   46.4532    5.3812   -7.2851 C   0  0  2  0  0  0  0  0  0  0  0  0
   46.3891    6.5928   -6.5428 O   0  0  0  0  0  0  0  0  0  0  0  0
   48.2328    3.7232   -5.1026 C   0  0  0  0  0  0  0  0  0  0  0  0
   47.9283    2.3508   -5.1734 O   0  0  0  0  0  0  0  0  0  0  0  0
   42.2327    1.0325   -4.8541 C   0  0  1  0  0  0  0  0  0  0  0  0
   43.6509    1.4645   -4.5434 O   0  0  0  0  0  0  0  0  0  0  0  0
   40.6986    8.9661   -0.0570 C   0  0  0  0  0  0  0  0  0  0  0  0
   45.6537    9.4171   -8.1573 C   0  0  0  0  0  0  0  0  0  0  0  0
   46.3585    9.6529   -9.2711 O   0  0  0  0  0  0  0  0  0  0  0  0
   47.7025    5.3369   -8.2622 C   0  0  1  0  0  0  0  0  0  0  0  0
   48.8811    5.3108   -7.5262 O   0  0  0  0  0  0  0  0  0  0  0  0
   44.1696    5.7570   -2.1103 C   0  0  0  0  0  0  0  0  0  0  0  0
   42.1050   -0.4871   -5.1475 C   0  0  0  0  0  0  0  0  0  0  0  0
   40.8461   -0.7762   -5.7880 N   0  0  0  0  0  0  0  0  0  0  0  0
   43.3233    6.8679   -1.4801 C   0  0  0  0  0  0  0  0  0  0  0  0
   43.9999    7.3676   -0.2395 N   0  0  0  0  0  0  0  0  0  0  0  0
   43.3419    8.6026    0.4328 C   0  0  0  0  0  0  0  0  0  0  0  0
  1  2  1  6  0  0  0
  1  9  1  0  0  0  0
  1 35  1  0  0  0  0
  3  4  1  6  0  0  0
  3 11  1  0  0  0  0
  3 45  1  0  0  0  0
  5  6  1  0  0  0  0
  5 12  1  0  0  0  0
  5 37  1  6  0  0  0
  6 30  1  0  0  0  0
  7 14  1  0  0  0  0
  7 41  1  0  0  0  0
  7 23  1  1  0  0  0
  8 16  2  0  0  0  0
  8 42  1  0  0  0  0
  9 10  1  6  0  0  0
  9 18  1  0  0  0  0
 11 20  1  0  0  0  0
 12 13  1  1  0  0  0
 12 22  1  0  0  0  0
 13 47  1  0  0  0  0
 14 15  1  1  0  0  0
 14 24  1  0  0  0  0
 16 17  1  0  0  0  0
 17 26  2  0  0  0  0
 18 19  1  6  0  0  0
 18 27  1  0  0  0  0
 20 21  1  6  0  0  0
 20 29  1  0  0  0  0
 22 23  1  1  0  0  0
 22 30  1  0  0  0  0
 24 25  1  6  0  0  0
 24 31  1  0  0  0  0
 26 33  1  0  0  0  0
 27 28  1  6  0  0  0
 27 34  1  0  0  0  0
 29  2  1  1  0  0  0
 29 36  1  0  0  0  0
 30 38  1  6  0  0  0
 31 32  1  1  0  0  0
 31 40  1  0  0  0  0
 33 42  2  0  0  0  0
 34 35  1  0  0  0  0
 34 43  1  1  0  0  0
 36 37  1  6  0  0  0
 36 45  1  0  0  0  0
 38 39  1  0  0  0  0
 40 41  1  0  0  0  0
 40 48  1  1  0  0  0
 43 44  1  0  0  0  0
 45 46  1  1  0  0  0
 47 50  1  0  0  0  0
 48 49  1  0  0  0  0
 50 51  1  0  0  0  0
 51 52  1  0  0  0  0
 52  8  1  0  0  0  0
M  END
>  <CHROM.1>
80.41616441,61.00872826,-115.48949712,-158.86488335,-140.77890587,60.78745955
-132.79510854,-166.95156421,-59.76990131,117.74783852,76.38117340,-101.97701620
173.67422010,54.68020298,77.28921203,44.12505188,5.32770800,-5.27037704,-0.04066125
1.10280606,0.02781420

>  <Name>
2be0_lig

>  <RI>
0

>  <Rbt.Current_Directory>
/home/itssahil/PROJECTS/Mol_Feturizer/New_Systems/rnas/2be0

>  <Rbt.Executable>
rbdock ($Id: //depot/dev/client3/rdock/2013.1/src/exe/rbdock.cxx#4 $)

>  <Rbt.Library>
libRbt.so (2013.1, Build901 2013/11/27)

>  <Rbt.Parameter_File>
/export/apps/rDock/src/rDock_2013.1_src/data/scripts/dock_solv.prm

>  <Rbt.Receptor>
prm/pocket_docking_2.prm

>  <SCORE>
5.25755

>  <SCORE.INTER>
-1.29515

>  <SCORE.INTER.CONST>
1

>  <SCORE.INTER.POLAR>
-0.715153

>  <SCORE.INTER.ROT>
15

>  <SCORE.INTER.SOLV>
16.9164

>  <SCORE.INTER.VDW>
-17.7184

>  <SCORE.INTER.norm>
-0.0249068

>  <SCORE.INTRA>
-1.38647

>  <SCORE.INTRA.DIHEDRAL>
-11.1275

>  <SCORE.INTRA.DIHEDRAL.0>
47.8724

>  <SCORE.INTRA.POLAR>
0

>  <SCORE.INTRA.POLAR.0>
0

>  <SCORE.INTRA.REPUL>
0

>  <SCORE.INTRA.REPUL.0>
0

>  <SCORE.INTRA.SOLV>
3.05073

>  <SCORE.INTRA.SOLV.lig_0>
-115.677

>  <SCORE.INTRA.VDW>
2.65193

>  <SCORE.INTRA.VDW.0>
-7.4833

>  <SCORE.INTRA.norm>
-0.0266629

>  <SCORE.RESTR>
7.93917

>  <SCORE.RESTR.CAVITY>
7.93917

>  <SCORE.RESTR.norm>
0.152676

>  <SCORE.SYSTEM>
0

>  <SCORE.SYSTEM.CONST>
0

>  <SCORE.SYSTEM.DIHEDRAL>
0

>  <SCORE.SYSTEM.SOLV>
0

>  <SCORE.SYSTEM.norm>
0

>  <SCORE.heavy>
52

>  <SCORE.norm>
0.101107

>  <RMSD>
6.576

$$$$
2be0_lig
 OpenBabel11021811423D
libRbt.so/2013.1/901 2013/11/27
 52 56  0  0  0  0  0  0  0  0999 V2000
   45.4899    3.4092   -5.2329 C   0  0  2  0  0  0  0  0  0  0  0  0
   45.6805    2.7295   -6.4513 O   0  0  0  0  0  0  0  0  0  0  0  0
   42.8584    1.9799   -9.7445 C   0  0  2  0  0  0  0  0  0  0  0  0
   41.6978    1.4123  -10.4863 N   0  0  0  0  0  0  0  0  0  0  0  0
   42.2638    5.1152   -6.6380 C   0  0  2  0  0  0  0  0  0  0  0  0
   42.5996    6.1306   -7.6059 O   0  0  0  0  0  0  0  0  0  0  0  0
   42.5306    7.8640   -3.2625 C   0  0  1  0  0  0  0  0  0  0  0  0
   38.5461    3.5821   -1.1450 C   0  0  0  0  0  0  0  0  0  0  0  0
   46.8717    3.8582   -4.6047 C   0  0  2  0  0  0  0  0  0  0  0  0
   47.6290    4.6424   -5.5824 N   0  0  0  0  0  0  0  0  0  0  0  0
   43.7731    0.7850   -9.2116 C   0  0  0  0  0  0  0  0  0  0  0  0
   42.0883    5.8302   -5.2888 C   0  0  2  0  0  0  0  0  0  0  0  0
   40.6667    6.2940   -5.3213 O   0  0  0  0  0  0  0  0  0  0  0  0
   42.5927    9.3298   -2.5633 C   0  0  2  0  0  0  0  0  0  0  0  0
   44.0293    9.7234   -2.3994 N   0  0  0  0  0  0  0  0  0  0  0  0
   39.8175    3.2140   -0.5947 C   0  0  0  0  0  0  0  0  0  0  0  0
   40.0905    1.8514   -0.3051 N   0  0  0  0  0  0  0  0  0  0  0  0
   47.6823    2.5707   -4.1136 C   0  0  1  0  0  0  0  0  0  0  0  0
   48.9193    2.9937   -3.5614 O   0  0  0  0  0  0  0  0  0  0  0  0
   45.0527    1.3662   -8.3783 C   0  0  2  0  0  0  0  0  0  0  0  0
   45.8852    0.3008   -7.8952 N   0  0  0  0  0  0  0  0  0  0  0  0
   43.2310    6.8554   -5.4150 C   0  0  2  0  0  0  0  0  0  0  0  0
   43.2010    7.9668   -4.5316 O   0  0  0  0  0  0  0  0  0  0  0  0
   41.8815    9.2304   -1.1800 C   0  0  1  0  0  0  0  0  0  0  0  0
   40.4856    8.8572   -1.4621 O   0  0  0  0  0  0  0  0  0  0  0  0
   39.1503    0.8066   -0.5341 C   0  0  0  0  0  0  0  0  0  0  0  0
   46.8141    1.8063   -3.0723 C   0  0  2  0  0  0  0  0  0  0  0  0
   47.5145    0.5950   -2.5811 O   0  0  0  0  0  0  0  0  0  0  0  0
   44.5469    2.2398   -7.1574 C   0  0  2  0  0  0  0  0  0  0  0  0
   43.1985    7.2445   -6.9122 C   0  0  1  0  0  0  0  0  0  0  0  0
   42.6146    8.1097   -0.2568 C   0  0  2  0  0  0  0  0  0  0  0  0
   44.0106    8.4760    0.0289 O   0  0  0  0  0  0  0  0  0  0  0  0
   37.8775    1.1096   -1.0774 C   0  0  0  0  0  0  0  0  0  0  0  0
   45.4426    1.3682   -3.7162 C   0  0  2  0  0  0  0  0  0  0  0  0
   44.8092    2.5926   -4.1793 O   0  0  0  0  0  0  0  0  0  0  0  0
   43.6476    3.3885   -7.7325 C   0  0  2  0  0  0  0  0  0  0  0  0
   43.2657    4.1061   -6.5652 O   0  0  0  0  0  0  0  0  0  0  0  0
   44.5977    7.4328   -7.4960 C   0  0  0  0  0  0  0  0  0  0  0  0
   45.3542    8.4769   -6.9312 O   0  0  0  0  0  0  0  0  0  0  0  0
   42.5733    6.6973   -1.0026 C   0  0  1  0  0  0  0  0  0  0  0  0
   43.2313    6.8504   -2.3584 O   0  0  0  0  0  0  0  0  0  0  0  0
   37.5433    2.5171   -1.3962 C   0  0  0  0  0  0  0  0  0  0  0  0
   44.6598    0.6723   -2.6822 C   0  0  0  0  0  0  0  0  0  0  0  0
   44.3530    1.5308   -1.7016 O   0  0  0  0  0  0  0  0  0  0  0  0
   42.4000    2.7894   -8.5083 C   0  0  1  0  0  0  0  0  0  0  0  0
   41.6193    3.8189   -9.0203 O   0  0  0  0  0  0  0  0  0  0  0  0
   39.7158    6.4198   -4.1915 C   0  0  0  0  0  0  0  0  0  0  0  0
   43.2941    5.6741   -0.0834 C   0  0  0  0  0  0  0  0  0  0  0  0
   42.5435    5.4650    1.1298 N   0  0  0  0  0  0  0  0  0  0  0  0
   40.2626    5.5674   -3.0418 C   0  0  0  0  0  0  0  0  0  0  0  0
   39.5583    5.9338   -1.7705 N   0  0  0  0  0  0  0  0  0  0  0  0
   38.2652    5.1311   -1.4642 C   0  0  0  0  0  0  0  0  0  0  0  0
  1  2  1  6  0  0  0
  1  9  1  0  0  0  0
  1 35  1  0  0  0  0
  3  4  1  1  0  0  0
  3 11  1  0  0  0  0
  3 45  1  0  0  0  0
  5  6  1  0  0  0  0
  5 12  1  0  0  0  0
  5 37  1  1  0  0  0
  6 30  1  0  0  0  0
  7 14  1  0  0  0  0
  7 41  1  0  0  0  0
  7 23  1  6  0  0  0
  8 16  2  0  0  0  0
  8 42  1  0  0  0  0
  9 10  1  6  0  0  0
  9 18  1  0  0  0  0
 11 20  1  0  0  0  0
 12 13  1  6  0  0  0
 12 22  1  0  0  0  0
 13 47  1  0  0  0  0
 14 15  1  1  0  0  0
 14 24  1  0  0  0  0
 16 17  1  0  0  0  0
 17 26  2  0  0  0  0
 18 19  1  1  0  0  0
 18 27  1  0  0  0  0
 20 21  1  1  0  0  0
 20 29  1  0  0  0  0
 22 23  1  1  0  0  0
 22 30  1  0  0  0  0
 24 25  1  6  0  0  0
 24 31  1  0  0  0  0
 26 33  1  0  0  0  0
 27 28  1  6  0  0  0
 27 34  1  0  0  0  0
 29  2  1  6  0  0  0
 29 36  1  0  0  0  0
 30 38  1  6  0  0  0
 31 32  1  6  0  0  0
 31 40  1  0  0  0  0
 33 42  2  0  0  0  0
 34 35  1  0  0  0  0
 34 43  1  1  0  0  0
 36 37  1  1  0  0  0
 36 45  1  0  0  0  0
 38 39  1  0  0  0  0
 40 41  1  0  0  0  0
 40 48  1  1  0  0  0
 43 44  1  0  0  0  0
 45 46  1  6  0  0  0
 47 50  1  0  0  0  0
 48 49  1  0  0  0  0
 50 51  1  0  0  0  0
 51 52  1  0  0  0  0
 52  8  1  0  0  0  0
M  END
>  <CHROM.1>
179.47613085,-56.36522451,-175.90073983,146.59741027,-18.42899220,25.74006899
-172.81769869,-179.37930623,64.93494923,-170.07282981,66.64947726,165.06870451
89.62996943,67.39370687,27.21546033,43.09691704,4.54556066,-4.19322662,-0.50977101
0.97991406,0.01672138

>  <Name>
2be0_lig

>  <RI>
0

>  <Rbt.Current_Directory>
/home/itssahil/PROJECTS/Mol_Feturizer/New_Systems/rnas/2be0

>  <Rbt.Executable>
rbdock ($Id: //depot/dev/client3/rdock/2013.1/src/exe/rbdock.cxx#4 $)

>  <Rbt.Library>
libRbt.so (2013.1, Build901 2013/11/27)

>  <Rbt.Parameter_File>
/export/apps/rDock/src/rDock_2013.1_src/data/scripts/dock_solv.prm

>  <Rbt.Receptor>
prm/pocket_docking_6.prm

>  <SCORE>
-22.9146

>  <SCORE.INTER>
-10.2694

>  <SCORE.INTER.CONST>
1

>  <SCORE.INTER.POLAR>
-1.93896

>  <SCORE.INTER.ROT>
15

>  <SCORE.INTER.SOLV>
15.2497

>  <SCORE.INTER.VDW>
-19.0663

>  <SCORE.INTER.norm>
-0.197489

>  <SCORE.INTRA>
-12.6452

>  <SCORE.INTRA.DIHEDRAL>
-30.3178

>  <SCORE.INTRA.DIHEDRAL.0>
47.8724

>  <SCORE.INTRA.POLAR>
0

>  <SCORE.INTRA.POLAR.0>
0

>  <SCORE.INTRA.REPUL>
0.0944885

>  <SCORE.INTRA.REPUL.0>
0

>  <SCORE.INTRA.SOLV>
-0.85032

>  <SCORE.INTRA.SOLV.lig_0>
-115.677

>  <SCORE.INTRA.VDW>
2.46645

>  <SCORE.INTRA.VDW.0>
-7.4833

>  <SCORE.INTRA.norm>
-0.243176

>  <SCORE.RESTR>
0

>  <SCORE.RESTR.CAVITY>
0

>  <SCORE.RESTR.norm>
0

>  <SCORE.SYSTEM>
0

>  <SCORE.SYSTEM.CONST>
0

>  <SCORE.SYSTEM.DIHEDRAL>
0

>  <SCORE.SYSTEM.SOLV>
0

>  <SCORE.SYSTEM.norm>
0

>  <SCORE.heavy>
52

>  <SCORE.norm>
-0.440665

>  <RMSD>
6.584

$$$$
2be0_lig
 OpenBabel11021811423D
libRbt.so/2013.1/901 2013/11/27
 52 56  0  0  0  0  0  0  0  0999 V2000
   47.0494    1.9796   -6.7815 C   0  0  2  0  0  0  0  0  0  0  0  0
   47.5429    2.6636   -7.9090 O   0  0  0  0  0  0  0  0  0  0  0  0
   45.4290    3.7493  -11.6136 C   0  0  2  0  0  0  0  0  0  0  0  0
   44.7751    3.5970  -12.9435 N   0  0  0  0  0  0  0  0  0  0  0  0
   43.4530    2.6054   -7.6931 C   0  0  2  0  0  0  0  0  0  0  0  0
   43.3366    3.9244   -7.1213 O   0  0  0  0  0  0  0  0  0  0  0  0
   43.6993    2.3473   -2.9050 C   0  0  1  0  0  0  0  0  0  0  0  0
   39.3607    1.3660  -10.7250 C   0  0  0  0  0  0  0  0  0  0  0  0
   48.0155    2.1503   -5.5392 C   0  0  2  0  0  0  0  0  0  0  0  0
   48.2493    3.5734   -5.2852 N   0  0  0  0  0  0  0  0  0  0  0  0
   46.9242    3.1967  -11.7000 C   0  0  0  0  0  0  0  0  0  0  0  0
   42.9714    1.6141   -6.6216 C   0  0  2  0  0  0  0  0  0  0  0  0
   41.4883    1.5854   -6.8133 O   0  0  0  0  0  0  0  0  0  0  0  0
   43.1193    1.4354   -1.6911 C   0  0  2  0  0  0  0  0  0  0  0  0
   41.6329    1.6139   -1.6240 N   0  0  0  0  0  0  0  0  0  0  0  0
   40.4298    1.4643  -11.6750 C   0  0  0  0  0  0  0  0  0  0  0  0
   40.1892    1.1538  -13.0390 N   0  0  0  0  0  0  0  0  0  0  0  0
   49.3785    1.3583   -5.8056 C   0  0  1  0  0  0  0  0  0  0  0  0
   50.2323    1.5301   -4.6851 O   0  0  0  0  0  0  0  0  0  0  0  0
   47.6735    3.3329  -10.2544 C   0  0  2  0  0  0  0  0  0  0  0  0
   49.0208    2.8411  -10.3193 N   0  0  0  0  0  0  0  0  0  0  0  0
   43.5694    2.3011   -5.3793 C   0  0  2  0  0  0  0  0  0  0  0  0
   43.0566    1.9074   -4.1150 O   0  0  0  0  0  0  0  0  0  0  0  0
   43.7971    1.9102   -0.3704 C   0  0  1  0  0  0  0  0  0  0  0  0
   45.2402    1.6750   -0.5421 O   0  0  0  0  0  0  0  0  0  0  0  0
   38.9172    0.7391  -13.5271 C   0  0  0  0  0  0  0  0  0  0  0  0
   49.0402   -0.1407   -6.0519 C   0  0  2  0  0  0  0  0  0  0  0  0
   50.2696   -0.9290   -6.3099 O   0  0  0  0  0  0  0  0  0  0  0  0
   46.8673    2.5283   -9.1534 C   0  0  2  0  0  0  0  0  0  0  0  0
   43.3941    3.8078   -5.6848 C   0  0  1  0  0  0  0  0  0  0  0  0
   43.4841    3.4866   -0.1198 C   0  0  2  0  0  0  0  0  0  0  0  0
   42.0433    3.7292    0.0523 O   0  0  0  0  0  0  0  0  0  0  0  0
   37.8225    0.6248  -12.6353 C   0  0  0  0  0  0  0  0  0  0  0  0
   48.0773   -0.2901   -7.2920 C   0  0  2  0  0  0  0  0  0  0  0  0
   46.8992    0.5039   -6.9812 O   0  0  0  0  0  0  0  0  0  0  0  0
   45.4079    3.1010   -9.1167 C   0  0  2  0  0  0  0  0  0  0  0  0
   44.7884    2.3239   -8.0990 O   0  0  0  0  0  0  0  0  0  0  0  0
   44.5871    4.6399   -5.2174 C   0  0  0  0  0  0  0  0  0  0  0  0
   44.5546    6.0004   -5.5770 O   0  0  0  0  0  0  0  0  0  0  0  0
   44.0268    4.3392   -1.3573 C   0  0  1  0  0  0  0  0  0  0  0  0
   43.3797    3.8149   -2.6226 O   0  0  0  0  0  0  0  0  0  0  0  0
   38.0220    0.9368  -11.2010 C   0  0  0  0  0  0  0  0  0  0  0  0
   47.7771   -1.7209   -7.4614 C   0  0  0  0  0  0  0  0  0  0  0  0
   47.1789   -2.1851   -6.3571 O   0  0  0  0  0  0  0  0  0  0  0  0
   44.7005    2.9249  -10.5259 C   0  0  1  0  0  0  0  0  0  0  0  0
   43.4129    3.4462  -10.4801 O   0  0  0  0  0  0  0  0  0  0  0  0
   40.4841    0.7725   -6.0872 C   0  0  0  0  0  0  0  0  0  0  0  0
   43.6914    5.8277   -1.0687 C   0  0  0  0  0  0  0  0  0  0  0  0
   44.3014    6.6855   -2.0540 N   0  0  0  0  0  0  0  0  0  0  0  0
   39.1306    1.0147   -6.7630 C   0  0  0  0  0  0  0  0  0  0  0  0
   39.2133    0.6110   -8.2042 N   0  0  0  0  0  0  0  0  0  0  0  0
   39.6614    1.7249   -9.1884 C   0  0  0  0  0  0  0  0  0  0  0  0
  1  2  1  6  0  0  0
  1  9  1  0  0  0  0
  1 35  1  0  0  0  0
  3  4  1  6  0  0  0
  3 11  1  0  0  0  0
  3 45  1  0  0  0  0
  5  6  1  0  0  0  0
  5 12  1  0  0  0  0
  5 37  1  1  0  0  0
  6 30  1  0  0  0  0
  7 14  1  0  0  0  0
  7 41  1  0  0  0  0
  7 23  1  6  0  0  0
  8 16  2  0  0  0  0
  8 42  1  0  0  0  0
  9 10  1  6  0  0  0
  9 18  1  0  0  0  0
 11 20  1  0  0  0  0
 12 13  1  1  0  0  0
 12 22  1  0  0  0  0
 13 47  1  0  0  0  0
 14 15  1  1  0  0  0
 14 24  1  0  0  0  0
 16 17  1  0  0  0  0
 17 26  2  0  0  0  0
 18 19  1  1  0  0  0
 18 27  1  0  0  0  0
 20 21  1  6  0  0  0
 20 29  1  0  0  0  0
 22 23  1  1  0  0  0
 22 30  1  0  0  0  0
 24 25  1  6  0  0  0
 24 31  1  0  0  0  0
 26 33  1  0  0  0  0
 27 28  1  6  0  0  0
 27 34  1  0  0  0  0
 29  2  1  1  0  0  0
 29 36  1  0  0  0  0
 30 38  1  6  0  0  0
 31 32  1  6  0  0  0
 31 40  1  0  0  0  0
 33 42  2  0  0  0  0
 34 35  1  0  0  0  0
 34 43  1  1  0  0  0
 36 37  1  1  0  0  0
 36 45  1  0  0  0  0
 38 39  1  0  0  0  0
 40 41  1  0  0  0  0
 40 48  1  1  0  0  0
 43 44  1  0  0  0  0
 45 46  1  1  0  0  0
 47 50  1  0  0  0  0
 48 49  1  0  0  0  0
 50 51  1  0  0  0  0
 51 52  1  0  0  0  0
 52  8  1  0  0  0  0
M  END
>  <CHROM.1>
174.58014775,-62.76028718,-165.75417871,178.07096834,-174.39440663,170.47475734
-176.99963248,57.87956165,60.25540348,175.72023705,172.50301538,59.34933060
-89.60861452,-164.68166245,-127.95946027,44.29579617,2.21836440,-6.70621667
-1.16208389,0.06758691,-1.72144571

>  <Name>
2be0_lig

>  <RI>
3.37048e+07

>  <Rbt.Current_Directory>
/home/itssahil/PROJECTS/Mol_Feturizer/New_Systems/rnas/2be0

>  <Rbt.Executable>
rbdock ($Id: //depot/dev/client3/rdock/2013.1/src/exe/rbdock.cxx#4 $)

>  <Rbt.Library>
libRbt.so (2013.1, Build901 2013/11/27)

>  <Rbt.Parameter_File>
/export/apps/rDock/src/rDock_2013.1_src/data/scripts/dock_solv.prm

>  <Rbt.Receptor>
prm/pocket_docking_8.prm

>  <SCORE>
-22.2747

>  <SCORE.INTER>
-0.489133

>  <SCORE.INTER.CONST>
1

>  <SCORE.INTER.POLAR>
-0.894427

>  <SCORE.INTER.ROT>
15

>  <SCORE.INTER.SOLV>
12.7486

>  <SCORE.INTER.VDW>
-15.1942

>  <SCORE.INTER.norm>
-0.00940641

>  <SCORE.INTRA>
-21.7856

>  <SCORE.INTRA.DIHEDRAL>
-43.8001

>  <SCORE.INTRA.DIHEDRAL.0>
47.8724

>  <SCORE.INTRA.POLAR>
0

>  <SCORE.INTRA.POLAR.0>
0

>  <SCORE.INTRA.REPUL>
0

>  <SCORE.INTRA.REPUL.0>
0

>  <SCORE.INTRA.SOLV>
-2.45972

>  <SCORE.INTRA.SOLV.lig_0>
-115.677

>  <SCORE.INTRA.VDW>
1.34432

>  <SCORE.INTRA.VDW.0>
-7.4833

>  <SCORE.INTRA.norm>
-0.418953

>  <SCORE.RESTR>
0

>  <SCORE.RESTR.CAVITY>
0

>  <SCORE.RESTR.norm>
0

>  <SCORE.SYSTEM>
0

>  <SCORE.SYSTEM.CONST>
0

>  <SCORE.SYSTEM.DIHEDRAL>
0

>  <SCORE.SYSTEM.SOLV>
0

>  <SCORE.SYSTEM.norm>
0

>  <SCORE.heavy>
52

>  <SCORE.norm>
-0.42836

>  <RMSD>
6.584

$$$$
2be0_lig
 OpenBabel11021811423D
libRbt.so/2013.1/901 2013/11/27
 52 56  0  0  0  0  0  0  0  0999 V2000
   42.7970    5.9571   -0.8055 C   0  0  2  0  0  0  0  0  0  0  0  0
   42.6714    5.5725   -2.1542 O   0  0  0  0  0  0  0  0  0  0  0  0
   45.2076    5.0863   -5.7182 C   0  0  2  0  0  0  0  0  0  0  0  0
   46.4124    5.1446   -6.5926 N   0  0  0  0  0  0  0  0  0  0  0  0
   43.2837    2.6430   -1.8059 C   0  0  2  0  0  0  0  0  0  0  0  0
   43.6520    1.2748   -1.5362 O   0  0  0  0  0  0  0  0  0  0  0  0
   40.9118    1.4960   -5.5280 C   0  0  1  0  0  0  0  0  0  0  0  0
   40.1188   -2.2659   -2.6524 C   0  0  0  0  0  0  0  0  0  0  0  0
   41.3928    5.9521   -0.0747 C   0  0  2  0  0  0  0  0  0  0  0  0
   40.7544    4.6442   -0.2372 N   0  0  0  0  0  0  0  0  0  0  0  0
   44.8722    6.5557   -5.1920 C   0  0  0  0  0  0  0  0  0  0  0  0
   42.0719    2.5976   -2.7505 C   0  0  2  0  0  0  0  0  0  0  0  0
   40.9095    2.4496   -1.8208 O   0  0  0  0  0  0  0  0  0  0  0  0
   42.0470    1.6017   -6.6863 C   0  0  2  0  0  0  0  0  0  0  0  0
   43.2328    2.3310   -6.1316 N   0  0  0  0  0  0  0  0  0  0  0  0
   38.9001   -2.1665   -3.4005 C   0  0  0  0  0  0  0  0  0  0  0  0
   38.5024   -3.2379   -4.2425 N   0  0  0  0  0  0  0  0  0  0  0  0
   40.4846    7.1364   -0.6477 C   0  0  1  0  0  0  0  0  0  0  0  0
   39.2294    7.1097    0.0140 O   0  0  0  0  0  0  0  0  0  0  0  0
   43.5623    6.5331   -4.2155 C   0  0  2  0  0  0  0  0  0  0  0  0
   43.2486    7.8499   -3.7369 N   0  0  0  0  0  0  0  0  0  0  0  0
   42.5039    1.4097   -3.6309 C   0  0  2  0  0  0  0  0  0  0  0  0
   41.4973    0.7910   -4.4186 O   0  0  0  0  0  0  0  0  0  0  0  0
   41.4308    2.3757   -7.8906 C   0  0  1  0  0  0  0  0  0  0  0  0
   40.2945    1.5663   -8.3607 O   0  0  0  0  0  0  0  0  0  0  0  0
   39.2644   -4.4319   -4.3902 C   0  0  0  0  0  0  0  0  0  0  0  0
   41.2292    8.4845   -0.4235 C   0  0  2  0  0  0  0  0  0  0  0  0
   40.4344    9.6247   -0.9404 O   0  0  0  0  0  0  0  0  0  0  0  0
   43.8256    5.5702   -2.9855 C   0  0  2  0  0  0  0  0  0  0  0  0
   43.1909    0.4525   -2.6280 C   0  0  1  0  0  0  0  0  0  0  0  0
   40.9430    3.8519   -7.4122 C   0  0  2  0  0  0  0  0  0  0  0  0
   42.0736    4.6666   -6.9405 O   0  0  0  0  0  0  0  0  0  0  0  0
   40.4773   -4.5876   -3.6750 C   0  0  0  0  0  0  0  0  0  0  0  0
   42.6248    8.4700   -1.1580 C   0  0  2  0  0  0  0  0  0  0  0  0
   43.3514    7.3341   -0.6134 O   0  0  0  0  0  0  0  0  0  0  0  0
   44.1598    4.1481   -3.5556 C   0  0  2  0  0  0  0  0  0  0  0  0
   44.3623    3.3749   -2.3789 O   0  0  0  0  0  0  0  0  0  0  0  0
   44.4218   -0.2295   -3.2229 C   0  0  0  0  0  0  0  0  0  0  0  0
   45.1009   -1.1118   -2.3617 O   0  0  0  0  0  0  0  0  0  0  0  0
   39.8657    3.7020   -6.2417 C   0  0  1  0  0  0  0  0  0  0  0  0
   40.4890    2.9051   -5.1143 O   0  0  0  0  0  0  0  0  0  0  0  0
   40.9367   -3.4975   -2.7834 C   0  0  0  0  0  0  0  0  0  0  0  0
   43.2884    9.7567   -0.8929 C   0  0  0  0  0  0  0  0  0  0  0  0
   44.0525   10.0889   -1.9409 O   0  0  0  0  0  0  0  0  0  0  0  0
   45.4530    4.2012   -4.4734 C   0  0  1  0  0  0  0  0  0  0  0  0
   45.7297    2.9364   -4.9787 O   0  0  0  0  0  0  0  0  0  0  0  0
   39.4679    2.3790   -2.1572 C   0  0  0  0  0  0  0  0  0  0  0  0
   39.4469    5.1366   -5.8199 C   0  0  0  0  0  0  0  0  0  0  0  0
   40.6074    5.9320   -5.5048 N   0  0  0  0  0  0  0  0  0  0  0  0
   39.1830    0.9510   -2.6335 C   0  0  0  0  0  0  0  0  0  0  0  0
   39.4028   -0.0058   -1.5008 N   0  0  0  0  0  0  0  0  0  0  0  0
   40.5433   -1.0388   -1.7066 C   0  0  0  0  0  0  0  0  0  0  0  0
  1  2  1  6  0  0  0
  1  9  1  0  0  0  0
  1 35  1  0  0  0  0
  3  4  1  6  0  0  0
  3 11  1  0  0  0  0
  3 45  1  0  0  0  0
  5  6  1  0  0  0  0
  5 12  1  0  0  0  0
  5 37  1  6  0  0  0
  6 30  1  0  0  0  0
  7 14  1  0  0  0  0
  7 41  1  0  0  0  0
  7 23  1  1  0  0  0
  8 16  2  0  0  0  0
  8 42  1  0  0  0  0
  9 10  1  6  0  0  0
  9 18  1  0  0  0  0
 11 20  1  0  0  0  0
 12 13  1  1  0  0  0
 12 22  1  0  0  0  0
 13 47  1  0  0  0  0
 14 15  1  1  0  0  0
 14 24  1  0  0  0  0
 16 17  1  0  0  0  0
 17 26  2  0  0  0  0
 18 19  1  1  0  0  0
 18 27  1  0  0  0  0
 20 21  1  1  0  0  0
 20 29  1  0  0  0  0
 22 23  1  1  0  0  0
 22 30  1  0  0  0  0
 24 25  1  1  0  0  0
 24 31  1  0  0  0  0
 26 33  1  0  0  0  0
 27 28  1  6  0  0  0
 27 34  1  0  0  0  0
 29  2  1  1  0  0  0
 29 36  1  0  0  0  0
 30 38  1  6  0  0  0
 31 32  1  1  0  0  0
 31 40  1  0  0  0  0
 33 42  2  0  0  0  0
 34 35  1  0  0  0  0
 34 43  1  1  0  0  0
 36 37  1  1  0  0  0
 36 45  1  0  0  0  0
 38 39  1  0  0  0  0
 40 41  1  0  0  0  0
 40 48  1  1  0  0  0
 43 44  1  0  0  0  0
 45 46  1  6  0  0  0
 47 50  1  0  0  0  0
 48 49  1  0  0  0  0
 50 51  1  0  0  0  0
 51 52  1  0  0  0  0
 52  8  1  0  0  0  0
M  END
>  <CHROM.1>
177.51935016,130.42557138,70.34995445,178.61482076,79.25555469,68.72251513
-121.89948645,63.47993293,-148.48407633,93.14471339,-53.03943338,64.89514152
-116.61692363,-78.48432342,12.15707183,42.01859836,3.32020448,-3.42003001
1.16433545,1.01148948,0.54418041

>  <Name>
2be0_lig

>  <RI>
0

>  <Rbt.Current_Directory>
/home/itssahil/PROJECTS/Mol_Feturizer/New_Systems/rnas/2be0

>  <Rbt.Executable>
rbdock ($Id: //depot/dev/client3/rdock/2013.1/src/exe/rbdock.cxx#4 $)

>  <Rbt.Library>
libRbt.so (2013.1, Build901 2013/11/27)

>  <Rbt.Parameter_File>
/export/apps/rDock/src/rDock_2013.1_src/data/scripts/dock_solv.prm

>  <Rbt.Receptor>
prm/pocket_docking_4.prm

>  <SCORE>
-6.48101

>  <SCORE.INTER>
-2.66076

>  <SCORE.INTER.CONST>
1

>  <SCORE.INTER.POLAR>
-0.979796

>  <SCORE.INTER.ROT>
15

>  <SCORE.INTER.SOLV>
7.24412

>  <SCORE.INTER.VDW>
-14.5226

>  <SCORE.INTER.norm>
-0.0511684

>  <SCORE.INTRA>
-3.84732

>  <SCORE.INTRA.DIHEDRAL>
-21.4587

>  <SCORE.INTRA.DIHEDRAL.0>
47.8724

>  <SCORE.INTRA.POLAR>
0

>  <SCORE.INTRA.POLAR.0>
0

>  <SCORE.INTRA.REPUL>
0.0580615

>  <SCORE.INTRA.REPUL.0>
0

>  <SCORE.INTRA.SOLV>
13.9975

>  <SCORE.INTRA.SOLV.lig_0>
-115.677

>  <SCORE.INTRA.VDW>
-0.407002

>  <SCORE.INTRA.VDW.0>
-7.4833

>  <SCORE.INTRA.norm>
-0.0739868

>  <SCORE.RESTR>
0.0270664

>  <SCORE.RESTR.CAVITY>
0.0270664

>  <SCORE.RESTR.norm>
0.000520508

>  <SCORE.SYSTEM>
0

>  <SCORE.SYSTEM.CONST>
0

>  <SCORE.SYSTEM.DIHEDRAL>
0

>  <SCORE.SYSTEM.SOLV>
0

>  <SCORE.SYSTEM.norm>
0

>  <SCORE.heavy>
52

>  <SCORE.norm>
-0.124635

>  <RMSD>
6.645

$$$$
2be0_lig
 OpenBabel11021811423D
libRbt.so/2013.1/901 2013/11/27
 52 56  0  0  0  0  0  0  0  0999 V2000
   44.9519   10.1705   -7.9500 C   0  0  2  0  0  0  0  0  0  0  0  0
   43.9664    9.6662   -8.8202 O   0  0  0  0  0  0  0  0  0  0  0  0
   42.1663    5.7712   -9.7999 C   0  0  2  0  0  0  0  0  0  0  0  0
   42.0413    4.2983   -9.9856 N   0  0  0  0  0  0  0  0  0  0  0  0
   43.5880    7.1671   -5.9537 C   0  0  2  0  0  0  0  0  0  0  0  0
   42.7171    6.1283   -5.4610 O   0  0  0  0  0  0  0  0  0  0  0  0
   42.2428    7.4798   -1.4771 C   0  0  1  0  0  0  0  0  0  0  0  0
   50.3989    4.9072   -5.9636 C   0  0  0  0  0  0  0  0  0  0  0  0
   45.9123   11.1831   -8.6969 C   0  0  2  0  0  0  0  0  0  0  0  0
   45.1213   12.2378   -9.3344 N   0  0  0  0  0  0  0  0  0  0  0  0
   43.3948    6.3051  -10.6682 C   0  0  0  0  0  0  0  0  0  0  0  0
   44.1636    7.8838   -4.7218 C   0  0  2  0  0  0  0  0  0  0  0  0
   45.3452    7.0453   -4.3499 O   0  0  0  0  0  0  0  0  0  0  0  0
   41.0941    8.5519   -1.0619 C   0  0  2  0  0  0  0  0  0  0  0  0
   41.7569    9.7720   -0.4982 N   0  0  0  0  0  0  0  0  0  0  0  0
   51.0272    4.4568   -4.7565 C   0  0  0  0  0  0  0  0  0  0  0  0
   52.4322    4.5893   -4.6033 N   0  0  0  0  0  0  0  0  0  0  0  0
   46.8131   10.3898   -9.7530 C   0  0  1  0  0  0  0  0  0  0  0  0
   47.6603   11.3153  -10.4162 O   0  0  0  0  0  0  0  0  0  0  0  0
   43.5752    7.9182  -10.4807 C   0  0  2  0  0  0  0  0  0  0  0  0
   44.6763    8.4116  -11.2589 N   0  0  0  0  0  0  0  0  0  0  0  0
   42.9058    7.8710   -3.8327 C   0  0  2  0  0  0  0  0  0  0  0  0
   43.0930    8.1180   -2.4469 O   0  0  0  0  0  0  0  0  0  0  0  0
   40.1726    7.8785   -0.0006 C   0  0  1  0  0  0  0  0  0  0  0  0
   39.5673    6.7118   -0.6637 O   0  0  0  0  0  0  0  0  0  0  0  0
   53.2713    5.1557   -5.6049 C   0  0  0  0  0  0  0  0  0  0  0  0
   47.6260    9.3022   -8.9924 C   0  0  2  0  0  0  0  0  0  0  0  0
   48.4812    8.5275   -9.9238 O   0  0  0  0  0  0  0  0  0  0  0  0
   43.8114    8.2583   -8.9516 C   0  0  2  0  0  0  0  0  0  0  0  0
   42.2625    6.4985   -4.1430 C   0  0  1  0  0  0  0  0  0  0  0  0
   41.0500    7.4297    1.2935 C   0  0  2  0  0  0  0  0  0  0  0  0
   41.6584    8.5909    1.9612 O   0  0  0  0  0  0  0  0  0  0  0  0
   52.7067    5.6193   -6.8187 C   0  0  0  0  0  0  0  0  0  0  0  0
   46.6526    8.3042   -8.2549 C   0  0  2  0  0  0  0  0  0  0  0  0
   45.8430    9.1203   -7.3642 O   0  0  0  0  0  0  0  0  0  0  0  0
   42.5859    7.7050   -8.1447 C   0  0  2  0  0  0  0  0  0  0  0  0
   42.8958    8.0734   -6.8063 O   0  0  0  0  0  0  0  0  0  0  0  0
   40.7375    6.5693   -4.2011 C   0  0  0  0  0  0  0  0  0  0  0  0
   40.1893    6.7818   -5.4800 O   0  0  0  0  0  0  0  0  0  0  0  0
   42.1956    6.4157    0.8328 C   0  0  1  0  0  0  0  0  0  0  0  0
   43.0367    7.0919   -0.2302 O   0  0  0  0  0  0  0  0  0  0  0  0
   51.2449    5.5027   -7.0278 C   0  0  0  0  0  0  0  0  0  0  0  0
   47.4757    7.3162   -7.5390 C   0  0  0  0  0  0  0  0  0  0  0  0
   48.2023    6.6181   -8.4207 O   0  0  0  0  0  0  0  0  0  0  0  0
   42.4590    6.1337   -8.3246 C   0  0  1  0  0  0  0  0  0  0  0  0
   41.3633    5.6605   -7.6125 O   0  0  0  0  0  0  0  0  0  0  0  0
   45.6260    5.6383   -4.7211 C   0  0  0  0  0  0  0  0  0  0  0  0
   43.0038    6.0323    2.1022 C   0  0  0  0  0  0  0  0  0  0  0  0
   44.3067    5.5308    1.7418 N   0  0  0  0  0  0  0  0  0  0  0  0
   47.0663    5.3361   -4.2952 C   0  0  0  0  0  0  0  0  0  0  0  0
   48.0123    5.8382   -5.3439 N   0  0  0  0  0  0  0  0  0  0  0  0
   48.8072    4.7460   -6.1090 C   0  0  0  0  0  0  0  0  0  0  0  0
  1  2  1  6  0  0  0
  1  9  1  0  0  0  0
  1 35  1  0  0  0  0
  3  4  1  1  0  0  0
  3 11  1  0  0  0  0
  3 45  1  0  0  0  0
  5  6  1  0  0  0  0
  5 12  1  0  0  0  0
  5 37  1  6  0  0  0
  6 30  1  0  0  0  0
  7 14  1  0  0  0  0
  7 41  1  0  0  0  0
  7 23  1  6  0  0  0
  8 16  2  0  0  0  0
  8 42  1  0  0  0  0
  9 10  1  6  0  0  0
  9 18  1  0  0  0  0
 11 20  1  0  0  0  0
 12 13  1  1  0  0  0
 12 22  1  0  0  0  0
 13 47  1  0  0  0  0
 14 15  1  1  0  0  0
 14 24  1  0  0  0  0
 16 17  1  0  0  0  0
 17 26  2  0  0  0  0
 18 19  1  1  0  0  0
 18 27  1  0  0  0  0
 20 21  1  6  0  0  0
 20 29  1  0  0  0  0
 22 23  1  1  0  0  0
 22 30  1  0  0  0  0
 24 25  1  6  0  0  0
 24 31  1  0  0  0  0
 26 33  1  0  0  0  0
 27 28  1  6  0  0  0
 27 34  1  0  0  0  0
 29  2  1  6  0  0  0
 29 36  1  0  0  0  0
 30 38  1  6  0  0  0
 31 32  1  6  0  0  0
 31 40  1  0  0  0  0
 33 42  2  0  0  0  0
 34 35  1  0  0  0  0
 34 43  1  1  0  0  0
 36 37  1  1  0  0  0
 36 45  1  0  0  0  0
 38 39  1  0  0  0  0
 40 41  1  0  0  0  0
 40 48  1  1  0  0  0
 43 44  1  0  0  0  0
 45 46  1  1  0  0  0
 47 50  1  0  0  0  0
 48 49  1  0  0  0  0
 50 51  1  0  0  0  0
 51 52  1  0  0  0  0
 52  8  1  0  0  0  0
M  END
>  <CHROM.1>
126.05903010,-76.81154524,-98.46265133,-19.97970444,170.27675981,-147.12455248
-138.79059653,-23.09144504,-62.43484196,-92.76524718,-159.35769490,-82.23586268
-113.51647269,-120.90993746,78.76081357,44.81526832,7.32719951,-5.55155510
0.90146906,0.23396027,-1.34370387

>  <Name>
2be0_lig

>  <RI>
224

>  <Rbt.Current_Directory>
/home/itssahil/PROJECTS/Mol_Feturizer/New_Systems/rnas/2be0

>  <Rbt.Executable>
rbdock ($Id: //depot/dev/client3/rdock/2013.1/src/exe/rbdock.cxx#4 $)

>  <Rbt.Library>
libRbt.so (2013.1, Build901 2013/11/27)

>  <Rbt.Parameter_File>
/export/apps/rDock/src/rDock_2013.1_src/data/scripts/dock_solv.prm

>  <Rbt.Receptor>
prm/blind_docking_100.prm

>  <SCORE>
0.657326

>  <SCORE.INTER>
-6.62526

>  <SCORE.INTER.CONST>
1

>  <SCORE.INTER.POLAR>
-1.58356

>  <SCORE.INTER.ROT>
15

>  <SCORE.INTER.SOLV>
37.9101

>  <SCORE.INTER.VDW>
-25.375

>  <SCORE.INTER.norm>
-0.127409

>  <SCORE.INTRA>
3.86619

>  <SCORE.INTRA.DIHEDRAL>
-5.11238

>  <SCORE.INTRA.DIHEDRAL.0>
47.8724

>  <SCORE.INTRA.POLAR>
0

>  <SCORE.INTRA.POLAR.0>
0

>  <SCORE.INTRA.REPUL>
0.00447971

>  <SCORE.INTRA.REPUL.0>
0

>  <SCORE.INTRA.SOLV>
2.48174

>  <SCORE.INTRA.SOLV.lig_0>
-115.677

>  <SCORE.INTRA.VDW>
5.15911

>  <SCORE.INTRA.VDW.0>
-7.4833

>  <SCORE.INTRA.norm>
0.0743497

>  <SCORE.RESTR>
3.4164

>  <SCORE.RESTR.CAVITY>
3.4164

>  <SCORE.RESTR.norm>
0.0657

>  <SCORE.SYSTEM>
0

>  <SCORE.SYSTEM.CONST>
0

>  <SCORE.SYSTEM.DIHEDRAL>
0

>  <SCORE.SYSTEM.SOLV>
0

>  <SCORE.SYSTEM.norm>
0

>  <SCORE.heavy>
52

>  <SCORE.norm>
0.0126409

>  <RMSD>
6.653

$$$$
2be0_lig
 OpenBabel11021811423D
libRbt.so/2013.1/901 2013/11/27
 52 56  0  0  0  0  0  0  0  0999 V2000
   44.4188    7.2710   -7.3185 C   0  0  2  0  0  0  0  0  0  0  0  0
   45.3500    6.3842   -7.8925 O   0  0  0  0  0  0  0  0  0  0  0  0
   49.3790    4.8400   -7.0248 C   0  0  2  0  0  0  0  0  0  0  0  0
   50.6314    4.5526   -6.2707 N   0  0  0  0  0  0  0  0  0  0  0  0
   45.2521    4.4401   -5.2571 C   0  0  2  0  0  0  0  0  0  0  0  0
   46.2077    4.0953   -4.2331 O   0  0  0  0  0  0  0  0  0  0  0  0
   42.2655    1.3398   -3.9273 C   0  0  1  0  0  0  0  0  0  0  0  0
   39.5776    7.8289    0.0130 C   0  0  0  0  0  0  0  0  0  0  0  0
   43.0525    7.2639   -8.1177 C   0  0  2  0  0  0  0  0  0  0  0  0
   42.5459    5.8937   -8.2209 N   0  0  0  0  0  0  0  0  0  0  0  0
   49.1356    6.4174   -7.0519 C   0  0  0  0  0  0  0  0  0  0  0  0
   43.9102    3.8188   -4.8380 C   0  0  2  0  0  0  0  0  0  0  0  0
   43.3223    4.8430   -3.9200 O   0  0  0  0  0  0  0  0  0  0  0  0
   41.5043    0.5718   -2.7140 C   0  0  2  0  0  0  0  0  0  0  0  0
   42.3358   -0.6011   -2.2912 N   0  0  0  0  0  0  0  0  0  0  0  0
   38.9158    9.0987    0.0795 C   0  0  0  0  0  0  0  0  0  0  0  0
   38.3055    9.5109    1.2930 N   0  0  0  0  0  0  0  0  0  0  0  0
   43.2667    7.9322   -9.5541 C   0  0  1  0  0  0  0  0  0  0  0  0
   42.0337    7.9092  -10.2565 O   0  0  0  0  0  0  0  0  0  0  0  0
   47.7608    6.7746   -7.8595 C   0  0  2  0  0  0  0  0  0  0  0  0
   47.5314    8.1915   -7.8931 N   0  0  0  0  0  0  0  0  0  0  0  0
   44.4351    2.4888   -4.2650 C   0  0  2  0  0  0  0  0  0  0  0  0
   43.5520    1.7521   -3.4319 O   0  0  0  0  0  0  0  0  0  0  0  0
   40.1130    0.1068   -3.2407 C   0  0  1  0  0  0  0  0  0  0  0  0
   39.3832    1.3313   -3.6084 O   0  0  0  0  0  0  0  0  0  0  0  0
   38.3124    8.7148    2.4738 C   0  0  0  0  0  0  0  0  0  0  0  0
   43.7912    9.3835   -9.3519 C   0  0  2  0  0  0  0  0  0  0  0  0
   44.0137   10.0561  -10.6547 O   0  0  0  0  0  0  0  0  0  0  0  0
   46.5300    6.0539   -7.1702 C   0  0  2  0  0  0  0  0  0  0  0  0
   45.7573    2.8952   -3.5717 C   0  0  1  0  0  0  0  0  0  0  0  0
   40.3034   -0.8724   -4.5255 C   0  0  2  0  0  0  0  0  0  0  0  0
   41.0326   -2.0984   -4.1655 O   0  0  0  0  0  0  0  0  0  0  0  0
   38.9521    7.4508    2.4686 C   0  0  0  0  0  0  0  0  0  0  0  0
   45.1516    9.3697   -8.5540 C   0  0  2  0  0  0  0  0  0  0  0  0
   44.8701    8.6978   -7.2954 O   0  0  0  0  0  0  0  0  0  0  0  0
   46.8236    4.5135   -7.1596 C   0  0  2  0  0  0  0  0  0  0  0  0
   45.6631    3.9744   -6.5384 O   0  0  0  0  0  0  0  0  0  0  0  0
   46.8555    1.8483   -3.7516 C   0  0  0  0  0  0  0  0  0  0  0  0
   48.1717    2.3148   -3.5755 O   0  0  0  0  0  0  0  0  0  0  0  0
   41.0973   -0.0944   -5.6733 C   0  0  1  0  0  0  0  0  0  0  0  0
   42.4196    0.3795   -5.1062 O   0  0  0  0  0  0  0  0  0  0  0  0
   39.6034    6.9745    1.2264 C   0  0  0  0  0  0  0  0  0  0  0  0
   45.5851   10.7649   -8.3757 C   0  0  0  0  0  0  0  0  0  0  0  0
   46.9209   10.8290   -8.4411 O   0  0  0  0  0  0  0  0  0  0  0  0
   48.1469    4.2002   -6.3422 C   0  0  1  0  0  0  0  0  0  0  0  0
   48.3987    2.8334   -6.3509 O   0  0  0  0  0  0  0  0  0  0  0  0
   42.0998    4.7375   -3.0889 C   0  0  0  0  0  0  0  0  0  0  0  0
   41.2583   -1.0778   -6.8643 C   0  0  0  0  0  0  0  0  0  0  0  0
   39.9686   -1.4845   -7.3644 N   0  0  0  0  0  0  0  0  0  0  0  0
   42.2028    5.8041   -1.9939 C   0  0  0  0  0  0  0  0  0  0  0  0
   40.8709    5.9621   -1.3247 N   0  0  0  0  0  0  0  0  0  0  0  0
   40.2608    7.3889   -1.3727 C   0  0  0  0  0  0  0  0  0  0  0  0
  1  2  1  6  0  0  0
  1  9  1  0  0  0  0
  1 35  1  0  0  0  0
  3  4  1  1  0  0  0
  3 11  1  0  0  0  0
  3 45  1  0  0  0  0
  5  6  1  0  0  0  0
  5 12  1  0  0  0  0
  5 37  1  6  0  0  0
  6 30  1  0  0  0  0
  7 14  1  0  0  0  0
  7 41  1  0  0  0  0
  7 23  1  1  0  0  0
  8 16  2  0  0  0  0
  8 42  1  0  0  0  0
  9 10  1  6  0  0  0
  9 18  1  0  0  0  0
 11 20  1  0  0  0  0
 12 13  1  1  0  0  0
 12 22  1  0  0  0  0
 13 47  1  0  0  0  0
 14 15  1  6  0  0  0
 14 24  1  0  0  0  0
 16 17  1  0  0  0  0
 17 26  2  0  0  0  0
 18 19  1  1  0  0  0
 18 27  1  0  0  0  0
 20 21  1  1  0  0  0
 20 29  1  0  0  0  0
 22 23  1  1  0  0  0
 22 30  1  0  0  0  0
 24 25  1  6  0  0  0
 24 31  1  0  0  0  0
 26 33  1  0  0  0  0
 27 28  1  6  0  0  0
 27 34  1  0  0  0  0
 29  2  1  6  0  0  0
 29 36  1  0  0  0  0
 30 38  1  6  0  0  0
 31 32  1  1  0  0  0
 31 40  1  0  0  0  0
 33 42  2  0  0  0  0
 34 35  1  0  0  0  0
 34 43  1  1  0  0  0
 36 37  1  1  0  0  0
 36 45  1  0  0  0  0
 38 39  1  0  0  0  0
 40 41  1  0  0  0  0
 40 48  1  6  0  0  0
 43 44  1  0  0  0  0
 45 46  1  6  0  0  0
 47 50  1  0  0  0  0
 48 49  1  0  0  0  0
 50 51  1  0  0  0  0
 51 52  1  0  0  0  0
 52  8  1  0  0  0  0
M  END
>  <CHROM.1>
-167.61815413,-66.00782818,-178.15723269,-172.75882450,160.24390578,57.51868889
-107.54865542,42.56893632,-144.78407931,-55.11264295,60.82191836,166.90991612
-121.74779427,-138.61754359,-176.81749293,43.68550268,4.85168870,-5.06688747
0.48463928,0.78453928,-0.05351438

>  <Name>
2be0_lig

>  <RI>
0

>  <Rbt.Current_Directory>
/home/itssahil/PROJECTS/Mol_Feturizer/New_Systems/rnas/2be0

>  <Rbt.Executable>
rbdock ($Id: //depot/dev/client3/rdock/2013.1/src/exe/rbdock.cxx#4 $)

>  <Rbt.Library>
libRbt.so (2013.1, Build901 2013/11/27)

>  <Rbt.Parameter_File>
/export/apps/rDock/src/rDock_2013.1_src/data/scripts/dock_solv.prm

>  <Rbt.Receptor>
prm/pocket_docking_2.prm

>  <SCORE>
-13.5646

>  <SCORE.INTER>
-6.32166

>  <SCORE.INTER.CONST>
1

>  <SCORE.INTER.POLAR>
-0.943492

>  <SCORE.INTER.ROT>
15

>  <SCORE.INTER.SOLV>
15.0069

>  <SCORE.INTER.VDW>
-19.6717

>  <SCORE.INTER.norm>
-0.12157

>  <SCORE.INTRA>
-12.5804

>  <SCORE.INTRA.DIHEDRAL>
-30.0949

>  <SCORE.INTRA.DIHEDRAL.0>
47.8724

>  <SCORE.INTRA.POLAR>
0

>  <SCORE.INTRA.POLAR.0>
0

>  <SCORE.INTRA.REPUL>
0

>  <SCORE.INTRA.REPUL.0>
0

>  <SCORE.INTRA.SOLV>
1.33363

>  <SCORE.INTRA.SOLV.lig_0>
-115.677

>  <SCORE.INTRA.VDW>
1.8003

>  <SCORE.INTRA.VDW.0>
-7.4833

>  <SCORE.INTRA.norm>
-0.24193

>  <SCORE.RESTR>
5.33737

>  <SCORE.RESTR.CAVITY>
5.33737

>  <SCORE.RESTR.norm>
0.102642

>  <SCORE.SYSTEM>
0

>  <SCORE.SYSTEM.CONST>
0

>  <SCORE.SYSTEM.DIHEDRAL>
0

>  <SCORE.SYSTEM.SOLV>
0

>  <SCORE.SYSTEM.norm>
0

>  <SCORE.heavy>
52

>  <SCORE.norm>
-0.260858

>  <RMSD>
6.700

$$$$
2be0_lig
 OpenBabel11021811423D
libRbt.so/2013.1/901 2013/11/27
 52 56  0  0  0  0  0  0  0  0999 V2000
   44.2846    2.6888   -2.4465 C   0  0  2  0  0  0  0  0  0  0  0  0
   43.6898    3.1648   -3.6307 O   0  0  0  0  0  0  0  0  0  0  0  0
   47.2764    4.5572   -5.7681 C   0  0  2  0  0  0  0  0  0  0  0  0
   48.1136    5.1883   -6.8265 N   0  0  0  0  0  0  0  0  0  0  0  0
   43.5149    6.4247   -4.1633 C   0  0  2  0  0  0  0  0  0  0  0  0
   43.5502    7.8613   -4.0405 O   0  0  0  0  0  0  0  0  0  0  0  0
   40.3304    7.9425   -0.9149 C   0  0  1  0  0  0  0  0  0  0  0  0
   42.0179    6.3822   -8.8320 C   0  0  0  0  0  0  0  0  0  0  0  0
   43.3682    1.6096   -1.7384 C   0  0  2  0  0  0  0  0  0  0  0  0
   43.0431    0.5389   -2.6831 N   0  0  0  0  0  0  0  0  0  0  0  0
   46.3615    3.4284   -6.4291 C   0  0  0  0  0  0  0  0  0  0  0  0
   42.1131    5.9764   -3.7200 C   0  0  2  0  0  0  0  0  0  0  0  0
   41.2913    6.1201   -4.9615 O   0  0  0  0  0  0  0  0  0  0  0  0
   38.8048    7.6435   -0.4409 C   0  0  2  0  0  0  0  0  0  0  0  0
   37.8763    7.9869   -1.5659 N   0  0  0  0  0  0  0  0  0  0  0  0
   42.6656    6.8409   -7.6383 C   0  0  0  0  0  0  0  0  0  0  0  0
   43.5316    7.9642   -7.6953 N   0  0  0  0  0  0  0  0  0  0  0  0
   42.0557    2.3156   -1.1596 C   0  0  1  0  0  0  0  0  0  0  0  0
   41.2454    1.3312   -0.5365 O   0  0  0  0  0  0  0  0  0  0  0  0
   45.4152    2.7197   -5.3012 C   0  0  2  0  0  0  0  0  0  0  0  0
   44.5884    1.7003   -5.8830 N   0  0  0  0  0  0  0  0  0  0  0  0
   41.9108    6.9581   -2.5503 C   0  0  2  0  0  0  0  0  0  0  0  0
   40.5833    7.1335   -2.0777 O   0  0  0  0  0  0  0  0  0  0  0  0
   38.5118    8.5241    0.8112 C   0  0  1  0  0  0  0  0  0  0  0  0
   39.4633    8.0925    1.8483 O   0  0  0  0  0  0  0  0  0  0  0  0
   43.8004    8.6756   -8.8993 C   0  0  0  0  0  0  0  0  0  0  0  0
   42.4907    3.4259   -0.1595 C   0  0  2  0  0  0  0  0  0  0  0  0
   41.3116    4.1220    0.4098 O   0  0  0  0  0  0  0  0  0  0  0  0
   44.5017    3.8102   -4.6041 C   0  0  2  0  0  0  0  0  0  0  0  0
   42.5719    8.2613   -3.0588 C   0  0  1  0  0  0  0  0  0  0  0  0
   38.7139   10.0961    0.4455 C   0  0  2  0  0  0  0  0  0  0  0  0
   37.7663   10.5345   -0.5910 O   0  0  0  0  0  0  0  0  0  0  0  0
   43.1881    8.2692  -10.1104 C   0  0  0  0  0  0  0  0  0  0  0  0
   43.4026    4.4903   -0.8828 C   0  0  2  0  0  0  0  0  0  0  0  0
   44.5328    3.7494   -1.4200 O   0  0  0  0  0  0  0  0  0  0  0  0
   45.4458    4.8971   -3.9825 C   0  0  2  0  0  0  0  0  0  0  0  0
   44.5305    5.8048   -3.3811 O   0  0  0  0  0  0  0  0  0  0  0  0
   43.3252    9.0019   -1.9551 C   0  0  0  0  0  0  0  0  0  0  0  0
   44.3982    8.2981   -1.3768 O   0  0  0  0  0  0  0  0  0  0  0  0
   40.2103   10.3355   -0.0609 C   0  0  1  0  0  0  0  0  0  0  0  0
   40.4673    9.4281   -1.2464 O   0  0  0  0  0  0  0  0  0  0  0  0
   42.2764    7.1018  -10.1042 C   0  0  0  0  0  0  0  0  0  0  0  0
   43.7982    5.4983    0.1139 C   0  0  0  0  0  0  0  0  0  0  0  0
   42.7528    6.2885    0.3886 O   0  0  0  0  0  0  0  0  0  0  0  0
   46.3270    5.5852   -5.1083 C   0  0  1  0  0  0  0  0  0  0  0  0
   47.1648    6.5377   -4.5405 O   0  0  0  0  0  0  0  0  0  0  0  0
   39.8595    5.7920   -5.1580 C   0  0  0  0  0  0  0  0  0  0  0  0
   40.3404   11.8444   -0.4044 C   0  0  0  0  0  0  0  0  0  0  0  0
   41.6980   12.1669   -0.7673 N   0  0  0  0  0  0  0  0  0  0  0  0
   39.6173    5.7070   -6.6685 C   0  0  0  0  0  0  0  0  0  0  0  0
   40.6175    4.7747   -7.2824 N   0  0  0  0  0  0  0  0  0  0  0  0
   41.0422    5.1097   -8.7376 C   0  0  0  0  0  0  0  0  0  0  0  0
  1  2  1  6  0  0  0
  1  9  1  0  0  0  0
  1 35  1  0  0  0  0
  3  4  1  6  0  0  0
  3 11  1  0  0  0  0
  3 45  1  0  0  0  0
  5  6  1  0  0  0  0
  5 12  1  0  0  0  0
  5 37  1  1  0  0  0
  6 30  1  0  0  0  0
  7 14  1  0  0  0  0
  7 41  1  0  0  0  0
  7 23  1  6  0  0  0
  8 16  2  0  0  0  0
  8 42  1  0  0  0  0
  9 10  1  6  0  0  0
  9 18  1  0  0  0  0
 11 20  1  0  0  0  0
 12 13  1  6  0  0  0
 12 22  1  0  0  0  0
 13 47  1  0  0  0  0
 14 15  1  6  0  0  0
 14 24  1  0  0  0  0
 16 17  1  0  0  0  0
 17 26  2  0  0  0  0
 18 19  1  1  0  0  0
 18 27  1  0  0  0  0
 20 21  1  6  0  0  0
 20 29  1  0  0  0  0
 22 23  1  6  0  0  0
 22 30  1  0  0  0  0
 24 25  1  1  0  0  0
 24 31  1  0  0  0  0
 26 33  1  0  0  0  0
 27 28  1  6  0  0  0
 27 34  1  0  0  0  0
 29  2  1  1  0  0  0
 29 36  1  0  0  0  0
 30 38  1  1  0  0  0
 31 32  1  6  0  0  0
 31 40  1  0  0  0  0
 33 42  2  0  0  0  0
 34 35  1  0  0  0  0
 34 43  1  1  0  0  0
 36 37  1  6  0  0  0
 36 45  1  0  0  0  0
 38 39  1  0  0  0  0
 40 41  1  0  0  0  0
 40 48  1  6  0  0  0
 43 44  1  0  0  0  0
 45 46  1  1  0  0  0
 47 50  1  0  0  0  0
 48 49  1  0  0  0  0
 50 51  1  0  0  0  0
 51 52  1  0  0  0  0
 52  8  1  0  0  0  0
M  END
>  <CHROM.1>
-160.97304442,-125.81531908,-166.46199471,177.86112504,-162.87422663,174.55987479
71.59702848,-54.48206193,-73.85613912,-57.06321210,175.30210111,52.28140109
-148.49574663,73.69515588,16.10789491,42.52108390,6.17624277,-3.33279248
-0.39743199,-0.96457082,2.08972682

>  <Name>
2be0_lig

>  <RI>
2.75444e+07

>  <Rbt.Current_Directory>
/home/itssahil/PROJECTS/Mol_Feturizer/New_Systems/rnas/2be0

>  <Rbt.Executable>
rbdock ($Id: //depot/dev/client3/rdock/2013.1/src/exe/rbdock.cxx#4 $)

>  <Rbt.Library>
libRbt.so (2013.1, Build901 2013/11/27)

>  <Rbt.Parameter_File>
/export/apps/rDock/src/rDock_2013.1_src/data/scripts/dock_solv.prm

>  <Rbt.Receptor>
prm/pocket_docking_5.prm

>  <SCORE>
-34.2708

>  <SCORE.INTER>
-17.2807

>  <SCORE.INTER.CONST>
1

>  <SCORE.INTER.POLAR>
-1.19229

>  <SCORE.INTER.ROT>
15

>  <SCORE.INTER.SOLV>
19.8628

>  <SCORE.INTER.VDW>
-27.7671

>  <SCORE.INTER.norm>
-0.332321

>  <SCORE.INTRA>
-16.9901

>  <SCORE.INTRA.DIHEDRAL>
-33.0376

>  <SCORE.INTRA.DIHEDRAL.0>
47.8724

>  <SCORE.INTRA.POLAR>
0

>  <SCORE.INTRA.POLAR.0>
0

>  <SCORE.INTRA.REPUL>
0.0443736

>  <SCORE.INTRA.REPUL.0>
0

>  <SCORE.INTRA.SOLV>
1.0036

>  <SCORE.INTRA.SOLV.lig_0>
-115.677

>  <SCORE.INTRA.VDW>
-1.19496

>  <SCORE.INTRA.VDW.0>
-7.4833

>  <SCORE.INTRA.norm>
-0.326732

>  <SCORE.RESTR>
0

>  <SCORE.RESTR.CAVITY>
0

>  <SCORE.RESTR.norm>
0

>  <SCORE.SYSTEM>
0

>  <SCORE.SYSTEM.CONST>
0

>  <SCORE.SYSTEM.DIHEDRAL>
0

>  <SCORE.SYSTEM.SOLV>
0

>  <SCORE.SYSTEM.norm>
0

>  <SCORE.heavy>
52

>  <SCORE.norm>
-0.659053

>  <RMSD>
6.702

$$$$
2be0_lig
 OpenBabel11021811423D
libRbt.so/2013.1/901 2013/11/27
 52 56  0  0  0  0  0  0  0  0999 V2000
   44.1759    5.5194   -7.1953 C   0  0  2  0  0  0  0  0  0  0  0  0
   43.6854    5.3905   -8.5090 O   0  0  0  0  0  0  0  0  0  0  0  0
   41.5855    2.3206  -10.8620 C   0  0  2  0  0  0  0  0  0  0  0  0
   41.2002    0.9759  -11.3749 N   0  0  0  0  0  0  0  0  0  0  0  0
   40.2024    4.0359   -6.8775 C   0  0  2  0  0  0  0  0  0  0  0  0
   40.0853    4.9511   -5.7688 O   0  0  0  0  0  0  0  0  0  0  0  0
   40.1476    0.3782   -4.2377 C   0  0  1  0  0  0  0  0  0  0  0  0
   36.3085   -3.0521   -6.6189 C   0  0  0  0  0  0  0  0  0  0  0  0
   44.4727    7.0331   -6.8402 C   0  0  2  0  0  0  0  0  0  0  0  0
   43.2772    7.8429   -7.0841 N   0  0  0  0  0  0  0  0  0  0  0  0
   43.1535    2.5315  -11.0744 C   0  0  0  0  0  0  0  0  0  0  0  0
   39.8028    2.6484   -6.3505 C   0  0  2  0  0  0  0  0  0  0  0  0
   38.3126    2.6413   -6.4795 O   0  0  0  0  0  0  0  0  0  0  0  0
   39.5400   -0.4020   -2.9481 C   0  0  2  0  0  0  0  0  0  0  0  0
   40.3052    0.0161   -1.7293 N   0  0  0  0  0  0  0  0  0  0  0  0
   35.0494   -3.7251   -6.4905 C   0  0  0  0  0  0  0  0  0  0  0  0
   35.0007   -5.1427   -6.5458 N   0  0  0  0  0  0  0  0  0  0  0  0
   45.7270    7.5479   -7.6873 C   0  0  1  0  0  0  0  0  0  0  0  0
   45.9714    8.9071   -7.3604 O   0  0  0  0  0  0  0  0  0  0  0  0
   43.6202    3.9924  -10.5107 C   0  0  2  0  0  0  0  0  0  0  0  0
   45.0290    4.1955  -10.6980 N   0  0  0  0  0  0  0  0  0  0  0  0
   40.4500    2.7310   -4.9551 C   0  0  2  0  0  0  0  0  0  0  0  0
   40.0152    1.7888   -3.9857 O   0  0  0  0  0  0  0  0  0  0  0  0
   39.6892   -1.9326   -3.2011 C   0  0  1  0  0  0  0  0  0  0  0  0
   38.8906   -2.2300   -4.4016 O   0  0  0  0  0  0  0  0  0  0  0  0
   36.1586   -5.9517   -6.7277 C   0  0  0  0  0  0  0  0  0  0  0  0
   46.9508    6.6440   -7.3593 C   0  0  2  0  0  0  0  0  0  0  0  0
   48.1488    7.0718   -8.1215 O   0  0  0  0  0  0  0  0  0  0  0  0
   43.2668    4.1120   -8.9711 C   0  0  2  0  0  0  0  0  0  0  0  0
   40.2225    4.2047   -4.5422 C   0  0  1  0  0  0  0  0  0  0  0  0
   41.2553   -2.3088   -3.4288 C   0  0  2  0  0  0  0  0  0  0  0  0
   42.0598   -2.0138   -2.2329 O   0  0  0  0  0  0  0  0  0  0  0  0
   37.4309   -5.3428   -6.8594 C   0  0  0  0  0  0  0  0  0  0  0  0
   46.6358    5.1410   -7.7192 C   0  0  2  0  0  0  0  0  0  0  0  0
   45.4559    4.7841   -6.9477 O   0  0  0  0  0  0  0  0  0  0  0  0
   41.7226    3.8870   -8.8169 C   0  0  2  0  0  0  0  0  0  0  0  0
   41.5206    4.0277   -7.4159 O   0  0  0  0  0  0  0  0  0  0  0  0
   41.4185    4.7918   -3.7946 C   0  0  0  0  0  0  0  0  0  0  0  0
   41.3159    6.1562   -3.4642 O   0  0  0  0  0  0  0  0  0  0  0  0
   41.8240   -1.4845   -4.6738 C   0  0  1  0  0  0  0  0  0  0  0  0
   41.6166   -0.0078   -4.4074 O   0  0  0  0  0  0  0  0  0  0  0  0
   37.5351   -3.8660   -6.8094 C   0  0  0  0  0  0  0  0  0  0  0  0
   47.8165    4.3354   -7.3686 C   0  0  0  0  0  0  0  0  0  0  0  0
   48.0408    4.4224   -6.0514 O   0  0  0  0  0  0  0  0  0  0  0  0
   41.3096    2.4490   -9.3452 C   0  0  1  0  0  0  0  0  0  0  0  0
   39.9380    2.2691   -9.2113 O   0  0  0  0  0  0  0  0  0  0  0  0
   37.3827    1.4982   -6.3219 C   0  0  0  0  0  0  0  0  0  0  0  0
   43.3185   -1.8743   -4.8354 C   0  0  0  0  0  0  0  0  0  0  0  0
   43.9050   -1.1824   -5.9562 N   0  0  0  0  0  0  0  0  0  0  0  0
   37.5659    0.5931   -7.5445 C   0  0  0  0  0  0  0  0  0  0  0  0
   37.6511   -0.8356   -7.0992 N   0  0  0  0  0  0  0  0  0  0  0  0
   36.3338   -1.4474   -6.5511 C   0  0  0  0  0  0  0  0  0  0  0  0
  1  2  1  6  0  0  0
  1  9  1  0  0  0  0
  1 35  1  0  0  0  0
  3  4  1  1  0  0  0
  3 11  1  0  0  0  0
  3 45  1  0  0  0  0
  5  6  1  0  0  0  0
  5 12  1  0  0  0  0
  5 37  1  1  0  0  0
  6 30  1  0  0  0  0
  7 14  1  0  0  0  0
  7 41  1  0  0  0  0
  7 23  1  1  0  0  0
  8 16  2  0  0  0  0
  8 42  1  0  0  0  0
  9 10  1  6  0  0  0
  9 18  1  0  0  0  0
 11 20  1  0  0  0  0
 12 13  1  1  0  0  0
 12 22  1  0  0  0  0
 13 47  1  0  0  0  0
 14 15  1  1  0  0  0
 14 24  1  0  0  0  0
 16 17  1  0  0  0  0
 17 26  2  0  0  0  0
 18 19  1  1  0  0  0
 18 27  1  0  0  0  0
 20 21  1  1  0  0  0
 20 29  1  0  0  0  0
 22 23  1  1  0  0  0
 22 30  1  0  0  0  0
 24 25  1  6  0  0  0
 24 31  1  0  0  0  0
 26 33  1  0  0  0  0
 27 28  1  6  0  0  0
 27 34  1  0  0  0  0
 29  2  1  6  0  0  0
 29 36  1  0  0  0  0
 30 38  1  6  0  0  0
 31 32  1  1  0  0  0
 31 40  1  0  0  0  0
 33 42  2  0  0  0  0
 34 35  1  0  0  0  0
 34 43  1  1  0  0  0
 36 37  1  1  0  0  0
 36 45  1  0  0  0  0
 38 39  1  0  0  0  0
 40 41  1  0  0  0  0
 40 48  1  1  0  0  0
 43 44  1  0  0  0  0
 45 46  1  6  0  0  0
 47 50  1  0  0  0  0
 48 49  1  0  0  0  0
 50 51  1  0  0  0  0
 51 52  1  0  0  0  0
 52  8  1  0  0  0  0
M  END
>  <CHROM.1>
-175.28399890,-143.49791016,-179.20545282,169.78071372,-72.07165523,58.63084946
-145.34144711,59.79352966,61.93576442,173.12412234,179.23653742,134.61644725
69.75602653,158.02429321,-163.48080610,41.47390322,1.98485347,-6.55988129
-0.44677736,0.77216566,1.93516854

>  <Name>
2be0_lig

>  <RI>
0

>  <Rbt.Current_Directory>
/home/itssahil/PROJECTS/Mol_Feturizer/New_Systems/rnas/2be0

>  <Rbt.Executable>
rbdock ($Id: //depot/dev/client3/rdock/2013.1/src/exe/rbdock.cxx#4 $)

>  <Rbt.Library>
libRbt.so (2013.1, Build901 2013/11/27)

>  <Rbt.Parameter_File>
/export/apps/rDock/src/rDock_2013.1_src/data/scripts/dock_solv.prm

>  <Rbt.Receptor>
prm/pocket_docking_7.prm

>  <SCORE>
-15.6274

>  <SCORE.INTER>
0.113228

>  <SCORE.INTER.CONST>
1

>  <SCORE.INTER.POLAR>
-0.959166

>  <SCORE.INTER.ROT>
15

>  <SCORE.INTER.SOLV>
11.0948

>  <SCORE.INTER.VDW>
-14.0256

>  <SCORE.INTER.norm>
0.00217745

>  <SCORE.INTRA>
-15.7406

>  <SCORE.INTRA.DIHEDRAL>
-30.7094

>  <SCORE.INTRA.DIHEDRAL.0>
47.8724

>  <SCORE.INTRA.POLAR>
0

>  <SCORE.INTRA.POLAR.0>
0

>  <SCORE.INTRA.REPUL>
0

>  <SCORE.INTRA.REPUL.0>
0

>  <SCORE.INTRA.SOLV>
-2.08981

>  <SCORE.INTRA.SOLV.lig_0>
-115.677

>  <SCORE.INTRA.VDW>
0.659001

>  <SCORE.INTRA.VDW.0>
-7.4833

>  <SCORE.INTRA.norm>
-0.302704

>  <SCORE.RESTR>
0

>  <SCORE.RESTR.CAVITY>
0

>  <SCORE.RESTR.norm>
0

>  <SCORE.SYSTEM>
0

>  <SCORE.SYSTEM.CONST>
0

>  <SCORE.SYSTEM.DIHEDRAL>
0

>  <SCORE.SYSTEM.SOLV>
0

>  <SCORE.SYSTEM.norm>
0

>  <SCORE.heavy>
52

>  <SCORE.norm>
-0.300526

>  <RMSD>
6.784

$$$$
2be0_lig
 OpenBabel11021811423D
libRbt.so/2013.1/901 2013/11/27
 52 56  0  0  0  0  0  0  0  0999 V2000
   42.2548    6.8220   -3.5598 C   0  0  2  0  0  0  0  0  0  0  0  0
   41.4004    7.8993   -3.2560 O   0  0  0  0  0  0  0  0  0  0  0  0
   40.5769    7.9787    1.0668 C   0  0  2  0  0  0  0  0  0  0  0  0
   39.8049    8.0248    2.3401 N   0  0  0  0  0  0  0  0  0  0  0  0
   41.4186    4.3125   -1.7092 C   0  0  2  0  0  0  0  0  0  0  0  0
   42.0792    4.2679   -0.4278 O   0  0  0  0  0  0  0  0  0  0  0  0
   45.2696    4.8402   -3.9993 C   0  0  1  0  0  0  0  0  0  0  0  0
   40.5952   -1.4623   -4.5056 C   0  0  0  0  0  0  0  0  0  0  0  0
   43.6269    7.3309   -4.1631 C   0  0  2  0  0  0  0  0  0  0  0  0
   44.2373    8.3036   -3.2544 N   0  0  0  0  0  0  0  0  0  0  0  0
   40.1879    9.2433    0.1736 C   0  0  0  0  0  0  0  0  0  0  0  0
   42.5018    4.0789   -2.7744 C   0  0  2  0  0  0  0  0  0  0  0  0
   42.5965    2.5883   -2.8555 O   0  0  0  0  0  0  0  0  0  0  0  0
   45.0213    3.4254   -4.7595 C   0  0  2  0  0  0  0  0  0  0  0  0
   45.9051    2.3856   -4.1401 N   0  0  0  0  0  0  0  0  0  0  0  0
   41.4232   -2.1178   -5.4748 C   0  0  0  0  0  0  0  0  0  0  0  0
   41.0407   -2.1175   -6.8419 N   0  0  0  0  0  0  0  0  0  0  0  0
   43.3792    7.9451   -5.6182 C   0  0  1  0  0  0  0  0  0  0  0  0
   44.6184    8.4018   -6.1376 O   0  0  0  0  0  0  0  0  0  0  0  0
   41.0045    9.2225   -1.2415 C   0  0  2  0  0  0  0  0  0  0  0  0
   40.6650   10.3567   -2.0538 N   0  0  0  0  0  0  0  0  0  0  0  0
   43.6449    4.8845   -2.1285 C   0  0  2  0  0  0  0  0  0  0  0  0
   44.9585    4.6389   -2.6089 O   0  0  0  0  0  0  0  0  0  0  0  0
   45.3678    3.6247   -6.2660 C   0  0  1  0  0  0  0  0  0  0  0  0
   44.4354    4.6465   -6.7699 O   0  0  0  0  0  0  0  0  0  0  0  0
   39.8529   -1.4900   -7.3144 C   0  0  0  0  0  0  0  0  0  0  0  0
   42.7435    6.8459   -6.5181 C   0  0  2  0  0  0  0  0  0  0  0  0
   42.4858    7.3597   -7.8852 O   0  0  0  0  0  0  0  0  0  0  0  0
   40.6784    7.8881   -2.0305 C   0  0  2  0  0  0  0  0  0  0  0  0
   43.4686    4.6063   -0.6167 C   0  0  1  0  0  0  0  0  0  0  0  0
   46.9124    4.1102   -6.4221 C   0  0  2  0  0  0  0  0  0  0  0  0
   47.8502    3.0939   -5.9200 O   0  0  0  0  0  0  0  0  0  0  0  0
   38.9956   -0.8255   -6.4031 C   0  0  0  0  0  0  0  0  0  0  0  0
   41.3790    6.3517   -5.9008 C   0  0  2  0  0  0  0  0  0  0  0  0
   41.6961    5.8662   -4.5671 O   0  0  0  0  0  0  0  0  0  0  0  0
   41.0675    6.6810   -1.1081 C   0  0  2  0  0  0  0  0  0  0  0  0
   40.7482    5.5522   -1.9126 O   0  0  0  0  0  0  0  0  0  0  0  0
   43.7472    5.8406    0.2394 C   0  0  0  0  0  0  0  0  0  0  0  0
   45.0275    6.4058    0.0889 O   0  0  0  0  0  0  0  0  0  0  0  0
   47.1234    5.4763   -5.6207 C   0  0  1  0  0  0  0  0  0  0  0  0
   46.7312    5.2508   -4.1751 O   0  0  0  0  0  0  0  0  0  0  0  0
   39.3499   -0.7980   -4.9650 C   0  0  0  0  0  0  0  0  0  0  0  0
   40.8387    5.3026   -6.7803 C   0  0  0  0  0  0  0  0  0  0  0  0
   39.9502    4.5655   -6.1020 O   0  0  0  0  0  0  0  0  0  0  0  0
   40.2348    6.7154    0.2420 C   0  0  1  0  0  0  0  0  0  0  0  0
   40.5983    5.6461    1.0521 O   0  0  0  0  0  0  0  0  0  0  0  0
   43.1165    1.6446   -1.8380 C   0  0  0  0  0  0  0  0  0  0  0  0
   48.6118    5.8834   -5.7958 C   0  0  0  0  0  0  0  0  0  0  0  0
   48.9326    6.0451   -7.1921 N   0  0  0  0  0  0  0  0  0  0  0  0
   42.9024    0.2284   -2.3821 C   0  0  0  0  0  0  0  0  0  0  0  0
   41.4344   -0.0707   -2.4305 N   0  0  0  0  0  0  0  0  0  0  0  0
   41.0534   -1.4772   -2.9661 C   0  0  0  0  0  0  0  0  0  0  0  0
  1  2  1  6  0  0  0
  1  9  1  0  0  0  0
  1 35  1  0  0  0  0
  3  4  1  1  0  0  0
  3 11  1  0  0  0  0
  3 45  1  0  0  0  0
  5  6  1  0  0  0  0
  5 12  1  0  0  0  0
  5 37  1  6  0  0  0
  6 30  1  0  0  0  0
  7 14  1  0  0  0  0
  7 41  1  0  0  0  0
  7 23  1  1  0  0  0
  8 16  2  0  0  0  0
  8 42  1  0  0  0  0
  9 10  1  1  0  0  0
  9 18  1  0  0  0  0
 11 20  1  0  0  0  0
 12 13  1  1  0  0  0
 12 22  1  0  0  0  0
 13 47  1  0  0  0  0
 14 15  1  1  0  0  0
 14 24  1  0  0  0  0
 16 17  1  0  0  0  0
 17 26  2  0  0  0  0
 18 19  1  6  0  0  0
 18 27  1  0  0  0  0
 20 21  1  6  0  0  0
 20 29  1  0  0  0  0
 22 23  1  6  0  0  0
 22 30  1  0  0  0  0
 24 25  1  1  0  0  0
 24 31  1  0  0  0  0
 26 33  1  0  0  0  0
 27 28  1  6  0  0  0
 27 34  1  0  0  0  0
 29  2  1  6  0  0  0
 29 36  1  0  0  0  0
 30 38  1  1  0  0  0
 31 32  1  1  0  0  0
 31 40  1  0  0  0  0
 33 42  2  0  0  0  0
 34 35  1  0  0  0  0
 34 43  1  6  0  0  0
 36 37  1  6  0  0  0
 36 45  1  0  0  0  0
 38 39  1  0  0  0  0
 40 41  1  0  0  0  0
 40 48  1  1  0  0  0
 43 44  1  0  0  0  0
 45 46  1  1  0  0  0
 47 50  1  0  0  0  0
 48 49  1  0  0  0  0
 50 51  1  0  0  0  0
 51 52  1  0  0  0  0
 52  8  1  0  0  0  0
M  END
>  <CHROM.1>
-136.91339020,17.05412020,-91.25416738,-68.75529653,176.29884402,58.72490408
124.76417760,-174.07132977,159.89685145,154.33140318,58.76499609,-68.02192056
179.88575806,-99.64261837,113.18569565,42.83084533,4.70350809,-3.57490391
-1.62264185,-0.70642814,-2.68272413

>  <Name>
2be0_lig

>  <RI>
0

>  <Rbt.Current_Directory>
/home/itssahil/PROJECTS/Mol_Feturizer/New_Systems/rnas/2be0

>  <Rbt.Executable>
rbdock ($Id: //depot/dev/client3/rdock/2013.1/src/exe/rbdock.cxx#4 $)

>  <Rbt.Library>
libRbt.so (2013.1, Build901 2013/11/27)

>  <Rbt.Parameter_File>
/export/apps/rDock/src/rDock_2013.1_src/data/scripts/dock_solv.prm

>  <Rbt.Receptor>
prm/pocket_docking_2.prm

>  <SCORE>
7.88511

>  <SCORE.INTER>
5.06651

>  <SCORE.INTER.CONST>
1

>  <SCORE.INTER.POLAR>
-1.01092

>  <SCORE.INTER.ROT>
15

>  <SCORE.INTER.SOLV>
19.8378

>  <SCORE.INTER.VDW>
-13.4652

>  <SCORE.INTER.norm>
0.0974328

>  <SCORE.INTRA>
-2.89974

>  <SCORE.INTRA.DIHEDRAL>
-18.2186

>  <SCORE.INTRA.DIHEDRAL.0>
47.8724

>  <SCORE.INTRA.POLAR>
0

>  <SCORE.INTRA.POLAR.0>
0

>  <SCORE.INTRA.REPUL>
0

>  <SCORE.INTRA.REPUL.0>
0

>  <SCORE.INTRA.SOLV>
3.84959

>  <SCORE.INTRA.SOLV.lig_0>
-115.677

>  <SCORE.INTRA.VDW>
4.28474

>  <SCORE.INTRA.VDW.0>
-7.4833

>  <SCORE.INTRA.norm>
-0.0557643

>  <SCORE.RESTR>
5.71835

>  <SCORE.RESTR.CAVITY>
5.71835

>  <SCORE.RESTR.norm>
0.109968

>  <SCORE.SYSTEM>
0

>  <SCORE.SYSTEM.CONST>
0

>  <SCORE.SYSTEM.DIHEDRAL>
0

>  <SCORE.SYSTEM.SOLV>
0

>  <SCORE.SYSTEM.norm>
0

>  <SCORE.heavy>
52

>  <SCORE.norm>
0.151637

>  <RMSD>
6.788

$$$$
2be0_lig
 OpenBabel11021811423D
libRbt.so/2013.1/901 2013/11/27
 52 56  0  0  0  0  0  0  0  0999 V2000
   41.7725    5.5663   -4.2345 C   0  0  2  0  0  0  0  0  0  0  0  0
   42.1752    6.6327   -5.0613 O   0  0  0  0  0  0  0  0  0  0  0  0
   42.7391    7.0193   -9.4091 C   0  0  2  0  0  0  0  0  0  0  0  0
   43.2618    6.7512  -10.7782 N   0  0  0  0  0  0  0  0  0  0  0  0
   41.2597    3.6544   -7.0561 C   0  0  2  0  0  0  0  0  0  0  0  0
   40.2042    2.7833   -7.5115 O   0  0  0  0  0  0  0  0  0  0  0  0
   39.4678    0.9809   -3.5164 C   0  0  1  0  0  0  0  0  0  0  0  0
   44.4346   -2.8267   -7.3896 C   0  0  0  0  0  0  0  0  0  0  0  0
   40.4261    5.9067   -3.4749 C   0  0  2  0  0  0  0  0  0  0  0  0
   39.3976    6.2987   -4.4409 N   0  0  0  0  0  0  0  0  0  0  0  0
   43.9645    7.3223   -8.4319 C   0  0  0  0  0  0  0  0  0  0  0  0
   41.8420    3.0174   -5.7843 C   0  0  2  0  0  0  0  0  0  0  0  0
   42.8486    2.0440   -6.3103 O   0  0  0  0  0  0  0  0  0  0  0  0
   38.7200    2.2021   -2.7478 C   0  0  2  0  0  0  0  0  0  0  0  0
   39.6603    2.7787   -1.7333 N   0  0  0  0  0  0  0  0  0  0  0  0
   44.1600   -4.1235   -6.8441 C   0  0  0  0  0  0  0  0  0  0  0  0
   43.0718   -4.8826   -7.3486 N   0  0  0  0  0  0  0  0  0  0  0  0
   40.6952    7.0502   -2.3905 C   0  0  1  0  0  0  0  0  0  0  0  0
   39.4760    7.3456   -1.7269 O   0  0  0  0  0  0  0  0  0  0  0  0
   43.4336    7.6084   -6.9133 C   0  0  2  0  0  0  0  0  0  0  0  0
   44.5267    7.8848   -6.0244 N   0  0  0  0  0  0  0  0  0  0  0  0
   40.5325    2.5013   -5.1585 C   0  0  2  0  0  0  0  0  0  0  0  0
   40.6482    1.5239   -4.1349 O   0  0  0  0  0  0  0  0  0  0  0  0
   37.4453    1.6256   -2.0609 C   0  0  1  0  0  0  0  0  0  0  0  0
   36.5946    1.1061   -3.1443 O   0  0  0  0  0  0  0  0  0  0  0  0
   42.2175   -4.4167   -8.3883 C   0  0  0  0  0  0  0  0  0  0  0  0
   41.7863    6.5476   -1.4011 C   0  0  2  0  0  0  0  0  0  0  0  0
   42.0828    7.5712   -0.3699 O   0  0  0  0  0  0  0  0  0  0  0  0
   42.6220    6.3556   -6.3829 C   0  0  2  0  0  0  0  0  0  0  0  0
   39.7118    2.0315   -6.3832 C   0  0  1  0  0  0  0  0  0  0  0  0
   37.8592    0.4452   -1.0211 C   0  0  2  0  0  0  0  0  0  0  0  0
   38.7100    0.9572    0.0645 O   0  0  0  0  0  0  0  0  0  0  0  0
   42.4406   -3.1430   -8.9670 C   0  0  0  0  0  0  0  0  0  0  0  0
   43.1187    6.2134   -2.1761 C   0  0  2  0  0  0  0  0  0  0  0  0
   42.7631    5.2129   -3.1697 O   0  0  0  0  0  0  0  0  0  0  0  0
   41.4406    6.0950   -7.3807 C   0  0  2  0  0  0  0  0  0  0  0  0
   40.7826    4.9725   -6.8058 O   0  0  0  0  0  0  0  0  0  0  0  0
   38.2248    2.3547   -6.2470 C   0  0  0  0  0  0  0  0  0  0  0  0
   37.4265    2.0114   -7.3543 O   0  0  0  0  0  0  0  0  0  0  0  0
   38.6329   -0.7095   -1.8090 C   0  0  1  0  0  0  0  0  0  0  0  0
   39.8352   -0.0982   -2.4985 O   0  0  0  0  0  0  0  0  0  0  0  0
   43.5632   -2.3112   -8.4749 C   0  0  0  0  0  0  0  0  0  0  0  0
   44.1015    5.7249   -1.1955 C   0  0  0  0  0  0  0  0  0  0  0  0
   45.1271    6.5829   -1.1262 O   0  0  0  0  0  0  0  0  0  0  0  0
   41.9926    5.7911   -8.8368 C   0  0  1  0  0  0  0  0  0  0  0  0
   40.9341    5.5727   -9.7106 O   0  0  0  0  0  0  0  0  0  0  0  0
   43.6544    1.0572   -5.5532 C   0  0  0  0  0  0  0  0  0  0  0  0
   39.0111   -1.7983   -0.7682 C   0  0  0  0  0  0  0  0  0  0  0  0
   39.6863   -2.8996   -1.4085 N   0  0  0  0  0  0  0  0  0  0  0  0
   44.5286    0.3125   -6.5674 C   0  0  0  0  0  0  0  0  0  0  0  0
   45.2347   -0.8182   -5.8820 N   0  0  0  0  0  0  0  0  0  0  0  0
   45.6733   -1.9906   -6.8004 C   0  0  0  0  0  0  0  0  0  0  0  0
  1  2  1  1  0  0  0
  1  9  1  0  0  0  0
  1 35  1  0  0  0  0
  3  4  1  6  0  0  0
  3 11  1  0  0  0  0
  3 45  1  0  0  0  0
  5  6  1  0  0  0  0
  5 12  1  0  0  0  0
  5 37  1  1  0  0  0
  6 30  1  0  0  0  0
  7 14  1  0  0  0  0
  7 41  1  0  0  0  0
  7 23  1  1  0  0  0
  8 16  2  0  0  0  0
  8 42  1  0  0  0  0
  9 10  1  6  0  0  0
  9 18  1  0  0  0  0
 11 20  1  0  0  0  0
 12 13  1  6  0  0  0
 12 22  1  0  0  0  0
 13 47  1  0  0  0  0
 14 15  1  1  0  0  0
 14 24  1  0  0  0  0
 16 17  1  0  0  0  0
 17 26  2  0  0  0  0
 18 19  1  1  0  0  0
 18 27  1  0  0  0  0
 20 21  1  1  0  0  0
 20 29  1  0  0  0  0
 22 23  1  1  0  0  0
 22 30  1  0  0  0  0
 24 25  1  6  0  0  0
 24 31  1  0  0  0  0
 26 33  1  0  0  0  0
 27 28  1  1  0  0  0
 27 34  1  0  0  0  0
 29  2  1  1  0  0  0
 29 36  1  0  0  0  0
 30 38  1  1  0  0  0
 31 32  1  1  0  0  0
 31 40  1  0  0  0  0
 33 42  2  0  0  0  0
 34 35  1  0  0  0  0
 34 43  1  1  0  0  0
 36 37  1  1  0  0  0
 36 45  1  0  0  0  0
 38 39  1  0  0  0  0
 40 41  1  0  0  0  0
 40 48  1  1  0  0  0
 43 44  1  0  0  0  0
 45 46  1  6  0  0  0
 47 50  1  0  0  0  0
 48 49  1  0  0  0  0
 50 51  1  0  0  0  0
 51 52  1  0  0  0  0
 52  8  1  0  0  0  0
M  END
>  <CHROM.1>
-135.29878103,-128.65493077,-63.89769235,-174.66503584,-179.93238016,-179.12581005
-161.94378221,60.87294990,-115.30690070,-83.24690096,178.49425054,-172.73402959
155.85600833,-68.21727942,-105.52647165,41.43031019,2.85012154,-4.95990471
1.48577977,1.04812672,0.18525684

>  <Name>
2be0_lig

>  <RI>
0

>  <Rbt.Current_Directory>
/home/itssahil/PROJECTS/Mol_Feturizer/New_Systems/rnas/2be0

>  <Rbt.Executable>
rbdock ($Id: //depot/dev/client3/rdock/2013.1/src/exe/rbdock.cxx#4 $)

>  <Rbt.Library>
libRbt.so (2013.1, Build901 2013/11/27)

>  <Rbt.Parameter_File>
/export/apps/rDock/src/rDock_2013.1_src/data/scripts/dock_solv.prm

>  <Rbt.Receptor>
prm/pocket_docking_7.prm

>  <SCORE>
-19.9622

>  <SCORE.INTER>
-8.4136

>  <SCORE.INTER.CONST>
1

>  <SCORE.INTER.POLAR>
-1.53071

>  <SCORE.INTER.ROT>
15

>  <SCORE.INTER.SOLV>
19.9945

>  <SCORE.INTER.VDW>
-20.7715

>  <SCORE.INTER.norm>
-0.1618

>  <SCORE.INTRA>
-11.5486

>  <SCORE.INTRA.DIHEDRAL>
-23.8436

>  <SCORE.INTRA.DIHEDRAL.0>
47.8724

>  <SCORE.INTRA.POLAR>
0

>  <SCORE.INTRA.POLAR.0>
0

>  <SCORE.INTRA.REPUL>
0

>  <SCORE.INTRA.REPUL.0>
0

>  <SCORE.INTRA.SOLV>
-1.34268

>  <SCORE.INTRA.SOLV.lig_0>
-115.677

>  <SCORE.INTRA.VDW>
1.04455

>  <SCORE.INTRA.VDW.0>
-7.4833

>  <SCORE.INTRA.norm>
-0.222088

>  <SCORE.RESTR>
0

>  <SCORE.RESTR.CAVITY>
0

>  <SCORE.RESTR.norm>
0

>  <SCORE.SYSTEM>
0

>  <SCORE.SYSTEM.CONST>
0

>  <SCORE.SYSTEM.DIHEDRAL>
0

>  <SCORE.SYSTEM.SOLV>
0

>  <SCORE.SYSTEM.norm>
0

>  <SCORE.heavy>
52

>  <SCORE.norm>
-0.383888

>  <RMSD>
6.800

$$$$
2be0_lig
 OpenBabel11021811423D
libRbt.so/2013.1/901 2013/11/27
 52 56  0  0  0  0  0  0  0  0999 V2000
   43.3816    5.0334   -6.3831 C   0  0  2  0  0  0  0  0  0  0  0  0
   44.4300    4.2329   -6.8758 O   0  0  0  0  0  0  0  0  0  0  0  0
   48.7890    4.0202   -6.3058 C   0  0  2  0  0  0  0  0  0  0  0  0
   50.2001    4.4718   -6.1499 N   0  0  0  0  0  0  0  0  0  0  0  0
   44.9622    3.7192   -3.3699 C   0  0  2  0  0  0  0  0  0  0  0  0
   45.9522    2.8373   -2.8021 O   0  0  0  0  0  0  0  0  0  0  0  0
   42.7793    0.2393   -4.5048 C   0  0  1  0  0  0  0  0  0  0  0  0
   41.4382    5.2919    1.3838 C   0  0  0  0  0  0  0  0  0  0  0  0
   42.0155    4.6998   -7.1099 C   0  0  2  0  0  0  0  0  0  0  0  0
   41.7356    3.2662   -7.0048 N   0  0  0  0  0  0  0  0  0  0  0  0
   48.2071    4.5882   -7.6795 C   0  0  0  0  0  0  0  0  0  0  0  0
   43.8713    2.8255   -3.9812 C   0  0  2  0  0  0  0  0  0  0  0  0
   42.9709    2.5315   -2.8235 O   0  0  0  0  0  0  0  0  0  0  0  0
   42.8192   -0.4921   -3.0540 C   0  0  2  0  0  0  0  0  0  0  0  0
   43.5992   -1.7655   -3.1792 N   0  0  0  0  0  0  0  0  0  0  0  0
   40.1073    4.8387    1.6631 C   0  0  0  0  0  0  0  0  0  0  0  0
   39.3397    5.4868    2.6660 N   0  0  0  0  0  0  0  0  0  0  0  0
   42.0833    5.1862   -8.6313 C   0  0  1  0  0  0  0  0  0  0  0  0
   40.8537    4.8714   -9.2661 O   0  0  0  0  0  0  0  0  0  0  0  0
   46.6530    4.1260   -7.8820 C   0  0  2  0  0  0  0  0  0  0  0  0
   46.1183    4.6289   -9.1159 N   0  0  0  0  0  0  0  0  0  0  0  0
   44.7708    1.7134   -4.5529 C   0  0  2  0  0  0  0  0  0  0  0  0
   44.1416    0.4875   -4.8961 O   0  0  0  0  0  0  0  0  0  0  0  0
   41.3494   -0.7799   -2.6229 C   0  0  1  0  0  0  0  0  0  0  0  0
   40.6887    0.5314   -2.5164 O   0  0  0  0  0  0  0  0  0  0  0  0
   39.8295    6.5853    3.4284 C   0  0  0  0  0  0  0  0  0  0  0  0
   42.3701    6.7158   -8.6499 C   0  0  2  0  0  0  0  0  0  0  0  0
   42.4486    7.2263  -10.0399 O   0  0  0  0  0  0  0  0  0  0  0  0
   45.7751    4.6481   -6.6712 C   0  0  2  0  0  0  0  0  0  0  0  0
   45.8829    1.5695   -3.4867 C   0  0  1  0  0  0  0  0  0  0  0  0
   40.6179   -1.7184   -3.7319 C   0  0  2  0  0  0  0  0  0  0  0  0
   41.2732   -3.0308   -3.8441 O   0  0  0  0  0  0  0  0  0  0  0  0
   41.1374    7.0778    3.1960 C   0  0  0  0  0  0  0  0  0  0  0  0
   43.7337    7.0280   -7.9214 C   0  0  2  0  0  0  0  0  0  0  0  0
   43.5957    6.5026   -6.5724 O   0  0  0  0  0  0  0  0  0  0  0  0
   46.3934    4.0723   -5.3501 C   0  0  2  0  0  0  0  0  0  0  0  0
   45.5291    4.5882   -4.3450 O   0  0  0  0  0  0  0  0  0  0  0  0
   47.2569    1.3223   -4.1073 C   0  0  0  0  0  0  0  0  0  0  0  0
   48.3404    1.3467   -3.2092 O   0  0  0  0  0  0  0  0  0  0  0  0
   40.6443   -0.9835   -5.1504 C   0  0  1  0  0  0  0  0  0  0  0  0
   42.0849   -0.6810   -5.5080 O   0  0  0  0  0  0  0  0  0  0  0  0
   41.9792    6.4352    2.1604 C   0  0  0  0  0  0  0  0  0  0  0  0
   43.9392    8.4850   -7.9520 C   0  0  0  0  0  0  0  0  0  0  0  0
   44.9272    8.8140   -7.1105 O   0  0  0  0  0  0  0  0  0  0  0  0
   47.8908    4.5651   -5.1702 C   0  0  1  0  0  0  0  0  0  0  0  0
   48.4275    4.0385   -4.0013 O   0  0  0  0  0  0  0  0  0  0  0  0
   43.3471    2.1744   -1.4352 C   0  0  0  0  0  0  0  0  0  0  0  0
   39.9454   -1.9269   -6.1668 C   0  0  0  0  0  0  0  0  0  0  0  0
   39.5136   -1.1905   -7.3287 N   0  0  0  0  0  0  0  0  0  0  0  0
   42.0537    2.1160   -0.6160 C   0  0  0  0  0  0  0  0  0  0  0  0
   41.4515    3.4863   -0.5362 N   0  0  0  0  0  0  0  0  0  0  0  0
   42.2832    4.5407    0.2427 C   0  0  0  0  0  0  0  0  0  0  0  0
  1  2  1  6  0  0  0
  1  9  1  0  0  0  0
  1 35  1  0  0  0  0
  3  4  1  1  0  0  0
  3 11  1  0  0  0  0
  3 45  1  0  0  0  0
  5  6  1  0  0  0  0
  5 12  1  0  0  0  0
  5 37  1  6  0  0  0
  6 30  1  0  0  0  0
  7 14  1  0  0  0  0
  7 41  1  0  0  0  0
  7 23  1  6  0  0  0
  8 16  2  0  0  0  0
  8 42  1  0  0  0  0
  9 10  1  6  0  0  0
  9 18  1  0  0  0  0
 11 20  1  0  0  0  0
 12 13  1  1  0  0  0
 12 22  1  0  0  0  0
 13 47  1  0  0  0  0
 14 15  1  6  0  0  0
 14 24  1  0  0  0  0
 16 17  1  0  0  0  0
 17 26  2  0  0  0  0
 18 19  1  1  0  0  0
 18 27  1  0  0  0  0
 20 21  1  6  0  0  0
 20 29  1  0  0  0  0
 22 23  1  1  0  0  0
 22 30  1  0  0  0  0
 24 25  1  6  0  0  0
 24 31  1  0  0  0  0
 26 33  1  0  0  0  0
 27 28  1  6  0  0  0
 27 34  1  0  0  0  0
 29  2  1  6  0  0  0
 29 36  1  0  0  0  0
 30 38  1  6  0  0  0
 31 32  1  6  0  0  0
 31 40  1  0  0  0  0
 33 42  2  0  0  0  0
 34 35  1  0  0  0  0
 34 43  1  1  0  0  0
 36 37  1  1  0  0  0
 36 45  1  0  0  0  0
 38 39  1  0  0  0  0
 40 41  1  0  0  0  0
 40 48  1  6  0  0  0
 43 44  1  0  0  0  0
 45 46  1  1  0  0  0
 47 50  1  0  0  0  0
 48 49  1  0  0  0  0
 50 51  1  0  0  0  0
 51 52  1  0  0  0  0
 52  8  1  0  0  0  0
M  END
>  <CHROM.1>
160.48438893,47.01134057,-90.86356771,-43.08705449,174.39493902,-10.38000220
-149.39393222,56.17716451,167.09419455,129.17744064,160.23299929,-65.68725929
-65.41783158,-127.68782865,6.55239977,43.59995283,3.25924910,-4.38335091
-0.29742899,1.04759888,0.68294706

>  <Name>
2be0_lig

>  <RI>
2.10017e+07

>  <Rbt.Current_Directory>
/home/itssahil/PROJECTS/Mol_Feturizer/New_Systems/rnas/2be0

>  <Rbt.Executable>
rbdock ($Id: //depot/dev/client3/rdock/2013.1/src/exe/rbdock.cxx#4 $)

>  <Rbt.Library>
libRbt.so (2013.1, Build901 2013/11/27)

>  <Rbt.Parameter_File>
/export/apps/rDock/src/rDock_2013.1_src/data/scripts/dock_solv.prm

>  <Rbt.Receptor>
prm/pocket_docking_3.prm

>  <SCORE>
-10.7701

>  <SCORE.INTER>
-3.86501

>  <SCORE.INTER.CONST>
1

>  <SCORE.INTER.POLAR>
-0.698655

>  <SCORE.INTER.ROT>
15

>  <SCORE.INTER.SOLV>
12.2914

>  <SCORE.INTER.VDW>
-17.945

>  <SCORE.INTER.norm>
-0.0743271

>  <SCORE.INTRA>
-7.07974

>  <SCORE.INTRA.DIHEDRAL>
-18.6605

>  <SCORE.INTRA.DIHEDRAL.0>
47.8724

>  <SCORE.INTRA.POLAR>
0

>  <SCORE.INTRA.POLAR.0>
0

>  <SCORE.INTRA.REPUL>
0

>  <SCORE.INTRA.REPUL.0>
0

>  <SCORE.INTRA.SOLV>
0.823452

>  <SCORE.INTRA.SOLV.lig_0>
-115.677

>  <SCORE.INTRA.VDW>
1.83881

>  <SCORE.INTRA.VDW.0>
-7.4833

>  <SCORE.INTRA.norm>
-0.136149

>  <SCORE.RESTR>
0.174672

>  <SCORE.RESTR.CAVITY>
0.174672

>  <SCORE.RESTR.norm>
0.00335907

>  <SCORE.SYSTEM>
0

>  <SCORE.SYSTEM.CONST>
0

>  <SCORE.SYSTEM.DIHEDRAL>
0

>  <SCORE.SYSTEM.SOLV>
0

>  <SCORE.SYSTEM.norm>
0

>  <SCORE.heavy>
52

>  <SCORE.norm>
-0.207117

>  <RMSD>
6.837

$$$$
2be0_lig
 OpenBabel11021811423D
libRbt.so/2013.1/901 2013/11/27
 52 56  0  0  0  0  0  0  0  0999 V2000
   47.2955    4.5599   -7.3393 C   0  0  2  0  0  0  0  0  0  0  0  0
   46.4216    5.6151   -7.0141 O   0  0  0  0  0  0  0  0  0  0  0  0
   45.8940    9.6168   -8.7688 C   0  0  2  0  0  0  0  0  0  0  0  0
   45.6904   10.6735   -9.7991 N   0  0  0  0  0  0  0  0  0  0  0  0
   42.9187    6.6115   -6.5122 C   0  0  2  0  0  0  0  0  0  0  0  0
   43.5589    6.7173   -5.2241 O   0  0  0  0  0  0  0  0  0  0  0  0
   42.9219    2.8011   -3.8158 C   0  0  1  0  0  0  0  0  0  0  0  0
   40.9815    7.6274   -0.7028 C   0  0  0  0  0  0  0  0  0  0  0  0
   46.9924    3.2748   -6.4662 C   0  0  2  0  0  0  0  0  0  0  0  0
   45.5811    2.9072   -6.5989 N   0  0  0  0  0  0  0  0  0  0  0  0
   47.1894    8.7631   -9.1446 C   0  0  0  0  0  0  0  0  0  0  0  0
   42.0647    5.3339   -6.4788 C   0  0  2  0  0  0  0  0  0  0  0  0
   40.7813    5.7875   -5.8586 O   0  0  0  0  0  0  0  0  0  0  0  0
   41.9876    1.5396   -3.3951 C   0  0  2  0  0  0  0  0  0  0  0  0
   40.5594    1.9916   -3.3558 N   0  0  0  0  0  0  0  0  0  0  0  0
   40.7396    9.0395   -0.7512 C   0  0  0  0  0  0  0  0  0  0  0  0
   40.7094    9.7895    0.4537 N   0  0  0  0  0  0  0  0  0  0  0  0
   47.3982    3.5508   -4.9447 C   0  0  1  0  0  0  0  0  0  0  0  0
   47.1119    2.3909   -4.1786 O   0  0  0  0  0  0  0  0  0  0  0  0
   47.4403    7.5815   -8.0443 C   0  0  2  0  0  0  0  0  0  0  0  0
   48.6047    6.8072   -8.3698 N   0  0  0  0  0  0  0  0  0  0  0  0
   43.0234    4.4306   -5.6802 C   0  0  2  0  0  0  0  0  0  0  0  0
   42.4728    3.2545   -5.1055 O   0  0  0  0  0  0  0  0  0  0  0  0
   42.4540    1.0459   -1.9923 C   0  0  1  0  0  0  0  0  0  0  0  0
   43.8527    0.6152   -2.1529 O   0  0  0  0  0  0  0  0  0  0  0  0
   40.9087    9.2041    1.7365 C   0  0  0  0  0  0  0  0  0  0  0  0
   48.9092    3.9201   -4.8943 C   0  0  2  0  0  0  0  0  0  0  0  0
   49.3452    4.1922   -3.5033 O   0  0  0  0  0  0  0  0  0  0  0  0
   46.1737    6.6324   -7.9769 C   0  0  2  0  0  0  0  0  0  0  0  0
   43.6496    5.3981   -4.6478 C   0  0  1  0  0  0  0  0  0  0  0  0
   42.3312    2.2527   -0.9086 C   0  0  2  0  0  0  0  0  0  0  0  0
   40.9359    2.6886   -0.7432 O   0  0  0  0  0  0  0  0  0  0  0  0
   41.1531    7.8130    1.8468 C   0  0  0  0  0  0  0  0  0  0  0  0
   49.1912    5.2014   -5.7697 C   0  0  2  0  0  0  0  0  0  0  0  0
   48.7413    4.8744   -7.1134 O   0  0  0  0  0  0  0  0  0  0  0  0
   44.9315    7.5191   -7.6163 C   0  0  2  0  0  0  0  0  0  0  0  0
   43.8700    6.5733   -7.5710 O   0  0  0  0  0  0  0  0  0  0  0  0
   45.1323    5.1166   -4.4099 C   0  0  0  0  0  0  0  0  0  0  0  0
   45.8257    6.0996   -3.6790 O   0  0  0  0  0  0  0  0  0  0  0  0
   43.2254    3.4879   -1.3855 C   0  0  1  0  0  0  0  0  0  0  0  0
   42.7706    3.9044   -2.7691 O   0  0  0  0  0  0  0  0  0  0  0  0
   41.1936    6.9858    0.6187 C   0  0  0  0  0  0  0  0  0  0  0  0
   50.6332    5.4875   -5.7007 C   0  0  0  0  0  0  0  0  0  0  0  0
   51.3217    4.4051   -6.0840 O   0  0  0  0  0  0  0  0  0  0  0  0
   44.6994    8.6350   -8.7201 C   0  0  1  0  0  0  0  0  0  0  0  0
   43.6023    9.4181   -8.3811 O   0  0  0  0  0  0  0  0  0  0  0  0
   40.0696    5.2098   -4.6941 C   0  0  0  0  0  0  0  0  0  0  0  0
   43.0606    4.6083   -0.3229 C   0  0  0  0  0  0  0  0  0  0  0  0
   43.9914    5.6816   -0.5687 N   0  0  0  0  0  0  0  0  0  0  0  0
   39.3358    6.3592   -3.9957 C   0  0  0  0  0  0  0  0  0  0  0  0
   39.6096    6.3041   -2.5230 N   0  0  0  0  0  0  0  0  0  0  0  0
   41.0115    6.8042   -2.0819 C   0  0  0  0  0  0  0  0  0  0  0  0
  1  2  1  1  0  0  0
  1  9  1  0  0  0  0
  1 35  1  0  0  0  0
  3  4  1  6  0  0  0
  3 11  1  0  0  0  0
  3 45  1  0  0  0  0
  5  6  1  0  0  0  0
  5 12  1  0  0  0  0
  5 37  1  6  0  0  0
  6 30  1  0  0  0  0
  7 14  1  0  0  0  0
  7 41  1  0  0  0  0
  7 23  1  6  0  0  0
  8 16  2  0  0  0  0
  8 42  1  0  0  0  0
  9 10  1  1  0  0  0
  9 18  1  0  0  0  0
 11 20  1  0  0  0  0
 12 13  1  1  0  0  0
 12 22  1  0  0  0  0
 13 47  1  0  0  0  0
 14 15  1  1  0  0  0
 14 24  1  0  0  0  0
 16 17  1  0  0  0  0
 17 26  2  0  0  0  0
 18 19  1  1  0  0  0
 18 27  1  0  0  0  0
 20 21  1  6  0  0  0
 20 29  1  0  0  0  0
 22 23  1  1  0  0  0
 22 30  1  0  0  0  0
 24 25  1  6  0  0  0
 24 31  1  0  0  0  0
 26 33  1  0  0  0  0
 27 28  1  1  0  0  0
 27 34  1  0  0  0  0
 29  2  1  1  0  0  0
 29 36  1  0  0  0  0
 30 38  1  6  0  0  0
 31 32  1  6  0  0  0
 31 40  1  0  0  0  0
 33 42  2  0  0  0  0
 34 35  1  0  0  0  0
 34 43  1  6  0  0  0
 36 37  1  6  0  0  0
 36 45  1  0  0  0  0
 38 39  1  0  0  0  0
 40 41  1  0  0  0  0
 40 48  1  1  0  0  0
 43 44  1  0  0  0  0
 45 46  1  1  0  0  0
 47 50  1  0  0  0  0
 48 49  1  0  0  0  0
 50 51  1  0  0  0  0
 51 52  1  0  0  0  0
 52  8  1  0  0  0  0
M  END
>  <CHROM.1>
-156.10211486,-47.89506284,174.14566239,-127.35977841,149.21714630,-143.03239950
-75.14013499,52.48289337,55.49631013,135.76109269,171.24264784,-131.78108040
76.03939895,141.77887503,-87.69551159,44.27542673,5.48699519,-4.51258879
-0.51362350,-0.59903054,2.47700873

>  <Name>
2be0_lig

>  <RI>
0

>  <Rbt.Current_Directory>
/home/itssahil/PROJECTS/Mol_Feturizer/New_Systems/rnas/2be0

>  <Rbt.Executable>
rbdock ($Id: //depot/dev/client3/rdock/2013.1/src/exe/rbdock.cxx#4 $)

>  <Rbt.Library>
libRbt.so (2013.1, Build901 2013/11/27)

>  <Rbt.Parameter_File>
/export/apps/rDock/src/rDock_2013.1_src/data/scripts/dock_solv.prm

>  <Rbt.Receptor>
prm/pocket_docking_2.prm

>  <SCORE>
11.4238

>  <SCORE.INTER>
1.97249

>  <SCORE.INTER.CONST>
1

>  <SCORE.INTER.POLAR>
-0.207957

>  <SCORE.INTER.ROT>
15

>  <SCORE.INTER.SOLV>
14.5204

>  <SCORE.INTER.VDW>
-16.432

>  <SCORE.INTER.norm>
0.0379324

>  <SCORE.INTRA>
0.864396

>  <SCORE.INTRA.DIHEDRAL>
-14.853

>  <SCORE.INTRA.DIHEDRAL.0>
47.8724

>  <SCORE.INTRA.POLAR>
0

>  <SCORE.INTRA.POLAR.0>
0

>  <SCORE.INTRA.REPUL>
0.0492712

>  <SCORE.INTRA.REPUL.0>
0

>  <SCORE.INTRA.SOLV>
8.72952

>  <SCORE.INTRA.SOLV.lig_0>
-115.677

>  <SCORE.INTRA.VDW>
3.67977

>  <SCORE.INTRA.VDW.0>
-7.4833

>  <SCORE.INTRA.norm>
0.016623

>  <SCORE.RESTR>
8.58691

>  <SCORE.RESTR.CAVITY>
8.58691

>  <SCORE.RESTR.norm>
0.165133

>  <SCORE.SYSTEM>
0

>  <SCORE.SYSTEM.CONST>
0

>  <SCORE.SYSTEM.DIHEDRAL>
0

>  <SCORE.SYSTEM.SOLV>
0

>  <SCORE.SYSTEM.norm>
0

>  <SCORE.heavy>
52

>  <SCORE.norm>
0.219688

>  <RMSD>
6.882

$$$$
2be0_lig
 OpenBabel11021811423D
libRbt.so/2013.1/901 2013/11/27
 52 56  0  0  0  0  0  0  0  0999 V2000
   40.3122    6.5688   -1.3683 C   0  0  2  0  0  0  0  0  0  0  0  0
   39.6893    6.3976   -2.6195 O   0  0  0  0  0  0  0  0  0  0  0  0
   39.6965    2.8525   -5.2277 C   0  0  2  0  0  0  0  0  0  0  0  0
   40.1908    1.8295   -6.1914 N   0  0  0  0  0  0  0  0  0  0  0  0
   41.8941    3.1613   -1.5504 C   0  0  2  0  0  0  0  0  0  0  0  0
   42.6485    3.5117   -0.3720 O   0  0  0  0  0  0  0  0  0  0  0  0
   44.9503    4.7369   -4.3765 C   0  0  1  0  0  0  0  0  0  0  0  0
   41.6248   -2.3921   -4.3835 C   0  0  0  0  0  0  0  0  0  0  0  0
   39.5577    7.6527   -0.4957 C   0  0  2  0  0  0  0  0  0  0  0  0
   38.1409    7.2996   -0.3834 N   0  0  0  0  0  0  0  0  0  0  0  0
   39.8524    4.3019   -5.8783 C   0  0  0  0  0  0  0  0  0  0  0  0
   42.8520    3.2936   -2.7451 C   0  0  2  0  0  0  0  0  0  0  0  0
   43.5525    1.9724   -2.7795 O   0  0  0  0  0  0  0  0  0  0  0  0
   46.5318    4.7097   -4.7498 C   0  0  2  0  0  0  0  0  0  0  0  0
   47.1706    5.9601   -4.2263 N   0  0  0  0  0  0  0  0  0  0  0  0
   40.3295   -1.9366   -4.7951 C   0  0  0  0  0  0  0  0  0  0  0  0
   39.8908   -2.1723   -6.1245 N   0  0  0  0  0  0  0  0  0  0  0  0
   39.7639    9.1007   -1.1412 C   0  0  1  0  0  0  0  0  0  0  0  0
   39.0743   10.0555   -0.3494 O   0  0  0  0  0  0  0  0  0  0  0  0
   39.3333    5.4563   -4.8450 C   0  0  2  0  0  0  0  0  0  0  0  0
   39.4661    6.7654   -5.4195 N   0  0  0  0  0  0  0  0  0  0  0  0
   43.6160    4.5536   -2.2962 C   0  0  2  0  0  0  0  0  0  0  0  0
   44.8506    4.8242   -2.9436 O   0  0  0  0  0  0  0  0  0  0  0  0
   46.6556    4.6290   -6.3013 C   0  0  1  0  0  0  0  0  0  0  0  0
   46.0145    3.3648   -6.6990 O   0  0  0  0  0  0  0  0  0  0  0  0
   40.6841   -2.8494   -7.0941 C   0  0  0  0  0  0  0  0  0  0  0  0
   41.2898    9.3992   -1.2108 C   0  0  2  0  0  0  0  0  0  0  0  0
   41.5452   10.7328   -1.8069 O   0  0  0  0  0  0  0  0  0  0  0  0
   40.1613    5.3820   -3.4965 C   0  0  2  0  0  0  0  0  0  0  0  0
   43.7389    4.3705   -0.7647 C   0  0  1  0  0  0  0  0  0  0  0  0
   45.9142    5.9048   -6.9857 C   0  0  2  0  0  0  0  0  0  0  0  0
   46.5495    7.1722   -6.5923 O   0  0  0  0  0  0  0  0  0  0  0  0
   41.9726   -3.3236   -6.7448 C   0  0  0  0  0  0  0  0  0  0  0  0
   42.0235    8.3092   -2.0831 C   0  0  2  0  0  0  0  0  0  0  0  0
   41.7333    7.0311   -1.4530 O   0  0  0  0  0  0  0  0  0  0  0  0
   39.9837    3.9401   -2.9062 C   0  0  2  0  0  0  0  0  0  0  0  0
   40.7486    3.9923   -1.7080 O   0  0  0  0  0  0  0  0  0  0  0  0
   43.5669    5.6848   -0.0050 C   0  0  0  0  0  0  0  0  0  0  0  0
   43.7697    5.6113    1.3860 O   0  0  0  0  0  0  0  0  0  0  0  0
   44.3760    5.9199   -6.5538 C   0  0  1  0  0  0  0  0  0  0  0  0
   44.3020    5.9509   -5.0411 O   0  0  0  0  0  0  0  0  0  0  0  0
   42.4770   -3.1019   -5.3698 C   0  0  0  0  0  0  0  0  0  0  0  0
   43.4597    8.6309   -2.0942 C   0  0  0  0  0  0  0  0  0  0  0  0
   43.6900    9.6136   -2.9739 O   0  0  0  0  0  0  0  0  0  0  0  0
   40.5252    2.8476   -3.9214 C   0  0  1  0  0  0  0  0  0  0  0  0
   40.3515    1.5758   -3.3885 O   0  0  0  0  0  0  0  0  0  0  0  0
   42.9693    0.6194   -2.6196 C   0  0  0  0  0  0  0  0  0  0  0  0
   43.7252    7.1600   -7.2249 C   0  0  0  0  0  0  0  0  0  0  0  0
   44.2943    8.3771   -6.7018 N   0  0  0  0  0  0  0  0  0  0  0  0
   43.9855   -0.3812   -3.1795 C   0  0  0  0  0  0  0  0  0  0  0  0
   43.6038   -1.7682   -2.7585 N   0  0  0  0  0  0  0  0  0  0  0  0
   42.0944   -2.1128   -2.8729 C   0  0  0  0  0  0  0  0  0  0  0  0
  1  2  1  6  0  0  0
  1  9  1  0  0  0  0
  1 35  1  0  0  0  0
  3  4  1  6  0  0  0
  3 11  1  0  0  0  0
  3 45  1  0  0  0  0
  5  6  1  0  0  0  0
  5 12  1  0  0  0  0
  5 37  1  6  0  0  0
  6 30  1  0  0  0  0
  7 14  1  0  0  0  0
  7 41  1  0  0  0  0
  7 23  1  1  0  0  0
  8 16  2  0  0  0  0
  8 42  1  0  0  0  0
  9 10  1  6  0  0  0
  9 18  1  0  0  0  0
 11 20  1  0  0  0  0
 12 13  1  1  0  0  0
 12 22  1  0  0  0  0
 13 47  1  0  0  0  0
 14 15  1  6  0  0  0
 14 24  1  0  0  0  0
 16 17  1  0  0  0  0
 17 26  2  0  0  0  0
 18 19  1  1  0  0  0
 18 27  1  0  0  0  0
 20 21  1  6  0  0  0
 20 29  1  0  0  0  0
 22 23  1  6  0  0  0
 22 30  1  0  0  0  0
 24 25  1  6  0  0  0
 24 31  1  0  0  0  0
 26 33  1  0  0  0  0
 27 28  1  6  0  0  0
 27 34  1  0  0  0  0
 29  2  1  1  0  0  0
 29 36  1  0  0  0  0
 30 38  1  1  0  0  0
 31 32  1  1  0  0  0
 31 40  1  0  0  0  0
 33 42  2  0  0  0  0
 34 35  1  0  0  0  0
 34 43  1  1  0  0  0
 36 37  1  1  0  0  0
 36 45  1  0  0  0  0
 38 39  1  0  0  0  0
 40 41  1  0  0  0  0
 40 48  1  6  0  0  0
 43 44  1  0  0  0  0
 45 46  1  1  0  0  0
 47 50  1  0  0  0  0
 48 49  1  0  0  0  0
 50 51  1  0  0  0  0
 51 52  1  0  0  0  0
 52  8  1  0  0  0  0
M  END
>  <CHROM.1>
-174.75403744,170.75452853,-165.23345003,43.62637800,161.87498344,46.12848901
-177.40887999,68.48229371,-79.33561308,-116.44772406,-65.04404734,166.76318125
43.49430058,76.16904929,-142.58172071,42.35542653,4.34059925,-3.50346863
1.57985668,0.61433769,0.27554408

>  <Name>
2be0_lig

>  <RI>
2.10017e+07

>  <Rbt.Current_Directory>
/home/itssahil/PROJECTS/Mol_Feturizer/New_Systems/rnas/2be0

>  <Rbt.Executable>
rbdock ($Id: //depot/dev/client3/rdock/2013.1/src/exe/rbdock.cxx#4 $)

>  <Rbt.Library>
libRbt.so (2013.1, Build901 2013/11/27)

>  <Rbt.Parameter_File>
/export/apps/rDock/src/rDock_2013.1_src/data/scripts/dock_solv.prm

>  <Rbt.Receptor>
prm/pocket_docking_3.prm

>  <SCORE>
-14.0648

>  <SCORE.INTER>
-7.27593

>  <SCORE.INTER.CONST>
1

>  <SCORE.INTER.POLAR>
-2.19153

>  <SCORE.INTER.ROT>
15

>  <SCORE.INTER.SOLV>
25.5049

>  <SCORE.INTER.VDW>
-19.6471

>  <SCORE.INTER.norm>
-0.139922

>  <SCORE.INTRA>
-7.8895

>  <SCORE.INTRA.DIHEDRAL>
-31.767

>  <SCORE.INTRA.DIHEDRAL.0>
47.8724

>  <SCORE.INTRA.POLAR>
0

>  <SCORE.INTRA.POLAR.0>
0

>  <SCORE.INTRA.REPUL>
0

>  <SCORE.INTRA.REPUL.0>
0

>  <SCORE.INTRA.SOLV>
-0.682715

>  <SCORE.INTRA.SOLV.lig_0>
-115.677

>  <SCORE.INTRA.VDW>
8.33535

>  <SCORE.INTRA.VDW.0>
-7.4833

>  <SCORE.INTRA.norm>
-0.151721

>  <SCORE.RESTR>
1.10061

>  <SCORE.RESTR.CAVITY>
1.10061

>  <SCORE.RESTR.norm>
0.0211655

>  <SCORE.SYSTEM>
0

>  <SCORE.SYSTEM.CONST>
0

>  <SCORE.SYSTEM.DIHEDRAL>
0

>  <SCORE.SYSTEM.SOLV>
0

>  <SCORE.SYSTEM.norm>
0

>  <SCORE.heavy>
52

>  <SCORE.norm>
-0.270477

>  <RMSD>
6.927

$$$$
2be0_lig
 OpenBabel11021811423D
libRbt.so/2013.1/901 2013/11/27
 52 56  0  0  0  0  0  0  0  0999 V2000
   45.5357    6.2390   -7.5445 C   0  0  2  0  0  0  0  0  0  0  0  0
   45.0604    6.1511   -6.2220 O   0  0  0  0  0  0  0  0  0  0  0  0
   47.0783    2.4451   -4.9711 C   0  0  2  0  0  0  0  0  0  0  0  0
   47.5800    1.3609   -4.0810 N   0  0  0  0  0  0  0  0  0  0  0  0
   42.9513    4.4301   -4.7847 C   0  0  2  0  0  0  0  0  0  0  0  0
   43.5214    4.0135   -3.5270 O   0  0  0  0  0  0  0  0  0  0  0  0
   39.6600    1.1370   -4.0734 C   0  0  1  0  0  0  0  0  0  0  0  0
   39.7935    6.3407    0.2238 C   0  0  0  0  0  0  0  0  0  0  0  0
   45.1621    7.6322   -8.1965 C   0  0  2  0  0  0  0  0  0  0  0  0
   45.6421    8.7225   -7.3448 N   0  0  0  0  0  0  0  0  0  0  0  0
   47.6253    3.8491   -4.4441 C   0  0  0  0  0  0  0  0  0  0  0  0
   41.4579    4.0700   -4.7352 C   0  0  2  0  0  0  0  0  0  0  0  0
   40.8380    5.2436   -4.0455 O   0  0  0  0  0  0  0  0  0  0  0  0
   40.5546   -0.2107   -3.9166 C   0  0  2  0  0  0  0  0  0  0  0  0
   41.8921    0.0241   -4.5504 N   0  0  0  0  0  0  0  0  0  0  0  0
   40.2036    4.9731    0.0959 C   0  0  0  0  0  0  0  0  0  0  0  0
   40.1841    4.1238    1.2331 N   0  0  0  0  0  0  0  0  0  0  0  0
   43.5829    7.7086   -8.4329 C   0  0  1  0  0  0  0  0  0  0  0  0
   43.2684    8.9664   -9.0102 O   0  0  0  0  0  0  0  0  0  0  0  0
   47.0848    5.0690   -5.3872 C   0  0  2  0  0  0  0  0  0  0  0  0
   47.5718    6.3380   -4.9247 N   0  0  0  0  0  0  0  0  0  0  0  0
   41.5654    2.7199   -4.0012 C   0  0  2  0  0  0  0  0  0  0  0  0
   40.3754    2.2032   -3.4238 O   0  0  0  0  0  0  0  0  0  0  0  0
   39.7978   -1.3726   -4.6282 C   0  0  1  0  0  0  0  0  0  0  0  0
   38.5169   -1.5236   -3.9183 O   0  0  0  0  0  0  0  0  0  0  0  0
   39.7723    4.5647    2.5231 C   0  0  0  0  0  0  0  0  0  0  0  0
   43.1622    6.5269   -9.3542 C   0  0  2  0  0  0  0  0  0  0  0  0
   41.7011    6.5425   -9.6073 O   0  0  0  0  0  0  0  0  0  0  0  0
   45.5007    5.0799   -5.3961 C   0  0  2  0  0  0  0  0  0  0  0  0
   42.7047    2.9570   -2.9815 C   0  0  1  0  0  0  0  0  0  0  0  0
   39.5617   -1.0054   -6.1952 C   0  0  2  0  0  0  0  0  0  0  0  0
   40.8378   -0.8525   -6.9111 O   0  0  0  0  0  0  0  0  0  0  0  0
   39.3552    5.9055    2.7104 C   0  0  0  0  0  0  0  0  0  0  0  0
   43.5428    5.1487   -8.6883 C   0  0  2  0  0  0  0  0  0  0  0  0
   44.9787    5.1967   -8.4630 O   0  0  0  0  0  0  0  0  0  0  0  0
   45.0166    3.6795   -5.9096 C   0  0  2  0  0  0  0  0  0  0  0  0
   43.6001    3.8069   -5.8885 O   0  0  0  0  0  0  0  0  0  0  0  0
   43.6066    1.7344   -2.8205 C   0  0  0  0  0  0  0  0  0  0  0  0
   43.0687    0.6813   -2.0570 O   0  0  0  0  0  0  0  0  0  0  0  0
   38.7215    0.3494   -6.3026 C   0  0  1  0  0  0  0  0  0  0  0  0
   39.4682    1.4379   -5.5595 O   0  0  0  0  0  0  0  0  0  0  0  0
   39.3581    6.8324    1.5549 C   0  0  0  0  0  0  0  0  0  0  0  0
   43.1420    4.0748   -9.6114 C   0  0  0  0  0  0  0  0  0  0  0  0
   41.8072    3.9700   -9.6212 O   0  0  0  0  0  0  0  0  0  0  0  0
   45.5333    2.5225   -4.9548 C   0  0  1  0  0  0  0  0  0  0  0  0
   45.1051    1.2881   -5.4287 O   0  0  0  0  0  0  0  0  0  0  0  0
   40.6233    6.6113   -4.5743 C   0  0  0  0  0  0  0  0  0  0  0  0
   38.5377    0.6543   -7.8141 C   0  0  0  0  0  0  0  0  0  0  0  0
   37.5390    1.6760   -8.0079 N   0  0  0  0  0  0  0  0  0  0  0  0
   40.8719    7.5877   -3.4201 C   0  0  0  0  0  0  0  0  0  0  0  0
   40.8845    6.8350   -2.1239 N   0  0  0  0  0  0  0  0  0  0  0  0
   39.8244    7.2785   -1.0800 C   0  0  0  0  0  0  0  0  0  0  0  0
  1  2  1  1  0  0  0
  1  9  1  0  0  0  0
  1 35  1  0  0  0  0
  3  4  1  1  0  0  0
  3 11  1  0  0  0  0
  3 45  1  0  0  0  0
  5  6  1  0  0  0  0
  5 12  1  0  0  0  0
  5 37  1  6  0  0  0
  6 30  1  0  0  0  0
  7 14  1  0  0  0  0
  7 41  1  0  0  0  0
  7 23  1  1  0  0  0
  8 16  2  0  0  0  0
  8 42  1  0  0  0  0
  9 10  1  1  0  0  0
  9 18  1  0  0  0  0
 11 20  1  0  0  0  0
 12 13  1  1  0  0  0
 12 22  1  0  0  0  0
 13 47  1  0  0  0  0
 14 15  1  6  0  0  0
 14 24  1  0  0  0  0
 16 17  1  0  0  0  0
 17 26  2  0  0  0  0
 18 19  1  6  0  0  0
 18 27  1  0  0  0  0
 20 21  1  1  0  0  0
 20 29  1  0  0  0  0
 22 23  1  1  0  0  0
 22 30  1  0  0  0  0
 24 25  1  1  0  0  0
 24 31  1  0  0  0  0
 26 33  1  0  0  0  0
 27 28  1  1  0  0  0
 27 34  1  0  0  0  0
 29  2  1  6  0  0  0
 29 36  1  0  0  0  0
 30 38  1  6  0  0  0
 31 32  1  6  0  0  0
 31 40  1  0  0  0  0
 33 42  2  0  0  0  0
 34 35  1  0  0  0  0
 34 43  1  6  0  0  0
 36 37  1  1  0  0  0
 36 45  1  0  0  0  0
 38 39  1  0  0  0  0
 40 41  1  0  0  0  0
 40 48  1  6  0  0  0
 43 44  1  0  0  0  0
 45 46  1  6  0  0  0
 47 50  1  0  0  0  0
 48 49  1  0  0  0  0
 50 51  1  0  0  0  0
 51 52  1  0  0  0  0
 52  8  1  0  0  0  0
M  END
>  <CHROM.1>
-168.85273729,-42.36212118,70.93084057,72.32172857,-142.75586074,102.84724237
53.96151318,167.80276148,-71.97951999,-42.93323502,166.69814083,-14.61747662
-120.68675518,174.26410144,-27.57624360,42.39182100,3.85587115,-4.88684042
-0.33810698,0.89172053,0.91891943

>  <Name>
2be0_lig

>  <RI>
2.10017e+07

>  <Rbt.Current_Directory>
/home/itssahil/PROJECTS/Mol_Feturizer/New_Systems/rnas/2be0

>  <Rbt.Executable>
rbdock ($Id: //depot/dev/client3/rdock/2013.1/src/exe/rbdock.cxx#4 $)

>  <Rbt.Library>
libRbt.so (2013.1, Build901 2013/11/27)

>  <Rbt.Parameter_File>
/export/apps/rDock/src/rDock_2013.1_src/data/scripts/dock_solv.prm

>  <Rbt.Receptor>
prm/pocket_docking_3.prm

>  <SCORE>
-4.37056

>  <SCORE.INTER>
1.30855

>  <SCORE.INTER.CONST>
1

>  <SCORE.INTER.POLAR>
-0.959166

>  <SCORE.INTER.ROT>
15

>  <SCORE.INTER.SOLV>
14.5235

>  <SCORE.INTER.VDW>
-14.3716

>  <SCORE.INTER.norm>
0.0251644

>  <SCORE.INTRA>
-6.0035

>  <SCORE.INTRA.DIHEDRAL>
-23.5327

>  <SCORE.INTRA.DIHEDRAL.0>
47.8724

>  <SCORE.INTRA.POLAR>
0

>  <SCORE.INTRA.POLAR.0>
0

>  <SCORE.INTRA.REPUL>
0.0197479

>  <SCORE.INTRA.REPUL.0>
0

>  <SCORE.INTRA.SOLV>
2.68104

>  <SCORE.INTRA.SOLV.lig_0>
-115.677

>  <SCORE.INTRA.VDW>
4.32361

>  <SCORE.INTRA.VDW.0>
-7.4833

>  <SCORE.INTRA.norm>
-0.115452

>  <SCORE.RESTR>
0.324382

>  <SCORE.RESTR.CAVITY>
0.324382

>  <SCORE.RESTR.norm>
0.00623812

>  <SCORE.SYSTEM>
0

>  <SCORE.SYSTEM.CONST>
0

>  <SCORE.SYSTEM.DIHEDRAL>
0

>  <SCORE.SYSTEM.SOLV>
0

>  <SCORE.SYSTEM.norm>
0

>  <SCORE.heavy>
52

>  <SCORE.norm>
-0.0840493

>  <RMSD>
6.945

$$$$
2be0_lig
 OpenBabel11021811423D
libRbt.so/2013.1/901 2013/11/27
 52 56  0  0  0  0  0  0  0  0999 V2000
   44.3442    6.8301   -4.1828 C   0  0  2  0  0  0  0  0  0  0  0  0
   43.1365    6.7665   -4.9042 O   0  0  0  0  0  0  0  0  0  0  0  0
   42.3642    7.1296   -9.2219 C   0  0  2  0  0  0  0  0  0  0  0  0
   42.4607    6.8630  -10.6844 N   0  0  0  0  0  0  0  0  0  0  0  0
   39.9616    4.6665   -6.1558 C   0  0  2  0  0  0  0  0  0  0  0  0
   39.2138    5.3347   -5.1191 O   0  0  0  0  0  0  0  0  0  0  0  0
   39.9848    0.7122   -4.0027 C   0  0  1  0  0  0  0  0  0  0  0  0
   40.5482   -2.0681   -8.6668 C   0  0  0  0  0  0  0  0  0  0  0  0
   44.9251    5.3833   -3.9088 C   0  0  2  0  0  0  0  0  0  0  0  0
   45.0535    4.6535   -5.1719 N   0  0  0  0  0  0  0  0  0  0  0  0
   43.8172    7.4720   -8.6561 C   0  0  0  0  0  0  0  0  0  0  0  0
   39.8071    3.1571   -5.9106 C   0  0  2  0  0  0  0  0  0  0  0  0
   38.5214    2.8212   -6.5973 O   0  0  0  0  0  0  0  0  0  0  0  0
   39.1591   -0.3973   -3.1492 C   0  0  2  0  0  0  0  0  0  0  0  0
   39.2745   -0.0661   -1.6923 N   0  0  0  0  0  0  0  0  0  0  0  0
   41.3457   -2.6255   -9.7194 C   0  0  0  0  0  0  0  0  0  0  0  0
   42.6382   -3.1350   -9.4279 N   0  0  0  0  0  0  0  0  0  0  0  0
   43.9862    4.6156   -2.8672 C   0  0  1  0  0  0  0  0  0  0  0  0
   44.5195    3.3199   -2.6413 O   0  0  0  0  0  0  0  0  0  0  0  0
   43.7571    7.7577   -7.0484 C   0  0  2  0  0  0  0  0  0  0  0  0
   45.0581    8.0694   -6.5274 N   0  0  0  0  0  0  0  0  0  0  0  0
   39.8748    3.1602   -4.3717 C   0  0  2  0  0  0  0  0  0  0  0  0
   39.4099    1.9968   -3.7032 O   0  0  0  0  0  0  0  0  0  0  0  0
   39.7802   -1.7941   -3.4533 C   0  0  1  0  0  0  0  0  0  0  0  0
   39.5971   -2.0192   -4.8967 O   0  0  0  0  0  0  0  0  0  0  0  0
   43.2001   -3.1212   -8.1195 C   0  0  0  0  0  0  0  0  0  0  0  0
   43.9160    5.4500   -1.5553 C   0  0  2  0  0  0  0  0  0  0  0  0
   43.0524    4.7877   -0.5480 O   0  0  0  0  0  0  0  0  0  0  0  0
   43.1750    6.4893   -6.2988 C   0  0  2  0  0  0  0  0  0  0  0  0
   39.1158    4.4513   -3.9831 C   0  0  1  0  0  0  0  0  0  0  0  0
   41.3566   -1.8012   -3.0526 C   0  0  2  0  0  0  0  0  0  0  0  0
   41.5473   -1.5763   -1.6112 O   0  0  0  0  0  0  0  0  0  0  0  0
   42.4582   -2.5838   -7.0388 C   0  0  0  0  0  0  0  0  0  0  0  0
   43.3358    6.8870   -1.8486 C   0  0  2  0  0  0  0  0  0  0  0  0
   44.2188    7.4799   -2.8404 O   0  0  0  0  0  0  0  0  0  0  0  0
   41.7568    6.1903   -6.8973 C   0  0  2  0  0  0  0  0  0  0  0  0
   41.3311    5.0565   -6.1512 O   0  0  0  0  0  0  0  0  0  0  0  0
   39.7602    5.1728   -2.8006 C   0  0  0  0  0  0  0  0  0  0  0  0
   41.1667    5.1346   -2.7613 O   0  0  0  0  0  0  0  0  0  0  0  0
   42.1196   -0.6653   -3.8775 C   0  0  1  0  0  0  0  0  0  0  0  0
   41.4555    0.6655   -3.5898 O   0  0  0  0  0  0  0  0  0  0  0  0
   41.1042   -2.0387   -7.2909 C   0  0  0  0  0  0  0  0  0  0  0  0
   43.3138    7.6330   -0.5802 C   0  0  0  0  0  0  0  0  0  0  0  0
   42.3770    7.1165    0.2251 O   0  0  0  0  0  0  0  0  0  0  0  0
   41.8561    5.8879   -8.4517 C   0  0  1  0  0  0  0  0  0  0  0  0
   40.5910    5.6352   -8.9687 O   0  0  0  0  0  0  0  0  0  0  0  0
   37.9317    1.4832   -6.8387 C   0  0  0  0  0  0  0  0  0  0  0  0
   43.6109   -0.7119   -3.4472 C   0  0  0  0  0  0  0  0  0  0  0  0
   44.3971    0.1986   -4.2420 N   0  0  0  0  0  0  0  0  0  0  0  0
   38.9589    0.6722   -7.6353 C   0  0  0  0  0  0  0  0  0  0  0  0
   38.4367   -0.7155   -7.8553 N   0  0  0  0  0  0  0  0  0  0  0  0
   39.0889   -1.5003   -9.0253 C   0  0  0  0  0  0  0  0  0  0  0  0
  1  2  1  1  0  0  0
  1  9  1  0  0  0  0
  1 35  1  0  0  0  0
  3  4  1  6  0  0  0
  3 11  1  0  0  0  0
  3 45  1  0  0  0  0
  5  6  1  0  0  0  0
  5 12  1  0  0  0  0
  5 37  1  1  0  0  0
  6 30  1  0  0  0  0
  7 14  1  0  0  0  0
  7 41  1  0  0  0  0
  7 23  1  1  0  0  0
  8 16  2  0  0  0  0
  8 42  1  0  0  0  0
  9 10  1  6  0  0  0
  9 18  1  0  0  0  0
 11 20  1  0  0  0  0
 12 13  1  1  0  0  0
 12 22  1  0  0  0  0
 13 47  1  0  0  0  0
 14 15  1  1  0  0  0
 14 24  1  0  0  0  0
 16 17  1  0  0  0  0
 17 26  2  0  0  0  0
 18 19  1  1  0  0  0
 18 27  1  0  0  0  0
 20 21  1  1  0  0  0
 20 29  1  0  0  0  0
 22 23  1  1  0  0  0
 22 30  1  0  0  0  0
 24 25  1  6  0  0  0
 24 31  1  0  0  0  0
 26 33  1  0  0  0  0
 27 28  1  1  0  0  0
 27 34  1  0  0  0  0
 29  2  1  1  0  0  0
 29 36  1  0  0  0  0
 30 38  1  1  0  0  0
 31 32  1  1  0  0  0
 31 40  1  0  0  0  0
 33 42  2  0  0  0  0
 34 35  1  0  0  0  0
 34 43  1  1  0  0  0
 36 37  1  1  0  0  0
 36 45  1  0  0  0  0
 38 39  1  0  0  0  0
 40 41  1  0  0  0  0
 40 48  1  1  0  0  0
 43 44  1  0  0  0  0
 45 46  1  6  0  0  0
 47 50  1  0  0  0  0
 48 49  1  0  0  0  0
 50 51  1  0  0  0  0
 51 52  1  0  0  0  0
 52  8  1  0  0  0  0
M  END
>  <CHROM.1>
-76.13666967,-88.32373062,-176.06758705,172.04538551,-57.57804262,56.90549152
-71.40198465,-79.66832852,-69.90882538,164.46634989,174.45124800,177.49419770
159.64035861,76.64629170,-170.27061257,41.66465025,2.94008474,-5.12374523
-0.15503025,1.27423280,1.97717218

>  <Name>
2be0_lig

>  <RI>
2.75444e+07

>  <Rbt.Current_Directory>
/home/itssahil/PROJECTS/Mol_Feturizer/New_Systems/rnas/2be0

>  <Rbt.Executable>
rbdock ($Id: //depot/dev/client3/rdock/2013.1/src/exe/rbdock.cxx#4 $)

>  <Rbt.Library>
libRbt.so (2013.1, Build901 2013/11/27)

>  <Rbt.Parameter_File>
/export/apps/rDock/src/rDock_2013.1_src/data/scripts/dock_solv.prm

>  <Rbt.Receptor>
prm/pocket_docking_5.prm

>  <SCORE>
-26.8972

>  <SCORE.INTER>
-10.1799

>  <SCORE.INTER.CONST>
1

>  <SCORE.INTER.POLAR>
-1.70101

>  <SCORE.INTER.ROT>
15

>  <SCORE.INTER.SOLV>
15.5743

>  <SCORE.INTER.VDW>
-19.908

>  <SCORE.INTER.norm>
-0.195768

>  <SCORE.INTRA>
-16.7172

>  <SCORE.INTRA.DIHEDRAL>
-37.7442

>  <SCORE.INTRA.DIHEDRAL.0>
47.8724

>  <SCORE.INTRA.POLAR>
0

>  <SCORE.INTRA.POLAR.0>
0

>  <SCORE.INTRA.REPUL>
0.0790191

>  <SCORE.INTRA.REPUL.0>
0

>  <SCORE.INTRA.SOLV>
2.93249

>  <SCORE.INTRA.SOLV.lig_0>
-115.677

>  <SCORE.INTRA.VDW>
0.293529

>  <SCORE.INTRA.VDW.0>
-7.4833

>  <SCORE.INTRA.norm>
-0.321486

>  <SCORE.RESTR>
0

>  <SCORE.RESTR.CAVITY>
0

>  <SCORE.RESTR.norm>
0

>  <SCORE.SYSTEM>
0

>  <SCORE.SYSTEM.CONST>
0

>  <SCORE.SYSTEM.DIHEDRAL>
0

>  <SCORE.SYSTEM.SOLV>
0

>  <SCORE.SYSTEM.norm>
0

>  <SCORE.heavy>
52

>  <SCORE.norm>
-0.517253

>  <RMSD>
6.954

$$$$
2be0_lig
 OpenBabel11021811423D
libRbt.so/2013.1/901 2013/11/27
 52 56  0  0  0  0  0  0  0  0999 V2000
   43.8312    6.6247   -7.0877 C   0  0  2  0  0  0  0  0  0  0  0  0
   44.8176    5.6474   -7.3215 O   0  0  0  0  0  0  0  0  0  0  0  0
   48.6348    4.4207   -5.5063 C   0  0  2  0  0  0  0  0  0  0  0  0
   49.7023    4.2514   -4.4810 N   0  0  0  0  0  0  0  0  0  0  0  0
   44.2212    3.8466   -4.7016 C   0  0  2  0  0  0  0  0  0  0  0  0
   44.6191    3.2413   -3.4544 O   0  0  0  0  0  0  0  0  0  0  0  0
   40.5738    0.9618   -4.8955 C   0  0  1  0  0  0  0  0  0  0  0  0
   40.6155    6.1869    0.7059 C   0  0  0  0  0  0  0  0  0  0  0  0
   42.5830    6.4185   -8.0392 C   0  0  2  0  0  0  0  0  0  0  0  0
   42.0753    5.0518   -7.9013 N   0  0  0  0  0  0  0  0  0  0  0  0
   48.3127    5.9752   -5.6737 C   0  0  0  0  0  0  0  0  0  0  0  0
   42.7154    3.5828   -4.8615 C   0  0  2  0  0  0  0  0  0  0  0  0
   42.0815    4.7009   -4.0964 O   0  0  0  0  0  0  0  0  0  0  0  0
   39.3397    0.2798   -4.0872 C   0  0  2  0  0  0  0  0  0  0  0  0
   39.8976   -0.6668   -3.0681 N   0  0  0  0  0  0  0  0  0  0  0  0
   39.8097    6.8238    1.7059 C   0  0  0  0  0  0  0  0  0  0  0  0
   40.2629    8.0230    2.3154 N   0  0  0  0  0  0  0  0  0  0  0  0
   42.9954    6.7541   -9.5469 C   0  0  1  0  0  0  0  0  0  0  0  0
   41.8663    6.5560  -10.3835 O   0  0  0  0  0  0  0  0  0  0  0  0
   47.1339    6.2035   -6.7819 C   0  0  2  0  0  0  0  0  0  0  0  0
   46.8362    7.5987   -6.9435 N   0  0  0  0  0  0  0  0  0  0  0  0
   42.6669    2.1484   -4.3020 C   0  0  2  0  0  0  0  0  0  0  0  0
   41.3927    1.6444   -3.9291 O   0  0  0  0  0  0  0  0  0  0  0  0
   38.4505   -0.4756   -5.1205 C   0  0  1  0  0  0  0  0  0  0  0  0
   37.9479    0.5460   -6.0539 O   0  0  0  0  0  0  0  0  0  0  0  0
   41.5018    8.6416    1.9829 C   0  0  0  0  0  0  0  0  0  0  0  0
   43.5090    8.2222   -9.6047 C   0  0  2  0  0  0  0  0  0  0  0  0
   43.9118    8.5919  -10.9832 O   0  0  0  0  0  0  0  0  0  0  0  0
   45.8243    5.4290   -6.3406 C   0  0  2  0  0  0  0  0  0  0  0  0
   43.6910    2.1820   -3.1427 C   0  0  1  0  0  0  0  0  0  0  0  0
   39.3332   -1.5990   -5.8981 C   0  0  2  0  0  0  0  0  0  0  0  0
   39.8392   -2.6233   -4.9712 O   0  0  0  0  0  0  0  0  0  0  0  0
   42.3401    8.0586    1.0009 C   0  0  0  0  0  0  0  0  0  0  0  0
   44.7511    8.4077   -8.6507 C   0  0  2  0  0  0  0  0  0  0  0  0
   44.2955    8.0280   -7.3228 O   0  0  0  0  0  0  0  0  0  0  0  0
   46.1968    3.9142   -6.1804 C   0  0  2  0  0  0  0  0  0  0  0  0
   44.9603    3.3227   -5.8001 O   0  0  0  0  0  0  0  0  0  0  0  0
   44.5034    0.8918   -3.0452 C   0  0  0  0  0  0  0  0  0  0  0  0
   43.7654   -0.2670   -2.7394 O   0  0  0  0  0  0  0  0  0  0  0  0
   40.5607   -0.8920   -6.6372 C   0  0  1  0  0  0  0  0  0  0  0  0
   41.3697   -0.1326   -5.6059 O   0  0  0  0  0  0  0  0  0  0  0  0
   41.9127    6.8060    0.3357 C   0  0  0  0  0  0  0  0  0  0  0  0
   45.1767    9.8142   -8.7313 C   0  0  0  0  0  0  0  0  0  0  0  0
   45.6798   10.1965   -7.5508 O   0  0  0  0  0  0  0  0  0  0  0  0
   47.3208    3.7265   -5.0764 C   0  0  1  0  0  0  0  0  0  0  0  0
   47.6468    2.3811   -4.9537 O   0  0  0  0  0  0  0  0  0  0  0  0
   41.1485    4.6146   -2.9481 C   0  0  0  0  0  0  0  0  0  0  0  0
   41.3701   -2.0097   -7.3495 C   0  0  0  0  0  0  0  0  0  0  0  0
   40.5130   -2.7873   -8.2094 N   0  0  0  0  0  0  0  0  0  0  0  0
   41.9993    4.5829   -1.6743 C   0  0  0  0  0  0  0  0  0  0  0  0
   41.2118    3.9557   -0.5639 N   0  0  0  0  0  0  0  0  0  0  0  0
   40.0771    4.8317    0.0322 C   0  0  0  0  0  0  0  0  0  0  0  0
  1  2  1  6  0  0  0
  1  9  1  0  0  0  0
  1 35  1  0  0  0  0
  3  4  1  1  0  0  0
  3 11  1  0  0  0  0
  3 45  1  0  0  0  0
  5  6  1  0  0  0  0
  5 12  1  0  0  0  0
  5 37  1  6  0  0  0
  6 30  1  0  0  0  0
  7 14  1  0  0  0  0
  7 41  1  0  0  0  0
  7 23  1  1  0  0  0
  8 16  2  0  0  0  0
  8 42  1  0  0  0  0
  9 10  1  6  0  0  0
  9 18  1  0  0  0  0
 11 20  1  0  0  0  0
 12 13  1  1  0  0  0
 12 22  1  0  0  0  0
 13 47  1  0  0  0  0
 14 15  1  1  0  0  0
 14 24  1  0  0  0  0
 16 17  1  0  0  0  0
 17 26  2  0  0  0  0
 18 19  1  6  0  0  0
 18 27  1  0  0  0  0
 20 21  1  1  0  0  0
 20 29  1  0  0  0  0
 22 23  1  1  0  0  0
 22 30  1  0  0  0  0
 24 25  1  6  0  0  0
 24 31  1  0  0  0  0
 26 33  1  0  0  0  0
 27 28  1  6  0  0  0
 27 34  1  0  0  0  0
 29  2  1  6  0  0  0
 29 36  1  0  0  0  0
 30 38  1  6  0  0  0
 31 32  1  1  0  0  0
 31 40  1  0  0  0  0
 33 42  2  0  0  0  0
 34 35  1  0  0  0  0
 34 43  1  1  0  0  0
 36 37  1  1  0  0  0
 36 45  1  0  0  0  0
 38 39  1  0  0  0  0
 40 41  1  0  0  0  0
 40 48  1  1  0  0  0
 43 44  1  0  0  0  0
 45 46  1  6  0  0  0
 47 50  1  0  0  0  0
 48 49  1  0  0  0  0
 50 51  1  0  0  0  0
 51 52  1  0  0  0  0
 52  8  1  0  0  0  0
M  END
>  <CHROM.1>
-162.47053379,-88.53217205,169.44713827,-121.72560210,89.32901390,89.06603357
-99.10523645,179.78150236,147.94286193,-52.52799238,54.22828413,-157.24385536
-73.45441060,-62.11754340,-156.67935500,43.04564025,4.05994174,-4.94930474
-0.19111154,-0.99109717,-2.26906336

>  <Name>
2be0_lig

>  <RI>
0

>  <Rbt.Current_Directory>
/home/itssahil/PROJECTS/Mol_Feturizer/New_Systems/rnas/2be0

>  <Rbt.Executable>
rbdock ($Id: //depot/dev/client3/rdock/2013.1/src/exe/rbdock.cxx#4 $)

>  <Rbt.Library>
libRbt.so (2013.1, Build901 2013/11/27)

>  <Rbt.Parameter_File>
/export/apps/rDock/src/rDock_2013.1_src/data/scripts/dock_solv.prm

>  <Rbt.Receptor>
prm/pocket_docking_2.prm

>  <SCORE>
-1.82128

>  <SCORE.INTER>
-0.49887

>  <SCORE.INTER.CONST>
1

>  <SCORE.INTER.POLAR>
-0.668922

>  <SCORE.INTER.ROT>
15

>  <SCORE.INTER.SOLV>
12.9153

>  <SCORE.INTER.VDW>
-16.0079

>  <SCORE.INTER.norm>
-0.00959366

>  <SCORE.INTRA>
-4.66011

>  <SCORE.INTRA.DIHEDRAL>
-17.7026

>  <SCORE.INTRA.DIHEDRAL.0>
47.8724

>  <SCORE.INTRA.POLAR>
0

>  <SCORE.INTRA.POLAR.0>
0

>  <SCORE.INTRA.REPUL>
0

>  <SCORE.INTRA.REPUL.0>
0

>  <SCORE.INTRA.SOLV>
2.86565

>  <SCORE.INTRA.SOLV.lig_0>
-115.677

>  <SCORE.INTRA.VDW>
2.75835

>  <SCORE.INTRA.VDW.0>
-7.4833

>  <SCORE.INTRA.norm>
-0.0896176

>  <SCORE.RESTR>
3.33771

>  <SCORE.RESTR.CAVITY>
3.33771

>  <SCORE.RESTR.norm>
0.0641867

>  <SCORE.SYSTEM>
0

>  <SCORE.SYSTEM.CONST>
0

>  <SCORE.SYSTEM.DIHEDRAL>
0

>  <SCORE.SYSTEM.SOLV>
0

>  <SCORE.SYSTEM.norm>
0

>  <SCORE.heavy>
52

>  <SCORE.norm>
-0.0350246

>  <RMSD>
6.978

$$$$
2be0_lig
 OpenBabel11021811423D
libRbt.so/2013.1/901 2013/11/27
 52 56  0  0  0  0  0  0  0  0999 V2000
   43.0532    1.0135   -7.0005 C   0  0  2  0  0  0  0  0  0  0  0  0
   44.1927    0.4993   -7.6484 O   0  0  0  0  0  0  0  0  0  0  0  0
   47.6234    2.7450   -9.2479 C   0  0  2  0  0  0  0  0  0  0  0  0
   48.4277    3.5961  -10.1689 N   0  0  0  0  0  0  0  0  0  0  0  0
   44.5055    4.4247   -6.4451 C   0  0  2  0  0  0  0  0  0  0  0  0
   45.2433    4.1851   -5.2292 O   0  0  0  0  0  0  0  0  0  0  0  0
   41.5167    3.6506   -2.7737 C   0  0  1  0  0  0  0  0  0  0  0  0
   44.6749    7.4476   -8.7183 C   0  0  0  0  0  0  0  0  0  0  0  0
   42.1320   -0.1506   -6.4510 C   0  0  2  0  0  0  0  0  0  0  0  0
   42.9184   -1.0438   -5.5975 N   0  0  0  0  0  0  0  0  0  0  0  0
   47.0743    1.4796  -10.0514 C   0  0  0  0  0  0  0  0  0  0  0  0
   43.1272    4.9623   -6.0283 C   0  0  2  0  0  0  0  0  0  0  0  0
   43.3607    6.4301   -5.8601 O   0  0  0  0  0  0  0  0  0  0  0  0
   40.8732    2.2939   -3.3955 C   0  0  2  0  0  0  0  0  0  0  0  0
   39.6849    2.6645   -4.2300 N   0  0  0  0  0  0  0  0  0  0  0  0
   43.8610    8.5459   -9.1497 C   0  0  0  0  0  0  0  0  0  0  0  0
   42.6634    8.2937   -9.8690 N   0  0  0  0  0  0  0  0  0  0  0  0
   41.4624   -0.9297   -7.6759 C   0  0  1  0  0  0  0  0  0  0  0  0
   40.6478   -1.9724   -7.1628 O   0  0  0  0  0  0  0  0  0  0  0  0
   46.1729    0.5256   -9.0780 C   0  0  2  0  0  0  0  0  0  0  0  0
   45.6746   -0.6181   -9.7886 N   0  0  0  0  0  0  0  0  0  0  0  0
   42.8941    4.0774   -4.7892 C   0  0  2  0  0  0  0  0  0  0  0  0
   41.8866    4.4941   -3.8793 O   0  0  0  0  0  0  0  0  0  0  0  0
   40.4547    1.3753   -2.2080 C   0  0  1  0  0  0  0  0  0  0  0  0
   41.6923    1.0643   -1.4737 O   0  0  0  0  0  0  0  0  0  0  0  0
   42.2165    6.9814  -10.1949 C   0  0  0  0  0  0  0  0  0  0  0  0
   40.6393    0.0871   -8.5190 C   0  0  2  0  0  0  0  0  0  0  0  0
   39.9949   -0.5789   -9.6768 O   0  0  0  0  0  0  0  0  0  0  0  0
   44.9586    1.3545   -8.4883 C   0  0  2  0  0  0  0  0  0  0  0  0
   44.3023    3.9685   -4.1575 C   0  0  1  0  0  0  0  0  0  0  0  0
   39.3853    2.1482   -1.2568 C   0  0  2  0  0  0  0  0  0  0  0  0
   38.1458    2.4626   -1.9842 O   0  0  0  0  0  0  0  0  0  0  0  0
   42.9789    5.8567   -9.7939 C   0  0  0  0  0  0  0  0  0  0  0  0
   41.5735    1.2384   -9.0567 C   0  0  2  0  0  0  0  0  0  0  0  0
   42.1754    1.8468   -7.8809 O   0  0  0  0  0  0  0  0  0  0  0  0
   45.5501    2.5875   -7.7209 C   0  0  2  0  0  0  0  0  0  0  0  0
   44.3869    3.2427   -7.2301 O   0  0  0  0  0  0  0  0  0  0  0  0
   44.5820    2.5765   -3.5933 C   0  0  0  0  0  0  0  0  0  0  0  0
   44.6306    1.5373   -4.5413 O   0  0  0  0  0  0  0  0  0  0  0  0
   40.0411    3.4977   -0.7075 C   0  0  1  0  0  0  0  0  0  0  0  0
   40.4750    4.3374   -1.8912 O   0  0  0  0  0  0  0  0  0  0  0  0
   44.2375    6.0666   -9.0415 C   0  0  0  0  0  0  0  0  0  0  0  0
   40.7386    2.1761   -9.8248 C   0  0  0  0  0  0  0  0  0  0  0  0
   41.5213    3.0820  -10.4245 O   0  0  0  0  0  0  0  0  0  0  0  0
   46.3929    3.5071   -8.7014 C   0  0  1  0  0  0  0  0  0  0  0  0
   46.9185    4.5887   -8.0047 O   0  0  0  0  0  0  0  0  0  0  0  0
   44.2185    7.1152   -4.8646 C   0  0  0  0  0  0  0  0  0  0  0  0
   38.9752    4.1949    0.1809 C   0  0  0  0  0  0  0  0  0  0  0  0
   39.5314    5.3618    0.8194 N   0  0  0  0  0  0  0  0  0  0  0  0
   45.6425    7.1336   -5.4296 C   0  0  0  0  0  0  0  0  0  0  0  0
   45.7614    8.2276   -6.4473 N   0  0  0  0  0  0  0  0  0  0  0  0
   46.0239    7.7626   -7.9050 C   0  0  0  0  0  0  0  0  0  0  0  0
  1  2  1  6  0  0  0
  1  9  1  0  0  0  0
  1 35  1  0  0  0  0
  3  4  1  6  0  0  0
  3 11  1  0  0  0  0
  3 45  1  0  0  0  0
  5  6  1  0  0  0  0
  5 12  1  0  0  0  0
  5 37  1  1  0  0  0
  6 30  1  0  0  0  0
  7 14  1  0  0  0  0
  7 41  1  0  0  0  0
  7 23  1  6  0  0  0
  8 16  2  0  0  0  0
  8 42  1  0  0  0  0
  9 10  1  6  0  0  0
  9 18  1  0  0  0  0
 11 20  1  0  0  0  0
 12 13  1  1  0  0  0
 12 22  1  0  0  0  0
 13 47  1  0  0  0  0
 14 15  1  1  0  0  0
 14 24  1  0  0  0  0
 16 17  1  0  0  0  0
 17 26  2  0  0  0  0
 18 19  1  1  0  0  0
 18 27  1  0  0  0  0
 20 21  1  6  0  0  0
 20 29  1  0  0  0  0
 22 23  1  1  0  0  0
 22 30  1  0  0  0  0
 24 25  1  1  0  0  0
 24 31  1  0  0  0  0
 26 33  1  0  0  0  0
 27 28  1  6  0  0  0
 27 34  1  0  0  0  0
 29  2  1  1  0  0  0
 29 36  1  0  0  0  0
 30 38  1  6  0  0  0
 31 32  1  6  0  0  0
 31 40  1  0  0  0  0
 33 42  2  0  0  0  0
 34 35  1  0  0  0  0
 34 43  1  1  0  0  0
 36 37  1  6  0  0  0
 36 45  1  0  0  0  0
 38 39  1  0  0  0  0
 40 41  1  0  0  0  0
 40 48  1  6  0  0  0
 43 44  1  0  0  0  0
 45 46  1  1  0  0  0
 47 50  1  0  0  0  0
 48 49  1  0  0  0  0
 50 51  1  0  0  0  0
 51 52  1  0  0  0  0
 52  8  1  0  0  0  0
M  END
>  <CHROM.1>
164.41893118,-60.88978270,-64.25154394,-65.20872097,84.80313259,173.60669685
179.81632187,-51.49598849,-172.94009472,179.06213321,174.60157537,79.04751880
-114.74913128,87.54903504,73.39428796,43.08731833,3.26367980,-6.32029147
0.31193254,-0.93068449,-2.57963978

>  <Name>
2be0_lig

>  <RI>
0

>  <Rbt.Current_Directory>
/home/itssahil/PROJECTS/Mol_Feturizer/New_Systems/rnas/2be0

>  <Rbt.Executable>
rbdock ($Id: //depot/dev/client3/rdock/2013.1/src/exe/rbdock.cxx#4 $)

>  <Rbt.Library>
libRbt.so (2013.1, Build901 2013/11/27)

>  <Rbt.Parameter_File>
/export/apps/rDock/src/rDock_2013.1_src/data/scripts/dock_solv.prm

>  <Rbt.Receptor>
prm/pocket_docking_7.prm

>  <SCORE>
-23.1859

>  <SCORE.INTER>
-1.83336

>  <SCORE.INTER.CONST>
1

>  <SCORE.INTER.POLAR>
-0.80305

>  <SCORE.INTER.ROT>
15

>  <SCORE.INTER.SOLV>
12.5174

>  <SCORE.INTER.VDW>
-16.3179

>  <SCORE.INTER.norm>
-0.035257

>  <SCORE.INTRA>
-21.3526

>  <SCORE.INTRA.DIHEDRAL>
-38.9842

>  <SCORE.INTRA.DIHEDRAL.0>
47.8724

>  <SCORE.INTRA.POLAR>
0

>  <SCORE.INTRA.POLAR.0>
0

>  <SCORE.INTRA.REPUL>
0

>  <SCORE.INTRA.REPUL.0>
0

>  <SCORE.INTRA.SOLV>
-0.188855

>  <SCORE.INTRA.SOLV.lig_0>
-115.677

>  <SCORE.INTRA.VDW>
-1.76608

>  <SCORE.INTRA.VDW.0>
-7.4833

>  <SCORE.INTRA.norm>
-0.410627

>  <SCORE.RESTR>
0

>  <SCORE.RESTR.CAVITY>
0

>  <SCORE.RESTR.norm>
0

>  <SCORE.SYSTEM>
0

>  <SCORE.SYSTEM.CONST>
0

>  <SCORE.SYSTEM.DIHEDRAL>
0

>  <SCORE.SYSTEM.SOLV>
0

>  <SCORE.SYSTEM.norm>
0

>  <SCORE.heavy>
52

>  <SCORE.norm>
-0.445884

>  <RMSD>
7.026

$$$$
2be0_lig
 OpenBabel11021811423D
libRbt.so/2013.1/901 2013/11/27
 52 56  0  0  0  0  0  0  0  0999 V2000
   42.0505   -0.7747   -6.1246 C   0  0  2  0  0  0  0  0  0  0  0  0
   40.8829   -0.0279   -5.8759 O   0  0  0  0  0  0  0  0  0  0  0  0
   41.2473    2.9748   -9.0731 C   0  0  2  0  0  0  0  0  0  0  0  0
   40.8753    4.0843   -9.9951 N   0  0  0  0  0  0  0  0  0  0  0  0
   40.2834    2.9369   -4.6635 C   0  0  2  0  0  0  0  0  0  0  0  0
   39.6954    4.1013   -5.2790 O   0  0  0  0  0  0  0  0  0  0  0  0
   41.7147    6.5669   -1.8546 C   0  0  1  0  0  0  0  0  0  0  0  0
   34.6439   -0.7951   -3.5941 C   0  0  0  0  0  0  0  0  0  0  0  0
   42.1915   -1.9754   -5.1027 C   0  0  2  0  0  0  0  0  0  0  0  0
   40.9763   -2.7924   -5.1275 N   0  0  0  0  0  0  0  0  0  0  0  0
   40.1934    1.7866   -9.2331 C   0  0  0  0  0  0  0  0  0  0  0  0
   40.4372    3.2565   -3.1679 C   0  0  2  0  0  0  0  0  0  0  0  0
   39.1004    2.9053   -2.5961 O   0  0  0  0  0  0  0  0  0  0  0  0
   42.6547    6.0615   -0.6289 C   0  0  2  0  0  0  0  0  0  0  0  0
   41.7880    5.8025    0.5659 N   0  0  0  0  0  0  0  0  0  0  0  0
   33.9319   -0.7997   -4.8383 C   0  0  0  0  0  0  0  0  0  0  0  0
   32.7637   -1.5942   -4.9771 N   0  0  0  0  0  0  0  0  0  0  0  0
   42.4986   -1.4043   -3.6415 C   0  0  1  0  0  0  0  0  0  0  0  0
   42.6137   -2.4946   -2.7404 O   0  0  0  0  0  0  0  0  0  0  0  0
   40.5586    0.5527   -8.2261 C   0  0  2  0  0  0  0  0  0  0  0  0
   39.6187   -0.5242   -8.3620 N   0  0  0  0  0  0  0  0  0  0  0  0
   40.8554    4.7344   -3.2847 C   0  0  2  0  0  0  0  0  0  0  0  0
   40.7524    5.5285   -2.1119 O   0  0  0  0  0  0  0  0  0  0  0  0
   43.6945    7.1832   -0.3296 C   0  0  1  0  0  0  0  0  0  0  0  0
   44.4938    7.3397   -1.5560 O   0  0  0  0  0  0  0  0  0  0  0  0
   32.2492   -2.4064   -3.9266 C   0  0  0  0  0  0  0  0  0  0  0  0
   43.8067   -0.5632   -3.7034 C   0  0  2  0  0  0  0  0  0  0  0  0
   44.1425   -0.0015   -2.3726 O   0  0  0  0  0  0  0  0  0  0  0  0
   40.5644    1.0660   -6.7274 C   0  0  2  0  0  0  0  0  0  0  0  0
   40.0063    5.2538   -4.4693 C   0  0  1  0  0  0  0  0  0  0  0  0
   42.9271    8.5656    0.0524 C   0  0  2  0  0  0  0  0  0  0  0  0
   42.1258    8.4165    1.2771 O   0  0  0  0  0  0  0  0  0  0  0  0
   32.9097   -2.4415   -2.6739 C   0  0  0  0  0  0  0  0  0  0  0  0
   43.6469    0.6267   -4.7261 C   0  0  2  0  0  0  0  0  0  0  0  0
   43.3163    0.0146   -6.0031 O   0  0  0  0  0  0  0  0  0  0  0  0
   41.6043    2.2354   -6.6275 C   0  0  2  0  0  0  0  0  0  0  0  0
   41.5349    2.6043   -5.2554 O   0  0  0  0  0  0  0  0  0  0  0  0
   40.7791    6.2273   -5.3577 C   0  0  0  0  0  0  0  0  0  0  0  0
   41.1193    7.4547   -4.7584 O   0  0  0  0  0  0  0  0  0  0  0  0
   41.9792    8.9991   -1.1586 C   0  0  1  0  0  0  0  0  0  0  0  0
   41.0179    7.8644   -1.4462 O   0  0  0  0  0  0  0  0  0  0  0  0
   34.1339   -1.6307   -2.4784 C   0  0  0  0  0  0  0  0  0  0  0  0
   44.9170    1.3696   -4.7571 C   0  0  0  0  0  0  0  0  0  0  0  0
   44.8023    2.4151   -5.5856 O   0  0  0  0  0  0  0  0  0  0  0  0
   41.2029    3.4276   -7.5944 C   0  0  1  0  0  0  0  0  0  0  0  0
   42.1389    4.4507   -7.5020 O   0  0  0  0  0  0  0  0  0  0  0  0
   38.4645    1.5701   -2.5007 C   0  0  0  0  0  0  0  0  0  0  0  0
   41.2677   10.3126   -0.7341 C   0  0  0  0  0  0  0  0  0  0  0  0
   42.1948   11.4169   -0.7410 N   0  0  0  0  0  0  0  0  0  0  0  0
   37.0977    1.7655   -1.8366 C   0  0  0  0  0  0  0  0  0  0  0  0
   36.2807    0.5196   -2.0008 N   0  0  0  0  0  0  0  0  0  0  0  0
   35.9616    0.1143   -3.4651 C   0  0  0  0  0  0  0  0  0  0  0  0
  1  2  1  1  0  0  0
  1  9  1  0  0  0  0
  1 35  1  0  0  0  0
  3  4  1  6  0  0  0
  3 11  1  0  0  0  0
  3 45  1  0  0  0  0
  5  6  1  0  0  0  0
  5 12  1  0  0  0  0
  5 37  1  6  0  0  0
  6 30  1  0  0  0  0
  7 14  1  0  0  0  0
  7 41  1  0  0  0  0
  7 23  1  1  0  0  0
  8 16  2  0  0  0  0
  8 42  1  0  0  0  0
  9 10  1  1  0  0  0
  9 18  1  0  0  0  0
 11 20  1  0  0  0  0
 12 13  1  1  0  0  0
 12 22  1  0  0  0  0
 13 47  1  0  0  0  0
 14 15  1  1  0  0  0
 14 24  1  0  0  0  0
 16 17  1  0  0  0  0
 17 26  2  0  0  0  0
 18 19  1  1  0  0  0
 18 27  1  0  0  0  0
 20 21  1  1  0  0  0
 20 29  1  0  0  0  0
 22 23  1  1  0  0  0
 22 30  1  0  0  0  0
 24 25  1  6  0  0  0
 24 31  1  0  0  0  0
 26 33  1  0  0  0  0
 27 28  1  1  0  0  0
 27 34  1  0  0  0  0
 29  2  1  1  0  0  0
 29 36  1  0  0  0  0
 30 38  1  6  0  0  0
 31 32  1  1  0  0  0
 31 40  1  0  0  0  0
 33 42  2  0  0  0  0
 34 35  1  0  0  0  0
 34 43  1  6  0  0  0
 36 37  1  1  0  0  0
 36 45  1  0  0  0  0
 38 39  1  0  0  0  0
 40 41  1  0  0  0  0
 40 48  1  1  0  0  0
 43 44  1  0  0  0  0
 45 46  1  6  0  0  0
 47 50  1  0  0  0  0
 48 49  1  0  0  0  0
 50 51  1  0  0  0  0
 51 52  1  0  0  0  0
 52  8  1  0  0  0  0
M  END
>  <CHROM.1>
-177.80648110,-62.63583131,-108.18508365,65.83163579,-179.84785718,145.15771612
53.61165869,177.04262064,-178.03496905,-54.02506321,72.19778492,166.87762601
-61.73656109,-155.87325747,155.31336807,40.51517936,2.79345515,-4.00271283
-2.10878260,0.41691086,0.60913179

>  <Name>
2be0_lig

>  <RI>
3.37048e+07

>  <Rbt.Current_Directory>
/home/itssahil/PROJECTS/Mol_Feturizer/New_Systems/rnas/2be0

>  <Rbt.Executable>
rbdock ($Id: //depot/dev/client3/rdock/2013.1/src/exe/rbdock.cxx#4 $)

>  <Rbt.Library>
libRbt.so (2013.1, Build901 2013/11/27)

>  <Rbt.Parameter_File>
/export/apps/rDock/src/rDock_2013.1_src/data/scripts/dock_solv.prm

>  <Rbt.Receptor>
prm/pocket_docking_8.prm

>  <SCORE>
-18.8574

>  <SCORE.INTER>
-3.70037

>  <SCORE.INTER.CONST>
1

>  <SCORE.INTER.POLAR>
-1.76621

>  <SCORE.INTER.ROT>
15

>  <SCORE.INTER.SOLV>
11.7142

>  <SCORE.INTER.VDW>
-14.0843

>  <SCORE.INTER.norm>
-0.0711609

>  <SCORE.INTRA>
-15.157

>  <SCORE.INTRA.DIHEDRAL>
-33.4489

>  <SCORE.INTRA.DIHEDRAL.0>
47.8724

>  <SCORE.INTRA.POLAR>
0

>  <SCORE.INTRA.POLAR.0>
0

>  <SCORE.INTRA.REPUL>
0

>  <SCORE.INTRA.REPUL.0>
0

>  <SCORE.INTRA.SOLV>
-2.5808

>  <SCORE.INTRA.SOLV.lig_0>
-115.677

>  <SCORE.INTRA.VDW>
2.85785

>  <SCORE.INTRA.VDW.0>
-7.4833

>  <SCORE.INTRA.norm>
-0.291481

>  <SCORE.RESTR>
0

>  <SCORE.RESTR.CAVITY>
0

>  <SCORE.RESTR.norm>
0

>  <SCORE.SYSTEM>
0

>  <SCORE.SYSTEM.CONST>
0

>  <SCORE.SYSTEM.DIHEDRAL>
0

>  <SCORE.SYSTEM.SOLV>
0

>  <SCORE.SYSTEM.norm>
0

>  <SCORE.heavy>
52

>  <SCORE.norm>
-0.362642

>  <RMSD>
7.051

$$$$
2be0_lig
 OpenBabel11021811423D
libRbt.so/2013.1/901 2013/11/27
 52 56  0  0  0  0  0  0  0  0999 V2000
   45.0978    5.0111   -7.2187 C   0  0  2  0  0  0  0  0  0  0  0  0
   46.3412    4.5567   -7.6985 O   0  0  0  0  0  0  0  0  0  0  0  0
   50.3861    4.6271   -5.9652 C   0  0  2  0  0  0  0  0  0  0  0  0
   51.6542    5.1695   -5.4020 N   0  0  0  0  0  0  0  0  0  0  0  0
   46.2088    6.1323   -4.9637 C   0  0  2  0  0  0  0  0  0  0  0  0
   46.0065    6.6425   -3.6298 O   0  0  0  0  0  0  0  0  0  0  0  0
   41.7157    6.2760   -3.4938 C   0  0  1  0  0  0  0  0  0  0  0  0
   46.6014   10.9794  -10.1311 C   0  0  0  0  0  0  0  0  0  0  0  0
   44.0611    3.8211   -7.0958 C   0  0  2  0  0  0  0  0  0  0  0  0
   44.6313    2.7500   -6.2760 N   0  0  0  0  0  0  0  0  0  0  0  0
   50.1443    5.2583   -7.4114 C   0  0  0  0  0  0  0  0  0  0  0  0
   44.8590    6.2443   -5.6902 C   0  0  2  0  0  0  0  0  0  0  0  0
   44.8562    7.6474   -6.2084 O   0  0  0  0  0  0  0  0  0  0  0  0
   40.2913    6.8948   -3.9730 C   0  0  2  0  0  0  0  0  0  0  0  0
   40.5345    8.2391   -4.5891 N   0  0  0  0  0  0  0  0  0  0  0  0
   46.4504   12.1841  -10.8933 C   0  0  0  0  0  0  0  0  0  0  0  0
   47.5363   13.0928  -10.9948 N   0  0  0  0  0  0  0  0  0  0  0  0
   43.6572    3.3074   -8.5548 C   0  0  1  0  0  0  0  0  0  0  0  0
   42.7345    2.2372   -8.4224 O   0  0  0  0  0  0  0  0  0  0  0  0
   48.7527    4.6984   -8.0593 C   0  0  2  0  0  0  0  0  0  0  0  0
   48.5246    5.2573   -9.3620 N   0  0  0  0  0  0  0  0  0  0  0  0
   43.9306    5.8575   -4.5234 C   0  0  2  0  0  0  0  0  0  0  0  0
   42.5549    6.1821   -4.6589 O   0  0  0  0  0  0  0  0  0  0  0  0
   39.3756    7.0153   -2.7176 C   0  0  1  0  0  0  0  0  0  0  0  0
   39.1931    5.6455   -2.2097 O   0  0  0  0  0  0  0  0  0  0  0  0
   48.7947   12.8705  -10.3662 C   0  0  0  0  0  0  0  0  0  0  0  0
   43.0509    4.5002   -9.3497 C   0  0  2  0  0  0  0  0  0  0  0  0
   42.6592    4.0844  -10.7182 O   0  0  0  0  0  0  0  0  0  0  0  0
   47.5363    5.0540   -7.1088 C   0  0  2  0  0  0  0  0  0  0  0  0
   44.6098    6.5087   -3.2951 C   0  0  1  0  0  0  0  0  0  0  0  0
   40.0819    7.9663   -1.6029 C   0  0  2  0  0  0  0  0  0  0  0  0
   40.2679    9.3371   -2.1038 O   0  0  0  0  0  0  0  0  0  0  0  0
   49.0032   11.6968   -9.6008 C   0  0  0  0  0  0  0  0  0  0  0  0
   44.0975    5.6748   -9.4609 C   0  0  2  0  0  0  0  0  0  0  0  0
   44.4430    6.0331   -8.0945 O   0  0  0  0  0  0  0  0  0  0  0  0
   47.8279    4.4219   -5.7036 C   0  0  2  0  0  0  0  0  0  0  0  0
   46.6805    4.7889   -4.9472 O   0  0  0  0  0  0  0  0  0  0  0  0
   44.5323    5.6263   -2.0503 C   0  0  0  0  0  0  0  0  0  0  0  0
   44.6983    4.2467   -2.2745 O   0  0  0  0  0  0  0  0  0  0  0  0
   41.4980    7.3475   -1.1971 C   0  0  1  0  0  0  0  0  0  0  0  0
   42.3366    7.2042   -2.4504 O   0  0  0  0  0  0  0  0  0  0  0  0
   47.9007   10.7170   -9.4634 C   0  0  0  0  0  0  0  0  0  0  0  0
   43.4624    6.7774  -10.2005 C   0  0  0  0  0  0  0  0  0  0  0  0
   43.9726    6.8375  -11.4370 O   0  0  0  0  0  0  0  0  0  0  0  0
   49.1684    5.0098   -5.0912 C   0  0  1  0  0  0  0  0  0  0  0  0
   49.4180    4.4328   -3.8518 O   0  0  0  0  0  0  0  0  0  0  0  0
   43.8036    8.3342   -6.9937 C   0  0  0  0  0  0  0  0  0  0  0  0
   42.1274    8.2993   -0.1438 C   0  0  0  0  0  0  0  0  0  0  0  0
   41.4226    8.2052    1.1105 N   0  0  0  0  0  0  0  0  0  0  0  0
   44.4532    9.5563   -7.6509 C   0  0  0  0  0  0  0  0  0  0  0  0
   45.3725    9.1045   -8.7452 N   0  0  0  0  0  0  0  0  0  0  0  0
   45.3566    9.9688  -10.0347 C   0  0  0  0  0  0  0  0  0  0  0  0
  1  2  1  6  0  0  0
  1  9  1  0  0  0  0
  1 35  1  0  0  0  0
  3  4  1  1  0  0  0
  3 11  1  0  0  0  0
  3 45  1  0  0  0  0
  5  6  1  0  0  0  0
  5 12  1  0  0  0  0
  5 37  1  1  0  0  0
  6 30  1  0  0  0  0
  7 14  1  0  0  0  0
  7 41  1  0  0  0  0
  7 23  1  6  0  0  0
  8 16  2  0  0  0  0
  8 42  1  0  0  0  0
  9 10  1  1  0  0  0
  9 18  1  0  0  0  0
 11 20  1  0  0  0  0
 12 13  1  1  0  0  0
 12 22  1  0  0  0  0
 13 47  1  0  0  0  0
 14 15  1  1  0  0  0
 14 24  1  0  0  0  0
 16 17  1  0  0  0  0
 17 26  2  0  0  0  0
 18 19  1  1  0  0  0
 18 27  1  0  0  0  0
 20 21  1  6  0  0  0
 20 29  1  0  0  0  0
 22 23  1  6  0  0  0
 22 30  1  0  0  0  0
 24 25  1  1  0  0  0
 24 31  1  0  0  0  0
 26 33  1  0  0  0  0
 27 28  1  6  0  0  0
 27 34  1  0  0  0  0
 29  2  1  6  0  0  0
 29 36  1  0  0  0  0
 30 38  1  1  0  0  0
 31 32  1  6  0  0  0
 31 40  1  0  0  0  0
 33 42  2  0  0  0  0
 34 35  1  0  0  0  0
 34 43  1  1  0  0  0
 36 37  1  1  0  0  0
 36 45  1  0  0  0  0
 38 39  1  0  0  0  0
 40 41  1  0  0  0  0
 40 48  1  1  0  0  0
 43 44  1  0  0  0  0
 45 46  1  1  0  0  0
 47 50  1  0  0  0  0
 48 49  1  0  0  0  0
 50 51  1  0  0  0  0
 51 52  1  0  0  0  0
 52  8  1  0  0  0  0
M  END
>  <CHROM.1>
-137.94451077,-129.44626046,170.83300211,-179.91097605,-161.92547384,-159.22340818
-165.10415564,-77.57637109,-106.11602990,-47.88954290,71.05296748,71.42600249
140.08060202,101.11723773,-153.50949350,44.85145316,6.68791233,-6.17438756
-0.67532493,-0.60467694,2.38688505

>  <Name>
2be0_lig

>  <RI>
224

>  <Rbt.Current_Directory>
/home/itssahil/PROJECTS/Mol_Feturizer/New_Systems/rnas/2be0

>  <Rbt.Executable>
rbdock ($Id: //depot/dev/client3/rdock/2013.1/src/exe/rbdock.cxx#4 $)

>  <Rbt.Library>
libRbt.so (2013.1, Build901 2013/11/27)

>  <Rbt.Parameter_File>
/export/apps/rDock/src/rDock_2013.1_src/data/scripts/dock_solv.prm

>  <Rbt.Receptor>
prm/blind_docking_100.prm

>  <SCORE>
52.6645

>  <SCORE.INTER>
17.3762

>  <SCORE.INTER.CONST>
1

>  <SCORE.INTER.POLAR>
-0.463122

>  <SCORE.INTER.ROT>
15

>  <SCORE.INTER.SOLV>
24.7028

>  <SCORE.INTER.VDW>
-8.70637

>  <SCORE.INTER.norm>
0.334158

>  <SCORE.INTRA>
17.0285

>  <SCORE.INTRA.DIHEDRAL>
-20.2788

>  <SCORE.INTRA.DIHEDRAL.0>
47.8724

>  <SCORE.INTRA.POLAR>
0

>  <SCORE.INTRA.POLAR.0>
0

>  <SCORE.INTRA.REPUL>
0.164259

>  <SCORE.INTRA.REPUL.0>
0

>  <SCORE.INTRA.SOLV>
2.73627

>  <SCORE.INTRA.SOLV.lig_0>
-115.677

>  <SCORE.INTRA.VDW>
24.9785

>  <SCORE.INTRA.VDW.0>
-7.4833

>  <SCORE.INTRA.norm>
0.327472

>  <SCORE.RESTR>
18.2597

>  <SCORE.RESTR.CAVITY>
18.2597

>  <SCORE.RESTR.norm>
0.351149

>  <SCORE.SYSTEM>
0

>  <SCORE.SYSTEM.CONST>
0

>  <SCORE.SYSTEM.DIHEDRAL>
0

>  <SCORE.SYSTEM.SOLV>
0

>  <SCORE.SYSTEM.norm>
0

>  <SCORE.heavy>
52

>  <SCORE.norm>
1.01278

>  <RMSD>
7.056

$$$$
2be0_lig
 OpenBabel11021811423D
libRbt.so/2013.1/901 2013/11/27
 52 56  0  0  0  0  0  0  0  0999 V2000
   41.6014    5.4850   -5.3497 C   0  0  2  0  0  0  0  0  0  0  0  0
   42.2117    5.9793   -6.5184 O   0  0  0  0  0  0  0  0  0  0  0  0
   43.1413    3.9586  -10.3163 C   0  0  2  0  0  0  0  0  0  0  0  0
   43.7971    3.0305  -11.2796 N   0  0  0  0  0  0  0  0  0  0  0  0
   41.6674    2.3680   -6.5125 C   0  0  2  0  0  0  0  0  0  0  0  0
   41.5191    1.1969   -7.3412 O   0  0  0  0  0  0  0  0  0  0  0  0
   38.2168    1.0110   -3.7809 C   0  0  1  0  0  0  0  0  0  0  0  0
   46.7455    0.1285   -2.7098 C   0  0  0  0  0  0  0  0  0  0  0  0
   41.0742    6.6648   -4.4354 C   0  0  2  0  0  0  0  0  0  0  0  0
   40.1927    7.5382   -5.2129 N   0  0  0  0  0  0  0  0  0  0  0  0
   44.2576    4.8605   -9.6171 C   0  0  0  0  0  0  0  0  0  0  0  0
   41.0219    2.0365   -5.1575 C   0  0  2  0  0  0  0  0  0  0  0  0
   42.1170    1.3461   -4.4082 O   0  0  0  0  0  0  0  0  0  0  0  0
   38.9734    1.0939   -2.3450 C   0  0  2  0  0  0  0  0  0  0  0  0
   39.3667   -0.2909   -1.9286 N   0  0  0  0  0  0  0  0  0  0  0  0
   48.0846    0.6398   -2.7202 C   0  0  0  0  0  0  0  0  0  0  0  0
   49.0488    0.0683   -3.5913 N   0  0  0  0  0  0  0  0  0  0  0  0
   42.3149    7.4627   -3.8191 C   0  0  1  0  0  0  0  0  0  0  0  0
   41.8215    8.5191   -3.0100 O   0  0  0  0  0  0  0  0  0  0  0  0
   43.5793    5.8851   -8.5400 C   0  0  2  0  0  0  0  0  0  0  0  0
   44.5731    6.7041   -7.9053 N   0  0  0  0  0  0  0  0  0  0  0  0
   39.8130    1.2274   -5.6642 C   0  0  2  0  0  0  0  0  0  0  0  0
   39.1360    0.4167   -4.7150 O   0  0  0  0  0  0  0  0  0  0  0  0
   37.9839    1.7238   -1.3187 C   0  0  1  0  0  0  0  0  0  0  0  0
   37.6821    3.0761   -1.8164 O   0  0  0  0  0  0  0  0  0  0  0  0
   48.7540   -1.0098   -4.4738 C   0  0  0  0  0  0  0  0  0  0  0  0
   43.1879    6.4664   -3.0020 C   0  0  2  0  0  0  0  0  0  0  0  0
   44.3613    7.1504   -2.4067 O   0  0  0  0  0  0  0  0  0  0  0  0
   42.7884    5.0629   -7.4409 C   0  0  2  0  0  0  0  0  0  0  0  0
   40.3884    0.4386   -6.8645 C   0  0  1  0  0  0  0  0  0  0  0  0
   36.6355    0.8196   -1.2188 C   0  0  2  0  0  0  0  0  0  0  0  0
   36.9297   -0.5337   -0.7223 O   0  0  0  0  0  0  0  0  0  0  0  0
   47.4472   -1.5558   -4.5084 C   0  0  0  0  0  0  0  0  0  0  0  0
   43.7029    5.2990   -3.9292 C   0  0  2  0  0  0  0  0  0  0  0  0
   42.5124    4.6734   -4.4827 O   0  0  0  0  0  0  0  0  0  0  0  0
   41.7156    4.1889   -8.1787 C   0  0  2  0  0  0  0  0  0  0  0  0
   41.0668    3.5135   -7.1081 O   0  0  0  0  0  0  0  0  0  0  0  0
   39.3986    0.3376   -8.0239 C   0  0  0  0  0  0  0  0  0  0  0  0
   38.9159    1.5645   -8.5168 O   0  0  0  0  0  0  0  0  0  0  0  0
   35.9516    0.7247   -2.6597 C   0  0  1  0  0  0  0  0  0  0  0  0
   36.9608    0.1527   -3.6338 O   0  0  0  0  0  0  0  0  0  0  0  0
   46.4048   -0.9950   -3.6179 C   0  0  0  0  0  0  0  0  0  0  0  0
   44.5007    4.3817   -3.0997 C   0  0  0  0  0  0  0  0  0  0  0  0
   45.0919    3.4713   -3.8836 O   0  0  0  0  0  0  0  0  0  0  0  0
   42.4101    3.1859   -9.1931 C   0  0  1  0  0  0  0  0  0  0  0  0
   41.4464    2.4265   -9.8458 O   0  0  0  0  0  0  0  0  0  0  0  0
   42.0436    0.6683   -3.0923 C   0  0  0  0  0  0  0  0  0  0  0  0
   34.6815   -0.1555   -2.5054 C   0  0  0  0  0  0  0  0  0  0  0  0
   33.9366   -0.1920   -3.7393 N   0  0  0  0  0  0  0  0  0  0  0  0
   43.4355    0.1003   -2.7968 C   0  0  0  0  0  0  0  0  0  0  0  0
   44.3626    1.2189   -2.4279 N   0  0  0  0  0  0  0  0  0  0  0  0
   45.6750    0.7953   -1.7149 C   0  0  0  0  0  0  0  0  0  0  0  0
  1  2  1  6  0  0  0
  1  9  1  0  0  0  0
  1 35  1  0  0  0  0
  3  4  1  6  0  0  0
  3 11  1  0  0  0  0
  3 45  1  0  0  0  0
  5  6  1  0  0  0  0
  5 12  1  0  0  0  0
  5 37  1  6  0  0  0
  6 30  1  0  0  0  0
  7 14  1  0  0  0  0
  7 41  1  0  0  0  0
  7 23  1  6  0  0  0
  8 16  2  0  0  0  0
  8 42  1  0  0  0  0
  9 10  1  6  0  0  0
  9 18  1  0  0  0  0
 11 20  1  0  0  0  0
 12 13  1  1  0  0  0
 12 22  1  0  0  0  0
 13 47  1  0  0  0  0
 14 15  1  1  0  0  0
 14 24  1  0  0  0  0
 16 17  1  0  0  0  0
 17 26  2  0  0  0  0
 18 19  1  1  0  0  0
 18 27  1  0  0  0  0
 20 21  1  1  0  0  0
 20 29  1  0  0  0  0
 22 23  1  1  0  0  0
 22 30  1  0  0  0  0
 24 25  1  6  0  0  0
 24 31  1  0  0  0  0
 26 33  1  0  0  0  0
 27 28  1  6  0  0  0
 27 34  1  0  0  0  0
 29  2  1  1  0  0  0
 29 36  1  0  0  0  0
 30 38  1  6  0  0  0
 31 32  1  6  0  0  0
 31 40  1  0  0  0  0
 33 42  2  0  0  0  0
 34 35  1  0  0  0  0
 34 43  1  1  0  0  0
 36 37  1  1  0  0  0
 36 45  1  0  0  0  0
 38 39  1  0  0  0  0
 40 41  1  0  0  0  0
 40 48  1  1  0  0  0
 43 44  1  0  0  0  0
 45 46  1  6  0  0  0
 47 50  1  0  0  0  0
 48 49  1  0  0  0  0
 50 51  1  0  0  0  0
 51 52  1  0  0  0  0
 52  8  1  0  0  0  0
M  END
>  <CHROM.1>
177.82765800,-76.56737759,-103.31459906,-172.93513705,178.70414707,78.20541562
-171.87882931,-60.07607511,-172.32057520,-79.78622510,174.78355996,73.76245260
163.16172214,74.65644965,128.36634338,41.76264427,2.60448155,-4.86965140
0.45840381,0.00747803,-0.77317137

>  <Name>
2be0_lig

>  <RI>
3.37048e+07

>  <Rbt.Current_Directory>
/home/itssahil/PROJECTS/Mol_Feturizer/New_Systems/rnas/2be0

>  <Rbt.Executable>
rbdock ($Id: //depot/dev/client3/rdock/2013.1/src/exe/rbdock.cxx#4 $)

>  <Rbt.Library>
libRbt.so (2013.1, Build901 2013/11/27)

>  <Rbt.Parameter_File>
/export/apps/rDock/src/rDock_2013.1_src/data/scripts/dock_solv.prm

>  <Rbt.Receptor>
prm/pocket_docking_8.prm

>  <SCORE>
-25.8901

>  <SCORE.INTER>
-8.92405

>  <SCORE.INTER.CONST>
1

>  <SCORE.INTER.POLAR>
-1.45741

>  <SCORE.INTER.ROT>
15

>  <SCORE.INTER.SOLV>
14.6965

>  <SCORE.INTER.VDW>
-19.5901

>  <SCORE.INTER.norm>
-0.171616

>  <SCORE.INTRA>
-16.966

>  <SCORE.INTRA.DIHEDRAL>
-34.2715

>  <SCORE.INTRA.DIHEDRAL.0>
47.8724

>  <SCORE.INTRA.POLAR>
0

>  <SCORE.INTRA.POLAR.0>
0

>  <SCORE.INTRA.REPUL>
0.0199244

>  <SCORE.INTRA.REPUL.0>
0

>  <SCORE.INTRA.SOLV>
-0.0930042

>  <SCORE.INTRA.SOLV.lig_0>
-115.677

>  <SCORE.INTRA.VDW>
0.116619

>  <SCORE.INTRA.VDW.0>
-7.4833

>  <SCORE.INTRA.norm>
-0.326269

>  <SCORE.RESTR>
0

>  <SCORE.RESTR.CAVITY>
0

>  <SCORE.RESTR.norm>
0

>  <SCORE.SYSTEM>
0

>  <SCORE.SYSTEM.CONST>
0

>  <SCORE.SYSTEM.DIHEDRAL>
0

>  <SCORE.SYSTEM.SOLV>
0

>  <SCORE.SYSTEM.norm>
0

>  <SCORE.heavy>
52

>  <SCORE.norm>
-0.497886

>  <RMSD>
7.100

$$$$
2be0_lig
 OpenBabel11021811423D
libRbt.so/2013.1/901 2013/11/27
 52 56  0  0  0  0  0  0  0  0999 V2000
   46.1926    4.7313   -5.4789 C   0  0  2  0  0  0  0  0  0  0  0  0
   45.5728    3.4839   -5.6853 O   0  0  0  0  0  0  0  0  0  0  0  0
   42.2119    1.8597   -3.3535 C   0  0  2  0  0  0  0  0  0  0  0  0
   41.4792    1.1752   -2.2516 N   0  0  0  0  0  0  0  0  0  0  0  0
   44.1407    6.2591   -4.0201 C   0  0  2  0  0  0  0  0  0  0  0  0
   44.3986    7.2474   -3.0016 O   0  0  0  0  0  0  0  0  0  0  0  0
   40.0339    6.9764   -1.6205 C   0  0  1  0  0  0  0  0  0  0  0  0
   44.9033    9.6973   -9.4389 C   0  0  0  0  0  0  0  0  0  0  0  0
   46.8310    5.2828   -6.8183 C   0  0  2  0  0  0  0  0  0  0  0  0
   45.8157    5.3186   -7.8731 N   0  0  0  0  0  0  0  0  0  0  0  0
   43.2992    0.8596   -3.9584 C   0  0  0  0  0  0  0  0  0  0  0  0
   42.6454    6.3556   -4.3625 C   0  0  2  0  0  0  0  0  0  0  0  0
   42.5904    7.4475   -5.3833 O   0  0  0  0  0  0  0  0  0  0  0  0
   39.8080    8.4706   -1.0223 C   0  0  2  0  0  0  0  0  0  0  0  0
   41.1467    9.1037   -0.7929 N   0  0  0  0  0  0  0  0  0  0  0  0
   45.2113   10.8302  -10.2615 C   0  0  0  0  0  0  0  0  0  0  0  0
   44.5271   11.0127  -11.4918 N   0  0  0  0  0  0  0  0  0  0  0  0
   48.0862    4.3809   -7.2266 C   0  0  1  0  0  0  0  0  0  0  0  0
   48.6386    4.8867   -8.4321 O   0  0  0  0  0  0  0  0  0  0  0  0
   44.1365    1.5786   -5.1633 C   0  0  2  0  0  0  0  0  0  0  0  0
   45.1168    0.6882   -5.7177 N   0  0  0  0  0  0  0  0  0  0  0  0
   42.0948    6.6042   -2.9455 C   0  0  2  0  0  0  0  0  0  0  0  0
   40.7732    7.1143   -2.8473 O   0  0  0  0  0  0  0  0  0  0  0  0
   39.0194    8.3360    0.3153 C   0  0  1  0  0  0  0  0  0  0  0  0
   37.7264    7.7227   -0.0305 O   0  0  0  0  0  0  0  0  0  0  0  0
   43.5309   10.1123  -11.9660 C   0  0  0  0  0  0  0  0  0  0  0  0
   49.1166    4.4091   -6.0605 C   0  0  2  0  0  0  0  0  0  0  0  0
   50.3062    3.5835   -6.3804 O   0  0  0  0  0  0  0  0  0  0  0  0
   44.8521    2.8820   -4.6168 C   0  0  2  0  0  0  0  0  0  0  0  0
   43.1669    7.5141   -2.2998 C   0  0  1  0  0  0  0  0  0  0  0  0
   39.8503    7.4064    1.3599 C   0  0  2  0  0  0  0  0  0  0  0  0
   41.1442    8.0130    1.7098 O   0  0  0  0  0  0  0  0  0  0  0  0
   43.1834    8.9753  -11.1955 C   0  0  0  0  0  0  0  0  0  0  0  0
   48.4624    3.8569   -4.7359 C   0  0  2  0  0  0  0  0  0  0  0  0
   47.3061    4.7007   -4.4792 O   0  0  0  0  0  0  0  0  0  0  0  0
   43.7449    3.8224   -4.0262 C   0  0  2  0  0  0  0  0  0  0  0  0
   44.4906    4.9498   -3.5832 O   0  0  0  0  0  0  0  0  0  0  0  0
   43.4094    7.1764   -0.8297 C   0  0  0  0  0  0  0  0  0  0  0  0
   44.2632    8.0567   -0.1389 O   0  0  0  0  0  0  0  0  0  0  0  0
   40.0917    5.9655    0.7129 C   0  0  1  0  0  0  0  0  0  0  0  0
   40.8173    6.1459   -0.6045 O   0  0  0  0  0  0  0  0  0  0  0  0
   43.8693    8.7394   -9.9039 C   0  0  0  0  0  0  0  0  0  0  0  0
   49.4735    3.9282   -3.6688 C   0  0  0  0  0  0  0  0  0  0  0  0
   50.5193    3.1576   -3.9929 O   0  0  0  0  0  0  0  0  0  0  0  0
   42.9733    3.1047   -2.8401 C   0  0  1  0  0  0  0  0  0  0  0  0
   41.9896    3.9463   -2.3347 O   0  0  0  0  0  0  0  0  0  0  0  0
   42.9259    7.3744   -6.8250 C   0  0  0  0  0  0  0  0  0  0  0  0
   40.8953    5.1297    1.7460 C   0  0  0  0  0  0  0  0  0  0  0  0
   42.3087    5.3811    1.6125 N   0  0  0  0  0  0  0  0  0  0  0  0
   44.4437    7.5447   -6.9462 C   0  0  0  0  0  0  0  0  0  0  0  0
   44.7874    9.0029   -6.8991 N   0  0  0  0  0  0  0  0  0  0  0  0
   45.6921    9.5168   -8.0513 C   0  0  0  0  0  0  0  0  0  0  0  0
  1  2  1  6  0  0  0
  1  9  1  0  0  0  0
  1 35  1  0  0  0  0
  3  4  1  1  0  0  0
  3 11  1  0  0  0  0
  3 45  1  0  0  0  0
  5  6  1  0  0  0  0
  5 12  1  0  0  0  0
  5 37  1  1  0  0  0
  6 30  1  0  0  0  0
  7 14  1  0  0  0  0
  7 41  1  0  0  0  0
  7 23  1  6  0  0  0
  8 16  2  0  0  0  0
  8 42  1  0  0  0  0
  9 10  1  6  0  0  0
  9 18  1  0  0  0  0
 11 20  1  0  0  0  0
 12 13  1  6  0  0  0
 12 22  1  0  0  0  0
 13 47  1  0  0  0  0
 14 15  1  1  0  0  0
 14 24  1  0  0  0  0
 16 17  1  0  0  0  0
 17 26  2  0  0  0  0
 18 19  1  6  0  0  0
 18 27  1  0  0  0  0
 20 21  1  1  0  0  0
 20 29  1  0  0  0  0
 22 23  1  6  0  0  0
 22 30  1  0  0  0  0
 24 25  1  6  0  0  0
 24 31  1  0  0  0  0
 26 33  1  0  0  0  0
 27 28  1  6  0  0  0
 27 34  1  0  0  0  0
 29  2  1  6  0  0  0
 29 36  1  0  0  0  0
 30 38  1  1  0  0  0
 31 32  1  6  0  0  0
 31 40  1  0  0  0  0
 33 42  2  0  0  0  0
 34 35  1  0  0  0  0
 34 43  1  1  0  0  0
 36 37  1  1  0  0  0
 36 45  1  0  0  0  0
 38 39  1  0  0  0  0
 40 41  1  0  0  0  0
 40 48  1  1  0  0  0
 43 44  1  0  0  0  0
 45 46  1  6  0  0  0
 47 50  1  0  0  0  0
 48 49  1  0  0  0  0
 50 51  1  0  0  0  0
 51 52  1  0  0  0  0
 52  8  1  0  0  0  0
M  END
>  <CHROM.1>
-175.07347000,146.66127559,113.99420444,78.55341567,-83.52136179,160.09188490
174.03396557,70.44088262,-61.50301447,126.19341492,-85.17771473,-82.01849423
-128.46374739,76.04994180,140.69822775,43.94545030,5.97616999,-4.24294804
-0.66320025,-0.71853073,2.26440846

>  <Name>
2be0_lig

>  <RI>
0

>  <Rbt.Current_Directory>
/home/itssahil/PROJECTS/Mol_Feturizer/New_Systems/rnas/2be0

>  <Rbt.Executable>
rbdock ($Id: //depot/dev/client3/rdock/2013.1/src/exe/rbdock.cxx#4 $)

>  <Rbt.Library>
libRbt.so (2013.1, Build901 2013/11/27)

>  <Rbt.Parameter_File>
/export/apps/rDock/src/rDock_2013.1_src/data/scripts/dock_solv.prm

>  <Rbt.Receptor>
prm/pocket_docking_2.prm

>  <SCORE>
-6.04617

>  <SCORE.INTER>
-14.0224

>  <SCORE.INTER.CONST>
1

>  <SCORE.INTER.POLAR>
-1.72583

>  <SCORE.INTER.ROT>
15

>  <SCORE.INTER.SOLV>
15.253

>  <SCORE.INTER.VDW>
-22.2798

>  <SCORE.INTER.norm>
-0.269661

>  <SCORE.INTRA>
2.0934

>  <SCORE.INTRA.DIHEDRAL>
-17.1883

>  <SCORE.INTRA.DIHEDRAL.0>
47.8724

>  <SCORE.INTRA.POLAR>
0

>  <SCORE.INTRA.POLAR.0>
0

>  <SCORE.INTRA.REPUL>
0.574318

>  <SCORE.INTRA.REPUL.0>
0

>  <SCORE.INTRA.SOLV>
6.00016

>  <SCORE.INTRA.SOLV.lig_0>
-115.677

>  <SCORE.INTRA.VDW>
4.81588

>  <SCORE.INTRA.VDW.0>
-7.4833

>  <SCORE.INTRA.norm>
0.0402578

>  <SCORE.RESTR>
5.88282

>  <SCORE.RESTR.CAVITY>
5.88282

>  <SCORE.RESTR.norm>
0.113131

>  <SCORE.SYSTEM>
0

>  <SCORE.SYSTEM.CONST>
0

>  <SCORE.SYSTEM.DIHEDRAL>
0

>  <SCORE.SYSTEM.SOLV>
0

>  <SCORE.SYSTEM.norm>
0

>  <SCORE.heavy>
52

>  <SCORE.norm>
-0.116273

>  <RMSD>
7.149

$$$$
2be0_lig
 OpenBabel11021811423D
libRbt.so/2013.1/901 2013/11/27
 52 56  0  0  0  0  0  0  0  0999 V2000
   43.4375    7.5553   -3.1287 C   0  0  2  0  0  0  0  0  0  0  0  0
   44.0756    6.8554   -2.0867 O   0  0  0  0  0  0  0  0  0  0  0  0
   44.0019    2.8084   -0.3582 C   0  0  2  0  0  0  0  0  0  0  0  0
   43.4785    1.4758    0.0538 N   0  0  0  0  0  0  0  0  0  0  0  0
   44.9520    3.6625   -4.6242 C   0  0  2  0  0  0  0  0  0  0  0  0
   46.3686    3.4642   -4.4388 O   0  0  0  0  0  0  0  0  0  0  0  0
   45.5032    6.0494   -8.4244 C   0  0  1  0  0  0  0  0  0  0  0  0
   41.9461   -1.4411   -5.6298 C   0  0  0  0  0  0  0  0  0  0  0  0
   43.0322    9.0163   -2.6737 C   0  0  2  0  0  0  0  0  0  0  0  0
   44.2079    9.7171   -2.1528 N   0  0  0  0  0  0  0  0  0  0  0  0
   43.0895    3.9497    0.2847 C   0  0  0  0  0  0  0  0  0  0  0  0
   44.7530    4.0978   -6.0848 C   0  0  2  0  0  0  0  0  0  0  0  0
   44.6869    2.8023   -6.8297 O   0  0  0  0  0  0  0  0  0  0  0  0
   45.4721    7.5941   -7.9203 C   0  0  2  0  0  0  0  0  0  0  0  0
   44.9995    7.6260   -6.4985 N   0  0  0  0  0  0  0  0  0  0  0  0
   41.0864   -2.5880   -5.6140 C   0  0  0  0  0  0  0  0  0  0  0  0
   40.9343   -3.3364   -4.4174 N   0  0  0  0  0  0  0  0  0  0  0  0
   41.8563    8.9361   -1.5936 C   0  0  1  0  0  0  0  0  0  0  0  0
   41.5135   10.2539   -1.1938 O   0  0  0  0  0  0  0  0  0  0  0  0
   43.6228    5.4302   -0.1555 C   0  0  2  0  0  0  0  0  0  0  0  0
   42.8114    6.4663    0.4184 N   0  0  0  0  0  0  0  0  0  0  0  0
   45.9908    5.0028   -6.2316 C   0  0  2  0  0  0  0  0  0  0  0  0
   46.3955    5.3327   -7.5522 O   0  0  0  0  0  0  0  0  0  0  0  0
   44.4980    8.3806   -8.8485 C   0  0  1  0  0  0  0  0  0  0  0  0
   45.0653    8.2966  -10.2043 O   0  0  0  0  0  0  0  0  0  0  0  0
   41.6044   -3.0052   -3.2053 C   0  0  0  0  0  0  0  0  0  0  0  0
   40.6478    8.1913   -2.2315 C   0  0  2  0  0  0  0  0  0  0  0  0
   39.5225    8.0818   -1.2720 O   0  0  0  0  0  0  0  0  0  0  0  0
   43.6091    5.5586   -1.7344 C   0  0  2  0  0  0  0  0  0  0  0  0
   47.0739    4.2631   -5.4109 C   0  0  1  0  0  0  0  0  0  0  0  0
   43.0148    7.7154   -8.7896 C   0  0  2  0  0  0  0  0  0  0  0  0
   42.4415    7.7954   -7.4370 O   0  0  0  0  0  0  0  0  0  0  0  0
   42.4662   -1.8817   -3.1600 C   0  0  0  0  0  0  0  0  0  0  0  0
   41.0711    6.7392   -2.6784 C   0  0  2  0  0  0  0  0  0  0  0  0
   42.1741    6.9132   -3.6101 O   0  0  0  0  0  0  0  0  0  0  0  0
   44.5082    4.4122   -2.3143 C   0  0  2  0  0  0  0  0  0  0  0  0
   44.4333    4.6305   -3.7179 O   0  0  0  0  0  0  0  0  0  0  0  0
   47.9718    5.2229   -4.6320 C   0  0  0  0  0  0  0  0  0  0  0  0
   49.2745    4.7574   -4.3720 O   0  0  0  0  0  0  0  0  0  0  0  0
   43.0997    6.1865   -9.2458 C   0  0  1  0  0  0  0  0  0  0  0  0
   44.0902    5.4720   -8.3495 O   0  0  0  0  0  0  0  0  0  0  0  0
   42.6594   -1.0682   -4.3827 C   0  0  0  0  0  0  0  0  0  0  0  0
   39.8982    6.0950   -3.2910 C   0  0  0  0  0  0  0  0  0  0  0  0
   40.1556    4.7962   -3.4901 O   0  0  0  0  0  0  0  0  0  0  0  0
   43.9448    2.9899   -1.8935 C   0  0  1  0  0  0  0  0  0  0  0  0
   44.7576    1.9858   -2.4060 O   0  0  0  0  0  0  0  0  0  0  0  0
   43.8103    1.6363   -6.5680 C   0  0  0  0  0  0  0  0  0  0  0  0
   41.6631    5.6034   -9.1592 C   0  0  0  0  0  0  0  0  0  0  0  0
   41.6707    4.1906   -9.4467 N   0  0  0  0  0  0  0  0  0  0  0  0
   42.4524    1.9369   -7.2106 C   0  0  0  0  0  0  0  0  0  0  0  0
   41.5006    0.8182   -6.9119 N   0  0  0  0  0  0  0  0  0  0  0  0
   42.0981   -0.6122   -6.9973 C   0  0  0  0  0  0  0  0  0  0  0  0
  1  2  1  1  0  0  0
  1  9  1  0  0  0  0
  1 35  1  0  0  0  0
  3  4  1  6  0  0  0
  3 11  1  0  0  0  0
  3 45  1  0  0  0  0
  5  6  1  0  0  0  0
  5 12  1  0  0  0  0
  5 37  1  1  0  0  0
  6 30  1  0  0  0  0
  7 14  1  0  0  0  0
  7 41  1  0  0  0  0
  7 23  1  1  0  0  0
  8 16  2  0  0  0  0
  8 42  1  0  0  0  0
  9 10  1  1  0  0  0
  9 18  1  0  0  0  0
 11 20  1  0  0  0  0
 12 13  1  6  0  0  0
 12 22  1  0  0  0  0
 13 47  1  0  0  0  0
 14 15  1  1  0  0  0
 14 24  1  0  0  0  0
 16 17  1  0  0  0  0
 17 26  2  0  0  0  0
 18 19  1  6  0  0  0
 18 27  1  0  0  0  0
 20 21  1  1  0  0  0
 20 29  1  0  0  0  0
 22 23  1  6  0  0  0
 22 30  1  0  0  0  0
 24 25  1  6  0  0  0
 24 31  1  0  0  0  0
 26 33  1  0  0  0  0
 27 28  1  1  0  0  0
 27 34  1  0  0  0  0
 29  2  1  1  0  0  0
 29 36  1  0  0  0  0
 30 38  1  1  0  0  0
 31 32  1  1  0  0  0
 31 40  1  0  0  0  0
 33 42  2  0  0  0  0
 34 35  1  0  0  0  0
 34 43  1  6  0  0  0
 36 37  1  6  0  0  0
 36 45  1  0  0  0  0
 38 39  1  0  0  0  0
 40 41  1  0  0  0  0
 40 48  1  1  0  0  0
 43 44  1  0  0  0  0
 45 46  1  6  0  0  0
 47 50  1  0  0  0  0
 48 49  1  0  0  0  0
 50 51  1  0  0  0  0
 51 52  1  0  0  0  0
 52  8  1  0  0  0  0
M  END
>  <CHROM.1>
128.77870285,-61.24388292,74.36363144,53.04422333,81.93849117,60.76013316
-139.21143342,91.28881715,-170.31135779,-170.01848565,-175.10818981,-176.96669270
-40.90301698,122.47152140,113.18200282,43.46855071,4.61700683,-4.62310536
1.19033848,1.29712797,0.37640164

>  <Name>
2be0_lig

>  <RI>
2.10017e+07

>  <Rbt.Current_Directory>
/home/itssahil/PROJECTS/Mol_Feturizer/New_Systems/rnas/2be0

>  <Rbt.Executable>
rbdock ($Id: //depot/dev/client3/rdock/2013.1/src/exe/rbdock.cxx#4 $)

>  <Rbt.Library>
libRbt.so (2013.1, Build901 2013/11/27)

>  <Rbt.Parameter_File>
/export/apps/rDock/src/rDock_2013.1_src/data/scripts/dock_solv.prm

>  <Rbt.Receptor>
prm/pocket_docking_3.prm

>  <SCORE>
-9.54345

>  <SCORE.INTER>
-6.65423

>  <SCORE.INTER.CONST>
1

>  <SCORE.INTER.POLAR>
-1.39526

>  <SCORE.INTER.ROT>
15

>  <SCORE.INTER.SOLV>
22.9623

>  <SCORE.INTER.VDW>
-21.0394

>  <SCORE.INTER.norm>
-0.127966

>  <SCORE.INTRA>
-5.22711

>  <SCORE.INTRA.DIHEDRAL>
-25.804

>  <SCORE.INTRA.DIHEDRAL.0>
47.8724

>  <SCORE.INTRA.POLAR>
0

>  <SCORE.INTRA.POLAR.0>
0

>  <SCORE.INTRA.REPUL>
0.636832

>  <SCORE.INTRA.REPUL.0>
0

>  <SCORE.INTRA.SOLV>
2.03097

>  <SCORE.INTRA.SOLV.lig_0>
-115.677

>  <SCORE.INTRA.VDW>
3.47527

>  <SCORE.INTRA.VDW.0>
-7.4833

>  <SCORE.INTRA.norm>
-0.100521

>  <SCORE.RESTR>
2.3379

>  <SCORE.RESTR.CAVITY>
2.3379

>  <SCORE.RESTR.norm>
0.0449596

>  <SCORE.SYSTEM>
0

>  <SCORE.SYSTEM.CONST>
0

>  <SCORE.SYSTEM.DIHEDRAL>
0

>  <SCORE.SYSTEM.SOLV>
0

>  <SCORE.SYSTEM.norm>
0

>  <SCORE.heavy>
52

>  <SCORE.norm>
-0.183528

>  <RMSD>
7.154

$$$$
2be0_lig
 OpenBabel11021811423D
libRbt.so/2013.1/901 2013/11/27
 52 56  0  0  0  0  0  0  0  0999 V2000
   42.2577    6.2284   -7.4607 C   0  0  2  0  0  0  0  0  0  0  0  0
   42.1307    5.3952   -6.3326 O   0  0  0  0  0  0  0  0  0  0  0  0
   41.8888    8.4658   -3.1887 C   0  0  2  0  0  0  0  0  0  0  0  0
   41.7415    9.0681   -1.8341 N   0  0  0  0  0  0  0  0  0  0  0  0
   44.8839    5.3783   -3.6481 C   0  0  2  0  0  0  0  0  0  0  0  0
   45.8955    4.4040   -3.9765 O   0  0  0  0  0  0  0  0  0  0  0  0
   42.9192    1.0032   -3.8899 C   0  0  1  0  0  0  0  0  0  0  0  0
   40.1108    3.4521    2.0325 C   0  0  0  0  0  0  0  0  0  0  0  0
   42.2363    5.3861   -8.8007 C   0  0  2  0  0  0  0  0  0  0  0  0
   41.0343    4.5506   -8.8418 N   0  0  0  0  0  0  0  0  0  0  0  0
   40.6082    7.5660   -3.5027 C   0  0  0  0  0  0  0  0  0  0  0  0
   43.7760    4.6286   -2.8911 C   0  0  2  0  0  0  0  0  0  0  0  0
   44.2592    4.6274   -1.4755 O   0  0  0  0  0  0  0  0  0  0  0  0
   41.8874    1.3954   -5.0827 C   0  0  2  0  0  0  0  0  0  0  0  0
   40.6190    1.9085   -4.4714 N   0  0  0  0  0  0  0  0  0  0  0  0
   40.4934    2.2509    1.3501 C   0  0  0  0  0  0  0  0  0  0  0  0
   40.5720    1.0288    2.0679 N   0  0  0  0  0  0  0  0  0  0  0  0
   43.5734    4.5165   -8.9102 C   0  0  1  0  0  0  0  0  0  0  0  0
   43.5311    3.7643  -10.1129 O   0  0  0  0  0  0  0  0  0  0  0  0
   40.7373    6.8743   -4.9774 C   0  0  2  0  0  0  0  0  0  0  0  0
   39.5899    6.0635   -5.2730 N   0  0  0  0  0  0  0  0  0  0  0  0
   43.7807    3.3193   -3.7026 C   0  0  2  0  0  0  0  0  0  0  0  0
   43.1475    2.1931   -3.1135 O   0  0  0  0  0  0  0  0  0  0  0  0
   41.6198    0.1116   -5.9249 C   0  0  1  0  0  0  0  0  0  0  0  0
   42.9205   -0.2901   -6.4855 O   0  0  0  0  0  0  0  0  0  0  0  0
   40.2873    0.9274    3.4596 C   0  0  0  0  0  0  0  0  0  0  0  0
   44.7952    5.4798   -8.8720 C   0  0  2  0  0  0  0  0  0  0  0  0
   46.0698    4.7278   -8.9663 O   0  0  0  0  0  0  0  0  0  0  0  0
   42.0464    5.9845   -5.0407 C   0  0  2  0  0  0  0  0  0  0  0  0
   45.2793    3.1006   -4.0198 C   0  0  1  0  0  0  0  0  0  0  0  0
   41.0021   -1.0570   -4.9769 C   0  0  2  0  0  0  0  0  0  0  0  0
   39.7020   -0.6623   -4.4127 O   0  0  0  0  0  0  0  0  0  0  0  0
   39.9029    2.0808    4.1868 C   0  0  0  0  0  0  0  0  0  0  0  0
   44.7987    6.3098   -7.5309 C   0  0  2  0  0  0  0  0  0  0  0  0
   43.5289    7.0177   -7.4955 O   0  0  0  0  0  0  0  0  0  0  0  0
   43.2693    6.9107   -4.7154 C   0  0  2  0  0  0  0  0  0  0  0  0
   44.3748    6.0209   -4.8124 O   0  0  0  0  0  0  0  0  0  0  0  0
   45.5027    2.5484   -5.4267 C   0  0  0  0  0  0  0  0  0  0  0  0
   45.3181    1.1602   -5.5689 O   0  0  0  0  0  0  0  0  0  0  0  0
   42.0255   -1.3763   -3.7922 C   0  0  1  0  0  0  0  0  0  0  0  0
   42.2935   -0.0947   -3.0303 O   0  0  0  0  0  0  0  0  0  0  0  0
   39.8069    3.3810    3.4835 C   0  0  0  0  0  0  0  0  0  0  0  0
   45.9595    7.2140   -7.5620 C   0  0  0  0  0  0  0  0  0  0  0  0
   47.0842    6.5013   -7.4207 O   0  0  0  0  0  0  0  0  0  0  0  0
   43.1262    7.5406   -3.2662 C   0  0  1  0  0  0  0  0  0  0  0  0
   44.2115    8.3661   -2.9973 O   0  0  0  0  0  0  0  0  0  0  0  0
   43.6176    5.2349   -0.2858 C   0  0  0  0  0  0  0  0  0  0  0  0
   41.3804   -2.4857   -2.9178 C   0  0  0  0  0  0  0  0  0  0  0  0
   41.1114   -3.6617   -3.7074 N   0  0  0  0  0  0  0  0  0  0  0  0
   42.2077    4.6445   -0.1801 C   0  0  0  0  0  0  0  0  0  0  0  0
   41.4240    5.4053    0.8464 N   0  0  0  0  0  0  0  0  0  0  0  0
   40.0288    4.8202    1.1947 C   0  0  0  0  0  0  0  0  0  0  0  0
  1  2  1  1  0  0  0
  1  9  1  0  0  0  0
  1 35  1  0  0  0  0
  3  4  1  1  0  0  0
  3 11  1  0  0  0  0
  3 45  1  0  0  0  0
  5  6  1  0  0  0  0
  5 12  1  0  0  0  0
  5 37  1  6  0  0  0
  6 30  1  0  0  0  0
  7 14  1  0  0  0  0
  7 41  1  0  0  0  0
  7 23  1  1  0  0  0
  8 16  2  0  0  0  0
  8 42  1  0  0  0  0
  9 10  1  1  0  0  0
  9 18  1  0  0  0  0
 11 20  1  0  0  0  0
 12 13  1  1  0  0  0
 12 22  1  0  0  0  0
 13 47  1  0  0  0  0
 14 15  1  1  0  0  0
 14 24  1  0  0  0  0
 16 17  1  0  0  0  0
 17 26  2  0  0  0  0
 18 19  1  6  0  0  0
 18 27  1  0  0  0  0
 20 21  1  1  0  0  0
 20 29  1  0  0  0  0
 22 23  1  1  0  0  0
 22 30  1  0  0  0  0
 24 25  1  1  0  0  0
 24 31  1  0  0  0  0
 26 33  1  0  0  0  0
 27 28  1  1  0  0  0
 27 34  1  0  0  0  0
 29  2  1  6  0  0  0
 29 36  1  0  0  0  0
 30 38  1  6  0  0  0
 31 32  1  1  0  0  0
 31 40  1  0  0  0  0
 33 42  2  0  0  0  0
 34 35  1  0  0  0  0
 34 43  1  6  0  0  0
 36 37  1  1  0  0  0
 36 45  1  0  0  0  0
 38 39  1  0  0  0  0
 40 41  1  0  0  0  0
 40 48  1  1  0  0  0
 43 44  1  0  0  0  0
 45 46  1  6  0  0  0
 47 50  1  0  0  0  0
 48 49  1  0  0  0  0
 50 51  1  0  0  0  0
 51 52  1  0  0  0  0
 52  8  1  0  0  0  0
M  END
>  <CHROM.1>
-176.14540544,173.24443252,-63.97347328,118.37655075,56.39826726,169.91764873
62.59579925,162.77832846,-71.08908945,-94.74301733,58.60131190,-169.52738705
-172.88450056,70.90859715,-74.27855705,42.68300985,3.83199156,-3.96670357
-0.05589137,1.21569897,0.50092603

>  <Name>
2be0_lig

>  <RI>
0

>  <Rbt.Current_Directory>
/home/itssahil/PROJECTS/Mol_Feturizer/New_Systems/rnas/2be0

>  <Rbt.Executable>
rbdock ($Id: //depot/dev/client3/rdock/2013.1/src/exe/rbdock.cxx#4 $)

>  <Rbt.Library>
libRbt.so (2013.1, Build901 2013/11/27)

>  <Rbt.Parameter_File>
/export/apps/rDock/src/rDock_2013.1_src/data/scripts/dock_solv.prm

>  <Rbt.Receptor>
prm/pocket_docking_6.prm

>  <SCORE>
-21.6987

>  <SCORE.INTER>
-7.17913

>  <SCORE.INTER.CONST>
1

>  <SCORE.INTER.POLAR>
-0.789422

>  <SCORE.INTER.ROT>
15

>  <SCORE.INTER.SOLV>
14.8538

>  <SCORE.INTER.VDW>
-20.706

>  <SCORE.INTER.norm>
-0.13806

>  <SCORE.INTRA>
-14.5196

>  <SCORE.INTRA.DIHEDRAL>
-32.9063

>  <SCORE.INTRA.DIHEDRAL.0>
47.8724

>  <SCORE.INTRA.POLAR>
0

>  <SCORE.INTRA.POLAR.0>
0

>  <SCORE.INTRA.REPUL>
0

>  <SCORE.INTRA.REPUL.0>
0

>  <SCORE.INTRA.SOLV>
-0.997524

>  <SCORE.INTRA.SOLV.lig_0>
-115.677

>  <SCORE.INTRA.VDW>
2.43232

>  <SCORE.INTRA.VDW.0>
-7.4833

>  <SCORE.INTRA.norm>
-0.279223

>  <SCORE.RESTR>
0

>  <SCORE.RESTR.CAVITY>
0

>  <SCORE.RESTR.norm>
0

>  <SCORE.SYSTEM>
0

>  <SCORE.SYSTEM.CONST>
0

>  <SCORE.SYSTEM.DIHEDRAL>
0

>  <SCORE.SYSTEM.SOLV>
0

>  <SCORE.SYSTEM.norm>
0

>  <SCORE.heavy>
52

>  <SCORE.norm>
-0.417283

>  <RMSD>
7.219

$$$$
2be0_lig
 OpenBabel11021811423D
libRbt.so/2013.1/901 2013/11/27
 52 56  0  0  0  0  0  0  0  0999 V2000
   44.8628    6.7200   -5.0709 C   0  0  2  0  0  0  0  0  0  0  0  0
   45.2037    5.6797   -4.1853 O   0  0  0  0  0  0  0  0  0  0  0  0
   48.2469    3.6253   -6.6122 C   0  0  2  0  0  0  0  0  0  0  0  0
   49.3554    2.6950   -6.9663 N   0  0  0  0  0  0  0  0  0  0  0  0
   44.6276    2.6522   -3.9809 C   0  0  2  0  0  0  0  0  0  0  0  0
   45.1896    1.3247   -3.9336 O   0  0  0  0  0  0  0  0  0  0  0  0
   40.5379    0.2459   -4.4057 C   0  0  1  0  0  0  0  0  0  0  0  0
   39.6325    5.3696    0.2078 C   0  0  0  0  0  0  0  0  0  0  0  0
   43.7394    7.6508   -4.4566 C   0  0  2  0  0  0  0  0  0  0  0  0
   44.1633    8.1374   -3.1420 N   0  0  0  0  0  0  0  0  0  0  0  0
   48.7104    4.5527   -5.3984 C   0  0  0  0  0  0  0  0  0  0  0  0
   43.1885    2.5430   -3.4523 C   0  0  2  0  0  0  0  0  0  0  0  0
   43.3521    2.6462   -1.9691 O   0  0  0  0  0  0  0  0  0  0  0  0
   39.3217   -0.2381   -3.4425 C   0  0  2  0  0  0  0  0  0  0  0  0
   39.7642   -1.4520   -2.6832 N   0  0  0  0  0  0  0  0  0  0  0  0
   39.0391    5.3092   -1.0956 C   0  0  0  0  0  0  0  0  0  0  0  0
   38.9215    6.4928   -1.8704 N   0  0  0  0  0  0  0  0  0  0  0  0
   42.3588    6.8483   -4.3807 C   0  0  1  0  0  0  0  0  0  0  0  0
   41.3682    7.6966   -3.8210 O   0  0  0  0  0  0  0  0  0  0  0  0
   47.5149    5.5805   -4.9691 C   0  0  2  0  0  0  0  0  0  0  0  0
   47.9203    6.4224   -3.8790 N   0  0  0  0  0  0  0  0  0  0  0  0
   42.8058    1.1931   -4.0881 C   0  0  2  0  0  0  0  0  0  0  0  0
   41.6661    0.5312   -3.5594 O   0  0  0  0  0  0  0  0  0  0  0  0
   38.0955   -0.5641   -4.3476 C   0  0  1  0  0  0  0  0  0  0  0  0
   37.7407    0.6931   -5.0264 O   0  0  0  0  0  0  0  0  0  0  0  0
   39.3684    7.7657   -1.4141 C   0  0  0  0  0  0  0  0  0  0  0  0
   41.9780    6.3811   -5.8156 C   0  0  2  0  0  0  0  0  0  0  0  0
   40.7027    5.6244   -5.8088 O   0  0  0  0  0  0  0  0  0  0  0  0
   46.2244    4.7604   -4.5548 C   0  0  2  0  0  0  0  0  0  0  0  0
   44.1112    0.3684   -3.9891 C   0  0  1  0  0  0  0  0  0  0  0  0
   38.4884   -1.7213   -5.4211 C   0  0  2  0  0  0  0  0  0  0  0  0
   38.8446   -2.9809   -4.7496 O   0  0  0  0  0  0  0  0  0  0  0  0
   39.9641    7.8871   -0.1345 C   0  0  0  0  0  0  0  0  0  0  0  0
   43.1087    5.4562   -6.4104 C   0  0  2  0  0  0  0  0  0  0  0  0
   44.3274    6.2493   -6.3870 O   0  0  0  0  0  0  0  0  0  0  0  0
   45.8186    3.8612   -5.7737 C   0  0  2  0  0  0  0  0  0  0  0  0
   44.6579    3.1896   -5.2991 O   0  0  0  0  0  0  0  0  0  0  0  0
   44.3477   -0.4990   -5.2243 C   0  0  0  0  0  0  0  0  0  0  0  0
   43.7871   -0.0144   -6.4210 O   0  0  0  0  0  0  0  0  0  0  0  0
   39.7171   -1.2235   -6.3129 C   0  0  1  0  0  0  0  0  0  0  0  0
   40.8681   -0.8735   -5.3924 O   0  0  0  0  0  0  0  0  0  0  0  0
   40.1092    6.6812    0.7134 C   0  0  0  0  0  0  0  0  0  0  0  0
   42.7039    5.0655   -7.7704 C   0  0  0  0  0  0  0  0  0  0  0  0
   41.6904    4.1933   -7.7011 O   0  0  0  0  0  0  0  0  0  0  0  0
   46.9891    2.8559   -6.1436 C   0  0  1  0  0  0  0  0  0  0  0  0
   46.6184    2.0739   -7.2311 O   0  0  0  0  0  0  0  0  0  0  0  0
   42.5016    2.0565   -0.9082 C   0  0  0  0  0  0  0  0  0  0  0  0
   40.0534   -2.3682   -7.3069 C   0  0  0  0  0  0  0  0  0  0  0  0
   41.1094   -1.9679   -8.2032 N   0  0  0  0  0  0  0  0  0  0  0  0
   41.9211    3.2179   -0.0950 C   0  0  0  0  0  0  0  0  0  0  0  0
   40.5166    2.8889    0.3121 N   0  0  0  0  0  0  0  0  0  0  0  0
   39.7539    4.0144    1.0616 C   0  0  0  0  0  0  0  0  0  0  0  0
  1  2  1  1  0  0  0
  1  9  1  0  0  0  0
  1 35  1  0  0  0  0
  3  4  1  1  0  0  0
  3 11  1  0  0  0  0
  3 45  1  0  0  0  0
  5  6  1  0  0  0  0
  5 12  1  0  0  0  0
  5 37  1  6  0  0  0
  6 30  1  0  0  0  0
  7 14  1  0  0  0  0
  7 41  1  0  0  0  0
  7 23  1  1  0  0  0
  8 16  2  0  0  0  0
  8 42  1  0  0  0  0
  9 10  1  1  0  0  0
  9 18  1  0  0  0  0
 11 20  1  0  0  0  0
 12 13  1  1  0  0  0
 12 22  1  0  0  0  0
 13 47  1  0  0  0  0
 14 15  1  6  0  0  0
 14 24  1  0  0  0  0
 16 17  1  0  0  0  0
 17 26  2  0  0  0  0
 18 19  1  6  0  0  0
 18 27  1  0  0  0  0
 20 21  1  1  0  0  0
 20 29  1  0  0  0  0
 22 23  1  1  0  0  0
 22 30  1  0  0  0  0
 24 25  1  6  0  0  0
 24 31  1  0  0  0  0
 26 33  1  0  0  0  0
 27 28  1  1  0  0  0
 27 34  1  0  0  0  0
 29  2  1  6  0  0  0
 29 36  1  0  0  0  0
 30 38  1  6  0  0  0
 31 32  1  1  0  0  0
 31 40  1  0  0  0  0
 33 42  2  0  0  0  0
 34 35  1  0  0  0  0
 34 43  1  6  0  0  0
 36 37  1  1  0  0  0
 36 45  1  0  0  0  0
 38 39  1  0  0  0  0
 40 41  1  0  0  0  0
 40 48  1  6  0  0  0
 43 44  1  0  0  0  0
 45 46  1  6  0  0  0
 47 50  1  0  0  0  0
 48 49  1  0  0  0  0
 50 51  1  0  0  0  0
 51 52  1  0  0  0  0
 52  8  1  0  0  0  0
M  END
>  <CHROM.1>
-178.40252624,-85.79142412,-169.16365112,-150.91219530,-118.16716466,119.81792166
52.42055992,-88.45492350,-71.64666985,-43.57143074,176.79178483,143.17003546
-175.86706813,58.91646345,55.78542125,42.65263986,3.13401985,-4.25762147
0.70260700,0.50187534,0.46471209

>  <Name>
2be0_lig

>  <RI>
2.10017e+07

>  <Rbt.Current_Directory>
/home/itssahil/PROJECTS/Mol_Feturizer/New_Systems/rnas/2be0

>  <Rbt.Executable>
rbdock ($Id: //depot/dev/client3/rdock/2013.1/src/exe/rbdock.cxx#4 $)

>  <Rbt.Library>
libRbt.so (2013.1, Build901 2013/11/27)

>  <Rbt.Parameter_File>
/export/apps/rDock/src/rDock_2013.1_src/data/scripts/dock_solv.prm

>  <Rbt.Receptor>
prm/pocket_docking_3.prm

>  <SCORE>
0.0977414

>  <SCORE.INTER>
6.36974

>  <SCORE.INTER.CONST>
1

>  <SCORE.INTER.POLAR>
-0.797478

>  <SCORE.INTER.ROT>
15

>  <SCORE.INTER.SOLV>
15.5219

>  <SCORE.INTER.VDW>
-11.8692

>  <SCORE.INTER.norm>
0.122495

>  <SCORE.INTRA>
-7.50257

>  <SCORE.INTRA.DIHEDRAL>
-17.7006

>  <SCORE.INTRA.DIHEDRAL.0>
47.8724

>  <SCORE.INTRA.POLAR>
0

>  <SCORE.INTRA.POLAR.0>
0

>  <SCORE.INTRA.REPUL>
0.0192043

>  <SCORE.INTRA.REPUL.0>
0

>  <SCORE.INTRA.SOLV>
-1.75328

>  <SCORE.INTRA.SOLV.lig_0>
-115.677

>  <SCORE.INTRA.VDW>
2.12833

>  <SCORE.INTRA.VDW.0>
-7.4833

>  <SCORE.INTRA.norm>
-0.14428

>  <SCORE.RESTR>
1.23057

>  <SCORE.RESTR.CAVITY>
1.23057

>  <SCORE.RESTR.norm>
0.0236648

>  <SCORE.SYSTEM>
0

>  <SCORE.SYSTEM.CONST>
0

>  <SCORE.SYSTEM.DIHEDRAL>
0

>  <SCORE.SYSTEM.SOLV>
0

>  <SCORE.SYSTEM.norm>
0

>  <SCORE.heavy>
52

>  <SCORE.norm>
0.00187964

>  <RMSD>
7.237

$$$$
2be0_lig
 OpenBabel11021811423D
libRbt.so/2013.1/901 2013/11/27
 52 56  0  0  0  0  0  0  0  0999 V2000
   42.4279    2.1425   -9.1111 C   0  0  2  0  0  0  0  0  0  0  0  0
   41.9242    1.4165   -8.0146 O   0  0  0  0  0  0  0  0  0  0  0  0
   37.6881    1.0455   -9.1498 C   0  0  2  0  0  0  0  0  0  0  0  0
   36.3077    0.4908   -9.2295 N   0  0  0  0  0  0  0  0  0  0  0  0
   38.9586    2.7104   -5.3347 C   0  0  2  0  0  0  0  0  0  0  0  0
   38.3103    3.9500   -5.6860 O   0  0  0  0  0  0  0  0  0  0  0  0
   41.1938    6.2980   -3.0432 C   0  0  1  0  0  0  0  0  0  0  0  0
   38.1451    2.0470    1.8691 C   0  0  0  0  0  0  0  0  0  0  0  0
   43.9384    2.5555   -8.8799 C   0  0  2  0  0  0  0  0  0  0  0  0
   44.7352    1.3668   -8.5691 N   0  0  0  0  0  0  0  0  0  0  0  0
   38.7269   -0.0665   -9.6321 C   0  0  0  0  0  0  0  0  0  0  0  0
   39.5954    2.9200   -3.9516 C   0  0  2  0  0  0  0  0  0  0  0  0
   38.4771    2.6241   -3.0034 O   0  0  0  0  0  0  0  0  0  0  0  0
   42.7160    5.8651   -3.4134 C   0  0  2  0  0  0  0  0  0  0  0  0
   43.2297    4.9518   -2.3421 N   0  0  0  0  0  0  0  0  0  0  0  0
   38.6683    3.3792    1.9488 C   0  0  0  0  0  0  0  0  0  0  0  0
   38.2342    4.2442    2.9872 N   0  0  0  0  0  0  0  0  0  0  0  0
   44.0240    3.6530   -7.7206 C   0  0  1  0  0  0  0  0  0  0  0  0
   45.3851    4.0037   -7.5240 O   0  0  0  0  0  0  0  0  0  0  0  0
   40.2576    0.4987   -9.5462 C   0  0  2  0  0  0  0  0  0  0  0  0
   41.2021   -0.4919   -9.9798 N   0  0  0  0  0  0  0  0  0  0  0  0
   40.0812    4.3705   -4.1332 C   0  0  2  0  0  0  0  0  0  0  0  0
   40.4152    5.0910   -2.9560 O   0  0  0  0  0  0  0  0  0  0  0  0
   43.5751    7.1627   -3.4978 C   0  0  1  0  0  0  0  0  0  0  0  0
   42.9945    7.9695   -4.5838 O   0  0  0  0  0  0  0  0  0  0  0  0
   37.2856    3.8544    3.9752 C   0  0  0  0  0  0  0  0  0  0  0  0
   43.1636    4.8812   -8.1368 C   0  0  2  0  0  0  0  0  0  0  0  0
   43.2008    5.9356   -7.0947 O   0  0  0  0  0  0  0  0  0  0  0  0
   40.5877    0.9316   -8.0585 C   0  0  2  0  0  0  0  0  0  0  0  0
   38.9541    5.0231   -4.9685 C   0  0  1  0  0  0  0  0  0  0  0  0
   43.5210    7.9589   -2.0804 C   0  0  2  0  0  0  0  0  0  0  0  0
   44.0994    7.1583   -0.9900 O   0  0  0  0  0  0  0  0  0  0  0  0
   36.7346    2.5495    3.9481 C   0  0  0  0  0  0  0  0  0  0  0  0
   41.6635    4.4499   -8.3628 C   0  0  2  0  0  0  0  0  0  0  0  0
   41.6943    3.4176   -9.3867 O   0  0  0  0  0  0  0  0  0  0  0  0
   39.5356    2.0131   -7.6314 C   0  0  2  0  0  0  0  0  0  0  0  0
   39.9317    2.3328   -6.3032 O   0  0  0  0  0  0  0  0  0  0  0  0
   39.4933    5.9978   -6.0142 C   0  0  0  0  0  0  0  0  0  0  0  0
   40.1649    7.1242   -5.5028 O   0  0  0  0  0  0  0  0  0  0  0  0
   42.0044    8.3216   -1.7324 C   0  0  1  0  0  0  0  0  0  0  0  0
   41.1975    7.0398   -1.7070 O   0  0  0  0  0  0  0  0  0  0  0  0
   37.1545    1.6087    2.8838 C   0  0  0  0  0  0  0  0  0  0  0  0
   40.9069    5.6436   -8.7735 C   0  0  0  0  0  0  0  0  0  0  0  0
   41.3967    6.1059   -9.9307 O   0  0  0  0  0  0  0  0  0  0  0  0
   38.0647    1.4218   -7.6973 C   0  0  1  0  0  0  0  0  0  0  0  0
   37.1442    2.3945   -7.3262 O   0  0  0  0  0  0  0  0  0  0  0  0
   38.2864    3.1275   -1.6226 C   0  0  0  0  0  0  0  0  0  0  0  0
   42.0140    9.0670   -0.3701 C   0  0  0  0  0  0  0  0  0  0  0  0
   40.6785    9.4651   -0.0002 N   0  0  0  0  0  0  0  0  0  0  0  0
   37.1386    2.3245   -1.0019 C   0  0  0  0  0  0  0  0  0  0  0  0
   37.6608    1.0103   -0.5052 N   0  0  0  0  0  0  0  0  0  0  0  0
   38.6552    1.0896    0.6843 C   0  0  0  0  0  0  0  0  0  0  0  0
  1  2  1  1  0  0  0
  1  9  1  0  0  0  0
  1 35  1  0  0  0  0
  3  4  1  1  0  0  0
  3 11  1  0  0  0  0
  3 45  1  0  0  0  0
  5  6  1  0  0  0  0
  5 12  1  0  0  0  0
  5 37  1  6  0  0  0
  6 30  1  0  0  0  0
  7 14  1  0  0  0  0
  7 41  1  0  0  0  0
  7 23  1  1  0  0  0
  8 16  2  0  0  0  0
  8 42  1  0  0  0  0
  9 10  1  1  0  0  0
  9 18  1  0  0  0  0
 11 20  1  0  0  0  0
 12 13  1  1  0  0  0
 12 22  1  0  0  0  0
 13 47  1  0  0  0  0
 14 15  1  1  0  0  0
 14 24  1  0  0  0  0
 16 17  1  0  0  0  0
 17 26  2  0  0  0  0
 18 19  1  6  0  0  0
 18 27  1  0  0  0  0
 20 21  1  1  0  0  0
 20 29  1  0  0  0  0
 22 23  1  1  0  0  0
 22 30  1  0  0  0  0
 24 25  1  6  0  0  0
 24 31  1  0  0  0  0
 26 33  1  0  0  0  0
 27 28  1  1  0  0  0
 27 34  1  0  0  0  0
 29  2  1  6  0  0  0
 29 36  1  0  0  0  0
 30 38  1  6  0  0  0
 31 32  1  1  0  0  0
 31 40  1  0  0  0  0
 33 42  2  0  0  0  0
 34 35  1  0  0  0  0
 34 43  1  6  0  0  0
 36 37  1  1  0  0  0
 36 45  1  0  0  0  0
 38 39  1  0  0  0  0
 40 41  1  0  0  0  0
 40 48  1  1  0  0  0
 43 44  1  0  0  0  0
 45 46  1  6  0  0  0
 47 50  1  0  0  0  0
 48 49  1  0  0  0  0
 50 51  1  0  0  0  0
 51 52  1  0  0  0  0
 52  8  1  0  0  0  0
M  END
>  <CHROM.1>
-178.46560225,-64.47238579,-72.14035459,-154.11255049,-169.54106538,163.71622323
35.84281639,-179.91185134,62.03183916,-148.06842978,178.37211197,81.54948961
66.42482163,47.69579334,-99.69774453,40.48421934,3.93638267,-4.60547403,-1.27496895
0.80440714,1.15363938

>  <Name>
2be0_lig

>  <RI>
3.37048e+07

>  <Rbt.Current_Directory>
/home/itssahil/PROJECTS/Mol_Feturizer/New_Systems/rnas/2be0

>  <Rbt.Executable>
rbdock ($Id: //depot/dev/client3/rdock/2013.1/src/exe/rbdock.cxx#4 $)

>  <Rbt.Library>
libRbt.so (2013.1, Build901 2013/11/27)

>  <Rbt.Parameter_File>
/export/apps/rDock/src/rDock_2013.1_src/data/scripts/dock_solv.prm

>  <Rbt.Receptor>
prm/pocket_docking_8.prm

>  <SCORE>
-20.2397

>  <SCORE.INTER>
-6.84026

>  <SCORE.INTER.CONST>
1

>  <SCORE.INTER.POLAR>
0

>  <SCORE.INTER.ROT>
15

>  <SCORE.INTER.SOLV>
11.0509

>  <SCORE.INTER.VDW>
-21.8438

>  <SCORE.INTER.norm>
-0.131543

>  <SCORE.INTRA>
-13.3995

>  <SCORE.INTRA.DIHEDRAL>
-33.3614

>  <SCORE.INTRA.DIHEDRAL.0>
47.8724

>  <SCORE.INTRA.POLAR>
0

>  <SCORE.INTRA.POLAR.0>
0

>  <SCORE.INTRA.REPUL>
0

>  <SCORE.INTRA.REPUL.0>
0

>  <SCORE.INTRA.SOLV>
-0.884848

>  <SCORE.INTRA.SOLV.lig_0>
-115.677

>  <SCORE.INTRA.VDW>
3.72369

>  <SCORE.INTRA.VDW.0>
-7.4833

>  <SCORE.INTRA.norm>
-0.257682

>  <SCORE.RESTR>
0

>  <SCORE.RESTR.CAVITY>
0

>  <SCORE.RESTR.norm>
0

>  <SCORE.SYSTEM>
0

>  <SCORE.SYSTEM.CONST>
0

>  <SCORE.SYSTEM.DIHEDRAL>
0

>  <SCORE.SYSTEM.SOLV>
0

>  <SCORE.SYSTEM.norm>
0

>  <SCORE.heavy>
52

>  <SCORE.norm>
-0.389225

>  <RMSD>
7.266

$$$$
2be0_lig
 OpenBabel11021811423D
libRbt.so/2013.1/901 2013/11/27
 52 56  0  0  0  0  0  0  0  0999 V2000
   42.6084    2.9899   -7.3391 C   0  0  2  0  0  0  0  0  0  0  0  0
   41.6767    3.0144   -8.3947 O   0  0  0  0  0  0  0  0  0  0  0  0
   37.5924    1.3946   -8.6505 C   0  0  2  0  0  0  0  0  0  0  0  0
   36.4874    0.3970   -8.7085 N   0  0  0  0  0  0  0  0  0  0  0  0
   39.6746    2.2487   -4.8127 C   0  0  2  0  0  0  0  0  0  0  0  0
   39.0587    3.5153   -4.5014 O   0  0  0  0  0  0  0  0  0  0  0  0
   42.4255    4.9401   -1.9693 C   0  0  1  0  0  0  0  0  0  0  0  0
   39.5329    0.0108    3.2450 C   0  0  0  0  0  0  0  0  0  0  0  0
   43.7714    4.0371   -7.5766 C   0  0  2  0  0  0  0  0  0  0  0  0
   43.2019    5.3671   -7.8033 N   0  0  0  0  0  0  0  0  0  0  0  0
   38.6258    1.0991   -9.8307 C   0  0  0  0  0  0  0  0  0  0  0  0
   40.6744    1.9529   -3.6834 C   0  0  2  0  0  0  0  0  0  0  0  0
   39.8317    1.3044   -2.6314 O   0  0  0  0  0  0  0  0  0  0  0  0
   43.5032    4.7845   -0.7628 C   0  0  2  0  0  0  0  0  0  0  0  0
   42.8088    4.1987    0.4290 N   0  0  0  0  0  0  0  0  0  0  0  0
   40.1540    1.2474    3.6189 C   0  0  0  0  0  0  0  0  0  0  0  0
   40.9720    1.3013    4.7778 N   0  0  0  0  0  0  0  0  0  0  0  0
   44.6825    3.5600   -8.8006 C   0  0  1  0  0  0  0  0  0  0  0  0
   45.7130    4.5148   -9.0016 O   0  0  0  0  0  0  0  0  0  0  0  0
   39.8635    2.1652   -9.7935 C   0  0  2  0  0  0  0  0  0  0  0  0
   40.7996    1.9114  -10.8521 N   0  0  0  0  0  0  0  0  0  0  0  0
   41.2098    3.3804   -3.4629 C   0  0  2  0  0  0  0  0  0  0  0  0
   41.9052    3.6282   -2.2498 O   0  0  0  0  0  0  0  0  0  0  0  0
   44.0660    6.2012   -0.4385 C   0  0  1  0  0  0  0  0  0  0  0  0
   44.7346    6.6678   -1.6644 O   0  0  0  0  0  0  0  0  0  0  0  0
   41.2139    0.1707    5.6093 C   0  0  0  0  0  0  0  0  0  0  0  0
   45.2548    2.1504   -8.4720 C   0  0  2  0  0  0  0  0  0  0  0  0
   46.1086    1.6511   -9.5768 O   0  0  0  0  0  0  0  0  0  0  0  0
   40.6056    2.0784   -8.3967 C   0  0  2  0  0  0  0  0  0  0  0  0
   39.9566    4.2665   -3.6588 C   0  0  1  0  0  0  0  0  0  0  0  0
   42.8525    7.1983   -0.0149 C   0  0  2  0  0  0  0  0  0  0  0  0
   42.1792    6.7379    1.2095 O   0  0  0  0  0  0  0  0  0  0  0  0
   40.6276   -1.0786    5.2893 C   0  0  0  0  0  0  0  0  0  0  0  0
   44.0819    1.1221   -8.2383 C   0  0  2  0  0  0  0  0  0  0  0  0
   43.2830    1.6670   -7.1522 O   0  0  0  0  0  0  0  0  0  0  0  0
   39.5475    2.3649   -7.2754 C   0  0  2  0  0  0  0  0  0  0  0  0
   40.3176    2.2745   -6.0829 O   0  0  0  0  0  0  0  0  0  0  0  0
   40.2725    5.5685   -4.3930 C   0  0  0  0  0  0  0  0  0  0  0  0
   40.7885    5.4203   -5.6941 O   0  0  0  0  0  0  0  0  0  0  0  0
   41.7939    7.2837   -1.2086 C   0  0  1  0  0  0  0  0  0  0  0  0
   41.3092    5.8832   -1.5221 O   0  0  0  0  0  0  0  0  0  0  0  0
   39.7648   -1.1871    4.0902 C   0  0  0  0  0  0  0  0  0  0  0  0
   44.6822   -0.1814   -7.9118 C   0  0  0  0  0  0  0  0  0  0  0  0
   45.3727   -0.0809   -6.7690 O   0  0  0  0  0  0  0  0  0  0  0  0
   38.3774    1.2942   -7.3213 C   0  0  1  0  0  0  0  0  0  0  0  0
   37.4435    1.5677   -6.3290 O   0  0  0  0  0  0  0  0  0  0  0  0
   40.2627    0.7275   -1.3362 C   0  0  0  0  0  0  0  0  0  0  0  0
   40.6583    8.2360   -0.7448 C   0  0  0  0  0  0  0  0  0  0  0  0
   39.6450    8.3513   -1.7639 N   0  0  0  0  0  0  0  0  0  0  0  0
   39.0008    0.2492   -0.6108 C   0  0  0  0  0  0  0  0  0  0  0  0
   39.3892   -0.4540    0.6547 N   0  0  0  0  0  0  0  0  0  0  0  0
   38.6137   -0.0212    1.9280 C   0  0  0  0  0  0  0  0  0  0  0  0
  1  2  1  6  0  0  0
  1  9  1  0  0  0  0
  1 35  1  0  0  0  0
  3  4  1  1  0  0  0
  3 11  1  0  0  0  0
  3 45  1  0  0  0  0
  5  6  1  0  0  0  0
  5 12  1  0  0  0  0
  5 37  1  6  0  0  0
  6 30  1  0  0  0  0
  7 14  1  0  0  0  0
  7 41  1  0  0  0  0
  7 23  1  1  0  0  0
  8 16  2  0  0  0  0
  8 42  1  0  0  0  0
  9 10  1  6  0  0  0
  9 18  1  0  0  0  0
 11 20  1  0  0  0  0
 12 13  1  1  0  0  0
 12 22  1  0  0  0  0
 13 47  1  0  0  0  0
 14 15  1  1  0  0  0
 14 24  1  0  0  0  0
 16 17  1  0  0  0  0
 17 26  2  0  0  0  0
 18 19  1  1  0  0  0
 18 27  1  0  0  0  0
 20 21  1  6  0  0  0
 20 29  1  0  0  0  0
 22 23  1  1  0  0  0
 22 30  1  0  0  0  0
 24 25  1  6  0  0  0
 24 31  1  0  0  0  0
 26 33  1  0  0  0  0
 27 28  1  6  0  0  0
 27 34  1  0  0  0  0
 29  2  1  6  0  0  0
 29 36  1  0  0  0  0
 30 38  1  6  0  0  0
 31 32  1  1  0  0  0
 31 40  1  0  0  0  0
 33 42  2  0  0  0  0
 34 35  1  0  0  0  0
 34 43  1  1  0  0  0
 36 37  1  1  0  0  0
 36 45  1  0  0  0  0
 38 39  1  0  0  0  0
 40 41  1  0  0  0  0
 40 48  1  1  0  0  0
 43 44  1  0  0  0  0
 45 46  1  1  0  0  0
 47 50  1  0  0  0  0
 48 49  1  0  0  0  0
 50 51  1  0  0  0  0
 51 52  1  0  0  0  0
 52  8  1  0  0  0  0
M  END
>  <CHROM.1>
175.98720469,-68.62651609,-163.83718263,176.14890411,177.51457858,-179.54149575
-170.71723395,-55.24764732,62.93222770,-169.25488221,-179.09504993,175.04038008
131.98670152,-142.89577360,93.55822278,41.35643960,2.89747680,-3.85131397
-1.37242195,0.93017820,1.41075727

>  <Name>
2be0_lig

>  <RI>
3.37048e+07

>  <Rbt.Current_Directory>
/home/itssahil/PROJECTS/Mol_Feturizer/New_Systems/rnas/2be0

>  <Rbt.Executable>
rbdock ($Id: //depot/dev/client3/rdock/2013.1/src/exe/rbdock.cxx#4 $)

>  <Rbt.Library>
libRbt.so (2013.1, Build901 2013/11/27)

>  <Rbt.Parameter_File>
/export/apps/rDock/src/rDock_2013.1_src/data/scripts/dock_solv.prm

>  <Rbt.Receptor>
prm/pocket_docking_8.prm

>  <SCORE>
-23.4916

>  <SCORE.INTER>
-3.18187

>  <SCORE.INTER.CONST>
1

>  <SCORE.INTER.POLAR>
-0.894427

>  <SCORE.INTER.ROT>
15

>  <SCORE.INTER.SOLV>
11.5088

>  <SCORE.INTER.VDW>
-16.5761

>  <SCORE.INTER.norm>
-0.0611899

>  <SCORE.INTRA>
-20.3097

>  <SCORE.INTRA.DIHEDRAL>
-41.8318

>  <SCORE.INTRA.DIHEDRAL.0>
47.8724

>  <SCORE.INTRA.POLAR>
0

>  <SCORE.INTRA.POLAR.0>
0

>  <SCORE.INTRA.REPUL>
0

>  <SCORE.INTRA.REPUL.0>
0

>  <SCORE.INTRA.SOLV>
-2.38114

>  <SCORE.INTRA.SOLV.lig_0>
-115.677

>  <SCORE.INTRA.VDW>
1.79676

>  <SCORE.INTRA.VDW.0>
-7.4833

>  <SCORE.INTRA.norm>
-0.390571

>  <SCORE.RESTR>
0

>  <SCORE.RESTR.CAVITY>
0

>  <SCORE.RESTR.norm>
0

>  <SCORE.SYSTEM>
0

>  <SCORE.SYSTEM.CONST>
0

>  <SCORE.SYSTEM.DIHEDRAL>
0

>  <SCORE.SYSTEM.SOLV>
0

>  <SCORE.SYSTEM.norm>
0

>  <SCORE.heavy>
52

>  <SCORE.norm>
-0.451761

>  <RMSD>
7.266

$$$$
2be0_lig
 OpenBabel11021811423D
libRbt.so/2013.1/901 2013/11/27
 52 56  0  0  0  0  0  0  0  0999 V2000
   41.7825    1.5892   -6.3850 C   0  0  2  0  0  0  0  0  0  0  0  0
   42.2310    2.8445   -5.9312 O   0  0  0  0  0  0  0  0  0  0  0  0
   45.8826    3.2282   -8.3580 C   0  0  2  0  0  0  0  0  0  0  0  0
   47.1204    3.8258   -8.9326 N   0  0  0  0  0  0  0  0  0  0  0  0
   45.1565    3.3793   -4.0073 C   0  0  2  0  0  0  0  0  0  0  0  0
   45.4858    2.9521   -2.6696 O   0  0  0  0  0  0  0  0  0  0  0  0
   42.8576    5.7094   -1.1547 C   0  0  1  0  0  0  0  0  0  0  0  0
   44.2570    8.7339   -9.0254 C   0  0  0  0  0  0  0  0  0  0  0  0
   40.3056    1.2970   -5.8960 C   0  0  2  0  0  0  0  0  0  0  0  0
   39.4245    2.3960   -6.2967 N   0  0  0  0  0  0  0  0  0  0  0  0
   44.6518    4.2055   -8.6378 C   0  0  0  0  0  0  0  0  0  0  0  0
   44.0657    4.4539   -3.8731 C   0  0  2  0  0  0  0  0  0  0  0  0
   44.8410    5.7122   -3.6433 O   0  0  0  0  0  0  0  0  0  0  0  0
   43.2434    5.0012    0.2563 C   0  0  2  0  0  0  0  0  0  0  0  0
   42.0167    4.3485    0.8175 N   0  0  0  0  0  0  0  0  0  0  0  0
   45.4985    9.4461   -9.1049 C   0  0  0  0  0  0  0  0  0  0  0  0
   45.8239   10.1624  -10.2864 N   0  0  0  0  0  0  0  0  0  0  0  0
   40.2983    1.0711   -4.3134 C   0  0  1  0  0  0  0  0  0  0  0  0
   38.9660    0.8185   -3.8947 O   0  0  0  0  0  0  0  0  0  0  0  0
   43.2740    3.5917   -8.0096 C   0  0  2  0  0  0  0  0  0  0  0  0
   42.1582    4.4608   -8.2566 N   0  0  0  0  0  0  0  0  0  0  0  0
   43.2605    3.8292   -2.7180 C   0  0  2  0  0  0  0  0  0  0  0  0
   42.3576    4.6801   -2.0272 O   0  0  0  0  0  0  0  0  0  0  0  0
   43.7743    6.1075    1.2172 C   0  0  1  0  0  0  0  0  0  0  0  0
   44.9785    6.6632    0.5779 O   0  0  0  0  0  0  0  0  0  0  0  0
   44.9677   10.2126  -11.4233 C   0  0  0  0  0  0  0  0  0  0  0  0
   41.2460   -0.1172   -3.9784 C   0  0  2  0  0  0  0  0  0  0  0  0
   41.2841   -0.3732   -2.5182 O   0  0  0  0  0  0  0  0  0  0  0  0
   43.4441    3.3768   -6.4493 C   0  0  2  0  0  0  0  0  0  0  0  0
   44.3532    3.2098   -1.8145 C   0  0  1  0  0  0  0  0  0  0  0  0
   42.6389    7.2530    1.4281 C   0  0  2  0  0  0  0  0  0  0  0  0
   41.4321    6.7047    2.0664 O   0  0  0  0  0  0  0  0  0  0  0  0
   43.7271    9.5290  -11.4027 C   0  0  0  0  0  0  0  0  0  0  0  0
   42.7112    0.1922   -4.4734 C   0  0  2  0  0  0  0  0  0  0  0  0
   42.6069    0.4367   -5.9031 O   0  0  0  0  0  0  0  0  0  0  0  0
   44.6683    2.4217   -6.2296 C   0  0  2  0  0  0  0  0  0  0  0  0
   44.7178    2.2911   -4.8141 O   0  0  0  0  0  0  0  0  0  0  0  0
   43.9275    1.8675   -1.2219 C   0  0  0  0  0  0  0  0  0  0  0  0
   44.9462    1.1385   -0.5799 O   0  0  0  0  0  0  0  0  0  0  0  0
   42.2551    7.8875    0.0128 C   0  0  1  0  0  0  0  0  0  0  0  0
   41.7902    6.7739   -0.9028 O   0  0  0  0  0  0  0  0  0  0  0  0
   43.3413    8.7659  -10.1931 C   0  0  0  0  0  0  0  0  0  0  0  0
   43.5527   -0.9710   -4.1496 C   0  0  0  0  0  0  0  0  0  0  0  0
   44.8146   -0.7270   -4.5246 O   0  0  0  0  0  0  0  0  0  0  0  0
   45.9929    3.0616   -6.8239 C   0  0  1  0  0  0  0  0  0  0  0  0
   47.0657    2.1994   -6.6307 O   0  0  0  0  0  0  0  0  0  0  0  0
   44.7562    6.9916   -4.3865 C   0  0  0  0  0  0  0  0  0  0  0  0
   41.1645    8.9616    0.2744 C   0  0  0  0  0  0  0  0  0  0  0  0
   40.8526    9.6741   -0.9396 N   0  0  0  0  0  0  0  0  0  0  0  0
   45.2315    6.7172   -5.8169 C   0  0  0  0  0  0  0  0  0  0  0  0
   45.0724    7.9583   -6.6421 N   0  0  0  0  0  0  0  0  0  0  0  0
   43.9143    7.9332   -7.6757 C   0  0  0  0  0  0  0  0  0  0  0  0
  1  2  1  1  0  0  0
  1  9  1  0  0  0  0
  1 35  1  0  0  0  0
  3  4  1  1  0  0  0
  3 11  1  0  0  0  0
  3 45  1  0  0  0  0
  5  6  1  0  0  0  0
  5 12  1  0  0  0  0
  5 37  1  6  0  0  0
  6 30  1  0  0  0  0
  7 14  1  0  0  0  0
  7 41  1  0  0  0  0
  7 23  1  6  0  0  0
  8 16  2  0  0  0  0
  8 42  1  0  0  0  0
  9 10  1  1  0  0  0
  9 18  1  0  0  0  0
 11 20  1  0  0  0  0
 12 13  1  1  0  0  0
 12 22  1  0  0  0  0
 13 47  1  0  0  0  0
 14 15  1  1  0  0  0
 14 24  1  0  0  0  0
 16 17  1  0  0  0  0
 17 26  2  0  0  0  0
 18 19  1  6  0  0  0
 18 27  1  0  0  0  0
 20 21  1  1  0  0  0
 20 29  1  0  0  0  0
 22 23  1  1  0  0  0
 22 30  1  0  0  0  0
 24 25  1  6  0  0  0
 24 31  1  0  0  0  0
 26 33  1  0  0  0  0
 27 28  1  1  0  0  0
 27 34  1  0  0  0  0
 29  2  1  6  0  0  0
 29 36  1  0  0  0  0
 30 38  1  6  0  0  0
 31 32  1  6  0  0  0
 31 40  1  0  0  0  0
 33 42  2  0  0  0  0
 34 35  1  0  0  0  0
 34 43  1  6  0  0  0
 36 37  1  1  0  0  0
 36 45  1  0  0  0  0
 38 39  1  0  0  0  0
 40 41  1  0  0  0  0
 40 48  1  1  0  0  0
 43 44  1  0  0  0  0
 45 46  1  6  0  0  0
 47 50  1  0  0  0  0
 48 49  1  0  0  0  0
 50 51  1  0  0  0  0
 51 52  1  0  0  0  0
 52  8  1  0  0  0  0
M  END
>  <CHROM.1>
-169.71635712,-164.11752104,-80.30101875,126.64928795,-65.02243335,-71.42466177
62.21779733,53.30240901,-178.34161719,-72.16211629,174.51855823,175.93538754
-107.04102118,-145.44600058,-4.43607726,43.46163050,4.42797680,-4.45839988
0.07025600,-1.32845769,-2.69023162

>  <Name>
2be0_lig

>  <RI>
2.75444e+07

>  <Rbt.Current_Directory>
/home/itssahil/PROJECTS/Mol_Feturizer/New_Systems/rnas/2be0

>  <Rbt.Executable>
rbdock ($Id: //depot/dev/client3/rdock/2013.1/src/exe/rbdock.cxx#4 $)

>  <Rbt.Library>
libRbt.so (2013.1, Build901 2013/11/27)

>  <Rbt.Parameter_File>
/export/apps/rDock/src/rDock_2013.1_src/data/scripts/dock_solv.prm

>  <Rbt.Receptor>
prm/pocket_docking_5.prm

>  <SCORE>
-30.1879

>  <SCORE.INTER>
-13.3876

>  <SCORE.INTER.CONST>
1

>  <SCORE.INTER.POLAR>
-0.959166

>  <SCORE.INTER.ROT>
15

>  <SCORE.INTER.SOLV>
13.1016

>  <SCORE.INTER.VDW>
-23.695

>  <SCORE.INTER.norm>
-0.257453

>  <SCORE.INTRA>
-16.8003

>  <SCORE.INTRA.DIHEDRAL>
-33.3407

>  <SCORE.INTRA.DIHEDRAL.0>
47.8724

>  <SCORE.INTRA.POLAR>
0

>  <SCORE.INTRA.POLAR.0>
0

>  <SCORE.INTRA.REPUL>
0

>  <SCORE.INTRA.REPUL.0>
0

>  <SCORE.INTRA.SOLV>
-0.98864

>  <SCORE.INTRA.SOLV.lig_0>
-115.677

>  <SCORE.INTRA.VDW>
0.364344

>  <SCORE.INTRA.VDW.0>
-7.4833

>  <SCORE.INTRA.norm>
-0.323084

>  <SCORE.RESTR>
0

>  <SCORE.RESTR.CAVITY>
0

>  <SCORE.RESTR.norm>
0

>  <SCORE.SYSTEM>
0

>  <SCORE.SYSTEM.CONST>
0

>  <SCORE.SYSTEM.DIHEDRAL>
0

>  <SCORE.SYSTEM.SOLV>
0

>  <SCORE.SYSTEM.norm>
0

>  <SCORE.heavy>
52

>  <SCORE.norm>
-0.580537

>  <RMSD>
7.305

$$$$
2be0_lig
 OpenBabel11021811423D
libRbt.so/2013.1/901 2013/11/27
 52 56  0  0  0  0  0  0  0  0999 V2000
   42.4555    2.7284  -10.5548 C   0  0  2  0  0  0  0  0  0  0  0  0
   43.3818    2.4012   -9.5460 O   0  0  0  0  0  0  0  0  0  0  0  0
   47.7112    3.1232   -9.2196 C   0  0  2  0  0  0  0  0  0  0  0  0
   49.0085    3.8557   -9.2241 N   0  0  0  0  0  0  0  0  0  0  0  0
   44.9321    3.8848   -5.9310 C   0  0  2  0  0  0  0  0  0  0  0  0
   45.6799    2.8933   -5.1976 O   0  0  0  0  0  0  0  0  0  0  0  0
   41.2156    3.2483   -3.3231 C   0  0  1  0  0  0  0  0  0  0  0  0
   43.7659    7.5951   -8.4708 C   0  0  0  0  0  0  0  0  0  0  0  0
   40.9898    2.8507   -9.9694 C   0  0  2  0  0  0  0  0  0  0  0  0
   40.9790    3.8014   -8.8555 N   0  0  0  0  0  0  0  0  0  0  0  0
   46.9876    3.3330  -10.6270 C   0  0  0  0  0  0  0  0  0  0  0  0
   43.7672    4.3191   -5.0273 C   0  0  2  0  0  0  0  0  0  0  0  0
   44.3701    5.3844   -4.1676 O   0  0  0  0  0  0  0  0  0  0  0  0
   40.6604    3.3759   -1.8010 C   0  0  2  0  0  0  0  0  0  0  0  0
   40.9104    2.0815   -1.0884 N   0  0  0  0  0  0  0  0  0  0  0  0
   43.0694    7.4251   -9.7121 C   0  0  0  0  0  0  0  0  0  0  0  0
   43.0832    8.4682  -10.6749 N   0  0  0  0  0  0  0  0  0  0  0  0
   40.4650    1.4065   -9.5283 C   0  0  1  0  0  0  0  0  0  0  0  0
   39.1545    1.5390   -9.0001 O   0  0  0  0  0  0  0  0  0  0  0  0
   45.5510    2.5552  -10.6582 C   0  0  2  0  0  0  0  0  0  0  0  0
   44.8907    2.7344  -11.9204 N   0  0  0  0  0  0  0  0  0  0  0  0
   43.4192    2.9485   -4.4165 C   0  0  2  0  0  0  0  0  0  0  0  0
   42.6209    2.9496   -3.2421 O   0  0  0  0  0  0  0  0  0  0  0  0
   39.1348    3.6862   -1.8728 C   0  0  1  0  0  0  0  0  0  0  0  0
   39.0107    4.9758   -2.5721 O   0  0  0  0  0  0  0  0  0  0  0  0
   43.7640    9.7023  -10.4711 C   0  0  0  0  0  0  0  0  0  0  0  0
   40.4973    0.4676  -10.7692 C   0  0  2  0  0  0  0  0  0  0  0  0
   40.0233   -0.8935  -10.4200 O   0  0  0  0  0  0  0  0  0  0  0  0
   44.6231    3.0939   -9.4927 C   0  0  2  0  0  0  0  0  0  0  0  0
   44.8013    2.2772   -4.2337 C   0  0  1  0  0  0  0  0  0  0  0  0
   38.3638    2.5031   -2.6801 C   0  0  2  0  0  0  0  0  0  0  0  0
   38.4839    1.2110   -1.9870 O   0  0  0  0  0  0  0  0  0  0  0  0
   44.4706    9.9272   -9.2640 C   0  0  0  0  0  0  0  0  0  0  0  0
   41.9644    0.3590  -11.3379 C   0  0  2  0  0  0  0  0  0  0  0  0
   42.3714    1.7184  -11.6561 O   0  0  0  0  0  0  0  0  0  0  0  0
   45.3823    2.8747   -8.1382 C   0  0  2  0  0  0  0  0  0  0  0  0
   44.4629    3.3758   -7.1753 O   0  0  0  0  0  0  0  0  0  0  0  0
   44.7699    0.7830   -4.5503 C   0  0  0  0  0  0  0  0  0  0  0  0
   44.0415   -0.0126   -3.6460 O   0  0  0  0  0  0  0  0  0  0  0  0
   38.9729    2.3802   -4.1520 C   0  0  1  0  0  0  0  0  0  0  0  0
   40.4618    2.1263   -4.0362 O   0  0  0  0  0  0  0  0  0  0  0  0
   44.4860    8.8698   -8.2268 C   0  0  0  0  0  0  0  0  0  0  0  0
   41.9279   -0.5205  -12.5174 C   0  0  0  0  0  0  0  0  0  0  0  0
   43.1786   -0.7869  -12.9142 O   0  0  0  0  0  0  0  0  0  0  0  0
   46.7567    3.6675   -8.1307 C   0  0  1  0  0  0  0  0  0  0  0  0
   47.4216    3.4550   -6.9289 O   0  0  0  0  0  0  0  0  0  0  0  0
   44.9269    6.6936   -4.5827 C   0  0  0  0  0  0  0  0  0  0  0  0
   38.2093    1.2332   -4.8681 C   0  0  0  0  0  0  0  0  0  0  0  0
   38.7102    1.0489   -6.2075 N   0  0  0  0  0  0  0  0  0  0  0  0
   43.7568    7.5444   -5.0869 C   0  0  0  0  0  0  0  0  0  0  0  0
   42.9725    6.7647   -6.0986 N   0  0  0  0  0  0  0  0  0  0  0  0
   43.7344    6.3977   -7.4006 C   0  0  0  0  0  0  0  0  0  0  0  0
  1  2  1  1  0  0  0
  1  9  1  0  0  0  0
  1 35  1  0  0  0  0
  3  4  1  6  0  0  0
  3 11  1  0  0  0  0
  3 45  1  0  0  0  0
  5  6  1  0  0  0  0
  5 12  1  0  0  0  0
  5 37  1  6  0  0  0
  6 30  1  0  0  0  0
  7 14  1  0  0  0  0
  7 41  1  0  0  0  0
  7 23  1  1  0  0  0
  8 16  2  0  0  0  0
  8 42  1  0  0  0  0
  9 10  1  1  0  0  0
  9 18  1  0  0  0  0
 11 20  1  0  0  0  0
 12 13  1  1  0  0  0
 12 22  1  0  0  0  0
 13 47  1  0  0  0  0
 14 15  1  1  0  0  0
 14 24  1  0  0  0  0
 16 17  1  0  0  0  0
 17 26  2  0  0  0  0
 18 19  1  6  0  0  0
 18 27  1  0  0  0  0
 20 21  1  6  0  0  0
 20 29  1  0  0  0  0
 22 23  1  1  0  0  0
 22 30  1  0  0  0  0
 24 25  1  6  0  0  0
 24 31  1  0  0  0  0
 26 33  1  0  0  0  0
 27 28  1  1  0  0  0
 27 34  1  0  0  0  0
 29  2  1  1  0  0  0
 29 36  1  0  0  0  0
 30 38  1  6  0  0  0
 31 32  1  1  0  0  0
 31 40  1  0  0  0  0
 33 42  2  0  0  0  0
 34 35  1  0  0  0  0
 34 43  1  6  0  0  0
 36 37  1  1  0  0  0
 36 45  1  0  0  0  0
 38 39  1  0  0  0  0
 40 41  1  0  0  0  0
 40 48  1  1  0  0  0
 43 44  1  0  0  0  0
 45 46  1  1  0  0  0
 47 50  1  0  0  0  0
 48 49  1  0  0  0  0
 50 51  1  0  0  0  0
 51 52  1  0  0  0  0
 52  8  1  0  0  0  0
M  END
>  <CHROM.1>
-135.44001752,-58.48328167,-171.93489645,63.15318748,67.68296586,73.81102054
-74.74217941,175.20339206,-171.37504647,-153.31341819,-179.50626588,-51.11163647
-63.90972149,-81.83008768,-113.96507762,42.87959184,3.38670928,-7.15357151
0.78195830,-0.81167410,-2.04574707

>  <Name>
2be0_lig

>  <RI>
3.37048e+07

>  <Rbt.Current_Directory>
/home/itssahil/PROJECTS/Mol_Feturizer/New_Systems/rnas/2be0

>  <Rbt.Executable>
rbdock ($Id: //depot/dev/client3/rdock/2013.1/src/exe/rbdock.cxx#4 $)

>  <Rbt.Library>
libRbt.so (2013.1, Build901 2013/11/27)

>  <Rbt.Parameter_File>
/export/apps/rDock/src/rDock_2013.1_src/data/scripts/dock_solv.prm

>  <Rbt.Receptor>
prm/pocket_docking_8.prm

>  <SCORE>
-17.3596

>  <SCORE.INTER>
-4.8553

>  <SCORE.INTER.CONST>
1

>  <SCORE.INTER.POLAR>
0

>  <SCORE.INTER.ROT>
15

>  <SCORE.INTER.SOLV>
10.4915

>  <SCORE.INTER.VDW>
-20.334

>  <SCORE.INTER.norm>
-0.0933712

>  <SCORE.INTRA>
-12.5043

>  <SCORE.INTRA.DIHEDRAL>
-34.0372

>  <SCORE.INTRA.DIHEDRAL.0>
47.8724

>  <SCORE.INTRA.POLAR>
0

>  <SCORE.INTRA.POLAR.0>
0

>  <SCORE.INTRA.REPUL>
0

>  <SCORE.INTRA.REPUL.0>
0

>  <SCORE.INTRA.SOLV>
2.00496

>  <SCORE.INTRA.SOLV.lig_0>
-115.677

>  <SCORE.INTRA.VDW>
3.51179

>  <SCORE.INTRA.VDW.0>
-7.4833

>  <SCORE.INTRA.norm>
-0.240468

>  <SCORE.RESTR>
0

>  <SCORE.RESTR.CAVITY>
0

>  <SCORE.RESTR.norm>
0

>  <SCORE.SYSTEM>
0

>  <SCORE.SYSTEM.CONST>
0

>  <SCORE.SYSTEM.DIHEDRAL>
0

>  <SCORE.SYSTEM.SOLV>
0

>  <SCORE.SYSTEM.norm>
0

>  <SCORE.heavy>
52

>  <SCORE.norm>
-0.333839

>  <RMSD>
7.317

$$$$
2be0_lig
 OpenBabel11021811423D
libRbt.so/2013.1/901 2013/11/27
 52 56  0  0  0  0  0  0  0  0999 V2000
   44.6432    2.2855   -8.3190 C   0  0  2  0  0  0  0  0  0  0  0  0
   45.0570    2.6488   -9.6150 O   0  0  0  0  0  0  0  0  0  0  0  0
   42.7636    2.5749  -13.3708 C   0  0  2  0  0  0  0  0  0  0  0  0
   42.0691    2.0320  -14.5718 N   0  0  0  0  0  0  0  0  0  0  0  0
   41.0025    2.5628   -9.1735 C   0  0  2  0  0  0  0  0  0  0  0  0
   40.8997    3.9877   -8.9749 O   0  0  0  0  0  0  0  0  0  0  0  0
   41.1603    1.7360   -4.6901 C   0  0  1  0  0  0  0  0  0  0  0  0
   37.7364   -0.3518   -9.9413 C   0  0  0  0  0  0  0  0  0  0  0  0
   45.5166    3.0089   -7.2146 C   0  0  2  0  0  0  0  0  0  0  0  0
   45.4945    4.4565   -7.4351 N   0  0  0  0  0  0  0  0  0  0  0  0
   44.2777    2.0690  -13.3693 C   0  0  0  0  0  0  0  0  0  0  0  0
   40.6032    1.9005   -7.8452 C   0  0  2  0  0  0  0  0  0  0  0  0
   39.1118    1.8221   -7.9282 O   0  0  0  0  0  0  0  0  0  0  0  0
   40.5015    2.0085   -3.2296 C   0  0  2  0  0  0  0  0  0  0  0  0
   41.0655    3.2828   -2.6784 N   0  0  0  0  0  0  0  0  0  0  0  0
   37.8149   -1.7278   -9.5473 C   0  0  0  0  0  0  0  0  0  0  0  0
   39.0065   -2.4610   -9.7871 N   0  0  0  0  0  0  0  0  0  0  0  0
   47.0039    2.4230   -7.2367 C   0  0  1  0  0  0  0  0  0  0  0  0
   47.7713    3.0890   -6.2460 O   0  0  0  0  0  0  0  0  0  0  0  0
   45.0723    2.6322  -12.0574 C   0  0  2  0  0  0  0  0  0  0  0  0
   46.4368    2.1858  -12.0454 N   0  0  0  0  0  0  0  0  0  0  0  0
   41.2644    2.8987   -6.8761 C   0  0  2  0  0  0  0  0  0  0  0  0
   40.8359    2.8639   -5.5227 O   0  0  0  0  0  0  0  0  0  0  0  0
   40.8565    0.7999   -2.3118 C   0  0  1  0  0  0  0  0  0  0  0  0
   40.2434   -0.3838   -2.9364 O   0  0  0  0  0  0  0  0  0  0  0  0
   40.1532   -1.8939  -10.4129 C   0  0  0  0  0  0  0  0  0  0  0  0
   46.9357    0.8890   -6.9827 C   0  0  2  0  0  0  0  0  0  0  0  0
   48.2905    0.2860   -6.9958 O   0  0  0  0  0  0  0  0  0  0  0  0
   44.3432    2.1457  -10.7378 C   0  0  2  0  0  0  0  0  0  0  0  0
   41.0463    4.2658   -7.5672 C   0  0  1  0  0  0  0  0  0  0  0  0
   42.4715    0.6381   -2.2048 C   0  0  2  0  0  0  0  0  0  0  0  0
   43.0914    1.8179   -1.5817 O   0  0  0  0  0  0  0  0  0  0  0  0
   40.1348   -0.5380  -10.8230 C   0  0  0  0  0  0  0  0  0  0  0  0
   46.0617    0.1868   -8.0920 C   0  0  2  0  0  0  0  0  0  0  0  0
   44.7544    0.8209   -8.0317 O   0  0  0  0  0  0  0  0  0  0  0  0
   42.8621    2.6580  -10.7943 C   0  0  2  0  0  0  0  0  0  0  0  0
   42.3152    2.1804   -9.5711 O   0  0  0  0  0  0  0  0  0  0  0  0
   42.2519    5.1926   -7.4191 C   0  0  0  0  0  0  0  0  0  0  0  0
   42.5349    5.6132   -6.1061 O   0  0  0  0  0  0  0  0  0  0  0  0
   43.0816    0.4210   -3.6655 C   0  0  1  0  0  0  0  0  0  0  0  0
   42.6739    1.5923   -4.5353 O   0  0  0  0  0  0  0  0  0  0  0  0
   38.9143    0.2702  -10.5960 C   0  0  0  0  0  0  0  0  0  0  0  0
   46.0165   -1.2525   -7.7877 C   0  0  0  0  0  0  0  0  0  0  0  0
   45.4038   -1.9006   -8.7863 O   0  0  0  0  0  0  0  0  0  0  0  0
   42.1124    2.0682  -12.0622 C   0  0  1  0  0  0  0  0  0  0  0  0
   40.8055    2.5393  -12.1035 O   0  0  0  0  0  0  0  0  0  0  0  0
   38.1835    1.0510   -7.0678 C   0  0  0  0  0  0  0  0  0  0  0  0
   44.6199    0.2847   -3.5025 C   0  0  0  0  0  0  0  0  0  0  0  0
   45.1954    1.5299   -3.0589 N   0  0  0  0  0  0  0  0  0  0  0  0
   36.7681    1.5616   -7.3567 C   0  0  0  0  0  0  0  0  0  0  0  0
   36.5982    1.7516   -8.8337 N   0  0  0  0  0  0  0  0  0  0  0  0
   36.3762    0.4538   -9.6562 C   0  0  0  0  0  0  0  0  0  0  0  0
  1  2  1  6  0  0  0
  1  9  1  0  0  0  0
  1 35  1  0  0  0  0
  3  4  1  6  0  0  0
  3 11  1  0  0  0  0
  3 45  1  0  0  0  0
  5  6  1  0  0  0  0
  5 12  1  0  0  0  0
  5 37  1  1  0  0  0
  6 30  1  0  0  0  0
  7 14  1  0  0  0  0
  7 41  1  0  0  0  0
  7 23  1  6  0  0  0
  8 16  2  0  0  0  0
  8 42  1  0  0  0  0
  9 10  1  6  0  0  0
  9 18  1  0  0  0  0
 11 20  1  0  0  0  0
 12 13  1  1  0  0  0
 12 22  1  0  0  0  0
 13 47  1  0  0  0  0
 14 15  1  1  0  0  0
 14 24  1  0  0  0  0
 16 17  1  0  0  0  0
 17 26  2  0  0  0  0
 18 19  1  1  0  0  0
 18 27  1  0  0  0  0
 20 21  1  1  0  0  0
 20 29  1  0  0  0  0
 22 23  1  1  0  0  0
 22 30  1  0  0  0  0
 24 25  1  6  0  0  0
 24 31  1  0  0  0  0
 26 33  1  0  0  0  0
 27 28  1  6  0  0  0
 27 34  1  0  0  0  0
 29  2  1  1  0  0  0
 29 36  1  0  0  0  0
 30 38  1  6  0  0  0
 31 32  1  6  0  0  0
 31 40  1  0  0  0  0
 33 42  2  0  0  0  0
 34 35  1  0  0  0  0
 34 43  1  1  0  0  0
 36 37  1  1  0  0  0
 36 45  1  0  0  0  0
 38 39  1  0  0  0  0
 40 41  1  0  0  0  0
 40 48  1  1  0  0  0
 43 44  1  0  0  0  0
 45 46  1  6  0  0  0
 47 50  1  0  0  0  0
 48 49  1  0  0  0  0
 50 51  1  0  0  0  0
 51 52  1  0  0  0  0
 52  8  1  0  0  0  0
M  END
>  <CHROM.1>
-176.97567856,-62.35902329,-179.01207391,167.05843157,167.08019190,69.04118519
-176.41503083,178.17175930,-173.40500924,173.34223396,-66.98764428,42.37798544
77.05510249,-79.28447422,124.82978940,42.38904574,1.61696440,-7.82758236
-1.15376622,-0.13045335,-1.57222362

>  <Name>
2be0_lig

>  <RI>
3.37048e+07

>  <Rbt.Current_Directory>
/home/itssahil/PROJECTS/Mol_Feturizer/New_Systems/rnas/2be0

>  <Rbt.Executable>
rbdock ($Id: //depot/dev/client3/rdock/2013.1/src/exe/rbdock.cxx#4 $)

>  <Rbt.Library>
libRbt.so (2013.1, Build901 2013/11/27)

>  <Rbt.Parameter_File>
/export/apps/rDock/src/rDock_2013.1_src/data/scripts/dock_solv.prm

>  <Rbt.Receptor>
prm/pocket_docking_8.prm

>  <SCORE>
-15.7218

>  <SCORE.INTER>
6.86696

>  <SCORE.INTER.CONST>
1

>  <SCORE.INTER.POLAR>
0

>  <SCORE.INTER.ROT>
15

>  <SCORE.INTER.SOLV>
5.31467

>  <SCORE.INTER.VDW>
-10.7936

>  <SCORE.INTER.norm>
0.132057

>  <SCORE.INTRA>
-22.5888

>  <SCORE.INTRA.DIHEDRAL>
-42.4862

>  <SCORE.INTRA.DIHEDRAL.0>
47.8724

>  <SCORE.INTRA.POLAR>
0

>  <SCORE.INTRA.POLAR.0>
0

>  <SCORE.INTRA.REPUL>
0

>  <SCORE.INTRA.REPUL.0>
0

>  <SCORE.INTRA.SOLV>
0.212553

>  <SCORE.INTRA.SOLV.lig_0>
-115.677

>  <SCORE.INTRA.VDW>
-1.45194

>  <SCORE.INTRA.VDW.0>
-7.4833

>  <SCORE.INTRA.norm>
-0.434399

>  <SCORE.RESTR>
0

>  <SCORE.RESTR.CAVITY>
0

>  <SCORE.RESTR.norm>
0

>  <SCORE.SYSTEM>
0

>  <SCORE.SYSTEM.CONST>
0

>  <SCORE.SYSTEM.DIHEDRAL>
0

>  <SCORE.SYSTEM.SOLV>
0

>  <SCORE.SYSTEM.norm>
0

>  <SCORE.heavy>
52

>  <SCORE.norm>
-0.302342

>  <RMSD>
7.339

$$$$
2be0_lig
 OpenBabel11021811423D
libRbt.so/2013.1/901 2013/11/27
 52 56  0  0  0  0  0  0  0  0999 V2000
   40.7636    2.5547   -6.0433 C   0  0  2  0  0  0  0  0  0  0  0  0
   42.0467    2.3374   -5.5055 O   0  0  0  0  0  0  0  0  0  0  0  0
   40.9496    1.0887   -1.4302 C   0  0  2  0  0  0  0  0  0  0  0  0
   41.1054    0.6727   -0.0082 N   0  0  0  0  0  0  0  0  0  0  0  0
   43.2961    4.4415   -3.3085 C   0  0  2  0  0  0  0  0  0  0  0  0
   43.7492    4.1112   -1.9796 O   0  0  0  0  0  0  0  0  0  0  0  0
   43.0075    8.8046   -1.3980 C   0  0  1  0  0  0  0  0  0  0  0  0
   50.2088    5.0382   -5.3405 C   0  0  0  0  0  0  0  0  0  0  0  0
   40.7961    2.5451   -7.6258 C   0  0  2  0  0  0  0  0  0  0  0  0
   41.4106    1.3038   -8.1013 N   0  0  0  0  0  0  0  0  0  0  0  0
   41.7695    0.0843   -2.3614 C   0  0  0  0  0  0  0  0  0  0  0  0
   43.6549    5.9173   -3.5447 C   0  0  2  0  0  0  0  0  0  0  0  0
   45.0710    5.8605   -4.0228 O   0  0  0  0  0  0  0  0  0  0  0  0
   43.8023    9.6753   -0.2794 C   0  0  2  0  0  0  0  0  0  0  0  0
   44.1528    8.7776    0.8682 N   0  0  0  0  0  0  0  0  0  0  0  0
   50.4308    6.1428   -6.2267 C   0  0  0  0  0  0  0  0  0  0  0  0
   51.7322    6.3811   -6.7411 N   0  0  0  0  0  0  0  0  0  0  0  0
   41.5730    3.8382   -8.1552 C   0  0  1  0  0  0  0  0  0  0  0  0
   41.5976    3.8067   -9.5738 O   0  0  0  0  0  0  0  0  0  0  0  0
   41.6358    0.5152   -3.9319 C   0  0  2  0  0  0  0  0  0  0  0  0
   42.3675   -0.3823   -4.7808 N   0  0  0  0  0  0  0  0  0  0  0  0
   43.3430    6.4636   -2.1386 C   0  0  2  0  0  0  0  0  0  0  0  0
   43.8798    7.7358   -1.8072 O   0  0  0  0  0  0  0  0  0  0  0  0
   42.8635   10.8300    0.1837 C   0  0  1  0  0  0  0  0  0  0  0  0
   42.6011   11.6497   -1.0107 O   0  0  0  0  0  0  0  0  0  0  0  0
   52.8550    5.5671   -6.4173 C   0  0  0  0  0  0  0  0  0  0  0  0
   40.8490    5.1061   -7.6162 C   0  0  2  0  0  0  0  0  0  0  0  0
   41.5290    6.3425   -8.0726 O   0  0  0  0  0  0  0  0  0  0  0  0
   42.1739    1.9917   -4.1316 C   0  0  2  0  0  0  0  0  0  0  0  0
   43.8083    5.3240   -1.2010 C   0  0  1  0  0  0  0  0  0  0  0  0
   41.4845   10.2165    0.7902 C   0  0  2  0  0  0  0  0  0  0  0  0
   41.7391    9.3956    1.9842 O   0  0  0  0  0  0  0  0  0  0  0  0
   52.6964    4.4604   -5.5472 C   0  0  0  0  0  0  0  0  0  0  0  0
   40.8264    5.0972   -6.0392 C   0  0  2  0  0  0  0  0  0  0  0  0
   40.1543    3.8658   -5.6560 O   0  0  0  0  0  0  0  0  0  0  0  0
   41.3455    2.9330   -3.1900 C   0  0  2  0  0  0  0  0  0  0  0  0
   41.8983    4.2158   -3.4589 O   0  0  0  0  0  0  0  0  0  0  0  0
   42.8741    5.1333   -0.0073 C   0  0  0  0  0  0  0  0  0  0  0  0
   42.7955    6.2229    0.8804 O   0  0  0  0  0  0  0  0  0  0  0  0
   40.7617    9.3299   -0.3253 C   0  0  1  0  0  0  0  0  0  0  0  0
   41.7238    8.2517   -0.7799 O   0  0  0  0  0  0  0  0  0  0  0  0
   51.3580    4.1697   -4.9828 C   0  0  0  0  0  0  0  0  0  0  0  0
   40.1134    6.3040   -5.5907 C   0  0  0  0  0  0  0  0  0  0  0  0
   40.2547    6.4394   -4.2661 O   0  0  0  0  0  0  0  0  0  0  0  0
   41.5223    2.5053   -1.6723 C   0  0  1  0  0  0  0  0  0  0  0  0
   40.7746    3.3419   -0.8523 O   0  0  0  0  0  0  0  0  0  0  0  0
   45.5928    5.2759   -5.2807 C   0  0  0  0  0  0  0  0  0  0  0  0
   39.4633    8.7641    0.3114 C   0  0  0  0  0  0  0  0  0  0  0  0
   38.9089    7.7179   -0.5113 N   0  0  0  0  0  0  0  0  0  0  0  0
   46.7584    6.1574   -5.7408 C   0  0  0  0  0  0  0  0  0  0  0  0
   47.8668    6.0842   -4.7344 N   0  0  0  0  0  0  0  0  0  0  0  0
   48.7257    4.7916   -4.7748 C   0  0  0  0  0  0  0  0  0  0  0  0
  1  2  1  1  0  0  0
  1  9  1  0  0  0  0
  1 35  1  0  0  0  0
  3  4  1  1  0  0  0
  3 11  1  0  0  0  0
  3 45  1  0  0  0  0
  5  6  1  0  0  0  0
  5 12  1  0  0  0  0
  5 37  1  1  0  0  0
  6 30  1  0  0  0  0
  7 14  1  0  0  0  0
  7 41  1  0  0  0  0
  7 23  1  1  0  0  0
  8 16  2  0  0  0  0
  8 42  1  0  0  0  0
  9 10  1  1  0  0  0
  9 18  1  0  0  0  0
 11 20  1  0  0  0  0
 12 13  1  1  0  0  0
 12 22  1  0  0  0  0
 13 47  1  0  0  0  0
 14 15  1  1  0  0  0
 14 24  1  0  0  0  0
 16 17  1  0  0  0  0
 17 26  2  0  0  0  0
 18 19  1  6  0  0  0
 18 27  1  0  0  0  0
 20 21  1  6  0  0  0
 20 29  1  0  0  0  0
 22 23  1  1  0  0  0
 22 30  1  0  0  0  0
 24 25  1  6  0  0  0
 24 31  1  0  0  0  0
 26 33  1  0  0  0  0
 27 28  1  1  0  0  0
 27 34  1  0  0  0  0
 29  2  1  6  0  0  0
 29 36  1  0  0  0  0
 30 38  1  1  0  0  0
 31 32  1  1  0  0  0
 31 40  1  0  0  0  0
 33 42  2  0  0  0  0
 34 35  1  0  0  0  0
 34 43  1  6  0  0  0
 36 37  1  1  0  0  0
 36 45  1  0  0  0  0
 38 39  1  0  0  0  0
 40 41  1  0  0  0  0
 40 48  1  1  0  0  0
 43 44  1  0  0  0  0
 45 46  1  1  0  0  0
 47 50  1  0  0  0  0
 48 49  1  0  0  0  0
 50 51  1  0  0  0  0
 51 52  1  0  0  0  0
 52  8  1  0  0  0  0
M  END
>  <CHROM.1>
-164.92832211,-56.31124447,144.99068546,65.96014079,144.59887130,122.81427856
70.76472939,179.97885060,-170.40273843,-55.87539886,-166.94022470,64.43509712
76.80038194,108.94057481,-25.69886560,43.35840663,5.32177100,-3.46026763
0.65498275,-0.27935449,-2.38002446

>  <Name>
2be0_lig

>  <RI>
0

>  <Rbt.Current_Directory>
/home/itssahil/PROJECTS/Mol_Feturizer/New_Systems/rnas/2be0

>  <Rbt.Executable>
rbdock ($Id: //depot/dev/client3/rdock/2013.1/src/exe/rbdock.cxx#4 $)

>  <Rbt.Library>
libRbt.so (2013.1, Build901 2013/11/27)

>  <Rbt.Parameter_File>
/export/apps/rDock/src/rDock_2013.1_src/data/scripts/dock_solv.prm

>  <Rbt.Receptor>
prm/pocket_docking_4.prm

>  <SCORE>
-22.4115

>  <SCORE.INTER>
-11.7706

>  <SCORE.INTER.CONST>
1

>  <SCORE.INTER.POLAR>
-1.45942

>  <SCORE.INTER.ROT>
15

>  <SCORE.INTER.SOLV>
17.7749

>  <SCORE.INTER.VDW>
-22.5073

>  <SCORE.INTER.norm>
-0.226358

>  <SCORE.INTRA>
-10.642

>  <SCORE.INTRA.DIHEDRAL>
-26.1459

>  <SCORE.INTRA.DIHEDRAL.0>
47.8724

>  <SCORE.INTRA.POLAR>
0

>  <SCORE.INTRA.POLAR.0>
0

>  <SCORE.INTRA.REPUL>
0.0774153

>  <SCORE.INTRA.REPUL.0>
0

>  <SCORE.INTRA.SOLV>
0.963681

>  <SCORE.INTRA.SOLV.lig_0>
-115.677

>  <SCORE.INTRA.VDW>
1.56199

>  <SCORE.INTRA.VDW.0>
-7.4833

>  <SCORE.INTRA.norm>
-0.204654

>  <SCORE.RESTR>
0.00114214

>  <SCORE.RESTR.CAVITY>
0.00114214

>  <SCORE.RESTR.norm>
2.19643e-05

>  <SCORE.SYSTEM>
0

>  <SCORE.SYSTEM.CONST>
0

>  <SCORE.SYSTEM.DIHEDRAL>
0

>  <SCORE.SYSTEM.SOLV>
0

>  <SCORE.SYSTEM.norm>
0

>  <SCORE.heavy>
52

>  <SCORE.norm>
-0.430991

>  <RMSD>
7.393

$$$$
2be0_lig
 OpenBabel11021811423D
libRbt.so/2013.1/901 2013/11/27
 52 56  0  0  0  0  0  0  0  0999 V2000
   44.5910    6.2677   -4.4109 C   0  0  2  0  0  0  0  0  0  0  0  0
   43.4265    6.2078   -5.2004 O   0  0  0  0  0  0  0  0  0  0  0  0
   42.6688    7.5470   -9.3239 C   0  0  2  0  0  0  0  0  0  0  0  0
   42.8383    7.6962  -10.7965 N   0  0  0  0  0  0  0  0  0  0  0  0
   40.7916    3.9203   -7.2939 C   0  0  2  0  0  0  0  0  0  0  0  0
   39.6814    4.4055   -6.5113 O   0  0  0  0  0  0  0  0  0  0  0  0
   41.0962    0.0524   -4.9806 C   0  0  1  0  0  0  0  0  0  0  0  0
   37.3289   -1.1252  -11.6931 C   0  0  0  0  0  0  0  0  0  0  0  0
   44.8169    4.9158   -3.6190 C   0  0  2  0  0  0  0  0  0  0  0  0
   44.8196    3.7886   -4.5539 N   0  0  0  0  0  0  0  0  0  0  0  0
   44.0196    7.9860   -8.5952 C   0  0  0  0  0  0  0  0  0  0  0  0
   40.8920    2.4092   -7.0311 C   0  0  2  0  0  0  0  0  0  0  0  0
   39.9237    1.8196   -8.0069 O   0  0  0  0  0  0  0  0  0  0  0  0
   40.2450   -1.2773   -4.5948 C   0  0  2  0  0  0  0  0  0  0  0  0
   39.6494   -1.0881   -3.2328 N   0  0  0  0  0  0  0  0  0  0  0  0
   37.1006   -2.4228  -12.2580 C   0  0  0  0  0  0  0  0  0  0  0  0
   37.1161   -2.5888  -13.6677 N   0  0  0  0  0  0  0  0  0  0  0  0
   43.6919    4.7574   -2.4942 C   0  0  1  0  0  0  0  0  0  0  0  0
   43.9076    3.5374   -1.8020 O   0  0  0  0  0  0  0  0  0  0  0  0
   43.8798    7.8233   -6.9754 C   0  0  2  0  0  0  0  0  0  0  0  0
   45.0881    8.2173   -6.3076 N   0  0  0  0  0  0  0  0  0  0  0  0
   40.5588    2.4090   -5.5272 C   0  0  2  0  0  0  0  0  0  0  0  0
   40.1862    1.1666   -4.9493 O   0  0  0  0  0  0  0  0  0  0  0  0
   41.2217   -2.4918   -4.6114 C   0  0  1  0  0  0  0  0  0  0  0  0
   41.7292   -2.5916   -5.9898 O   0  0  0  0  0  0  0  0  0  0  0  0
   37.3493   -1.5140  -14.5724 C   0  0  0  0  0  0  0  0  0  0  0  0
   43.7681    5.9856   -1.5413 C   0  0  2  0  0  0  0  0  0  0  0  0
   42.7417    5.8969   -0.4746 O   0  0  0  0  0  0  0  0  0  0  0  0
   43.5401    6.3188   -6.6139 C   0  0  2  0  0  0  0  0  0  0  0  0
   39.4773    3.5083   -5.4004 C   0  0  1  0  0  0  0  0  0  0  0  0
   42.4338   -2.2455   -3.5551 C   0  0  2  0  0  0  0  0  0  0  0  0
   41.9339   -2.1443   -2.1751 O   0  0  0  0  0  0  0  0  0  0  0  0
   37.5822   -0.2091  -14.0724 C   0  0  0  0  0  0  0  0  0  0  0  0
   43.5413    7.3217   -2.3479 C   0  0  2  0  0  0  0  0  0  0  0  0
   44.5703    7.3481   -3.3752 O   0  0  0  0  0  0  0  0  0  0  0  0
   42.2156    5.9357   -7.3609 C   0  0  2  0  0  0  0  0  0  0  0  0
   42.0036    4.5880   -6.9582 O   0  0  0  0  0  0  0  0  0  0  0  0
   39.6334    4.3351   -4.1252 C   0  0  0  0  0  0  0  0  0  0  0  0
   38.6649    5.3379   -3.9312 O   0  0  0  0  0  0  0  0  0  0  0  0
   43.2119   -0.9048   -3.9426 C   0  0  1  0  0  0  0  0  0  0  0  0
   42.2189    0.2389   -3.9606 O   0  0  0  0  0  0  0  0  0  0  0  0
   37.5754    0.0169  -12.6084 C   0  0  0  0  0  0  0  0  0  0  0  0
   43.6457    8.4441   -1.4017 C   0  0  0  0  0  0  0  0  0  0  0  0
   43.9914    9.5553   -2.0639 O   0  0  0  0  0  0  0  0  0  0  0  0
   42.3963    6.0757   -8.9310 C   0  0  1  0  0  0  0  0  0  0  0  0
   41.2118    5.7430   -9.5774 O   0  0  0  0  0  0  0  0  0  0  0  0
   40.0228    1.7734   -9.4849 C   0  0  0  0  0  0  0  0  0  0  0  0
   44.3453   -0.7163   -2.8979 C   0  0  0  0  0  0  0  0  0  0  0  0
   45.2249    0.3562   -3.2915 N   0  0  0  0  0  0  0  0  0  0  0  0
   38.7003    1.2055  -10.0102 C   0  0  0  0  0  0  0  0  0  0  0  0
   38.5436   -0.2094   -9.5409 N   0  0  0  0  0  0  0  0  0  0  0  0
   37.3069   -0.9671  -10.0947 C   0  0  0  0  0  0  0  0  0  0  0  0
  1  2  1  1  0  0  0
  1  9  1  0  0  0  0
  1 35  1  0  0  0  0
  3  4  1  6  0  0  0
  3 11  1  0  0  0  0
  3 45  1  0  0  0  0
  5  6  1  0  0  0  0
  5 12  1  0  0  0  0
  5 37  1  1  0  0  0
  6 30  1  0  0  0  0
  7 14  1  0  0  0  0
  7 41  1  0  0  0  0
  7 23  1  1  0  0  0
  8 16  2  0  0  0  0
  8 42  1  0  0  0  0
  9 10  1  6  0  0  0
  9 18  1  0  0  0  0
 11 20  1  0  0  0  0
 12 13  1  6  0  0  0
 12 22  1  0  0  0  0
 13 47  1  0  0  0  0
 14 15  1  1  0  0  0
 14 24  1  0  0  0  0
 16 17  1  0  0  0  0
 17 26  2  0  0  0  0
 18 19  1  1  0  0  0
 18 27  1  0  0  0  0
 20 21  1  1  0  0  0
 20 29  1  0  0  0  0
 22 23  1  6  0  0  0
 22 30  1  0  0  0  0
 24 25  1  6  0  0  0
 24 31  1  0  0  0  0
 26 33  1  0  0  0  0
 27 28  1  1  0  0  0
 27 34  1  0  0  0  0
 29  2  1  1  0  0  0
 29 36  1  0  0  0  0
 30 38  1  1  0  0  0
 31 32  1  1  0  0  0
 31 40  1  0  0  0  0
 33 42  2  0  0  0  0
 34 35  1  0  0  0  0
 34 43  1  1  0  0  0
 36 37  1  6  0  0  0
 36 45  1  0  0  0  0
 38 39  1  0  0  0  0
 40 41  1  0  0  0  0
 40 48  1  1  0  0  0
 43 44  1  0  0  0  0
 45 46  1  6  0  0  0
 47 50  1  0  0  0  0
 48 49  1  0  0  0  0
 50 51  1  0  0  0  0
 51 52  1  0  0  0  0
 52  8  1  0  0  0  0
M  END
>  <CHROM.1>
-117.49305594,-72.83844280,-165.88175745,68.45448840,-173.70280145,59.89928299
-72.79157819,64.97909985,155.51382730,171.97685650,171.12734517,-64.47142704
-174.87151033,61.98721198,130.21595458,41.54667334,2.97396110,-6.23146916
0.14012608,-1.08170303,-0.63797491

>  <Name>
2be0_lig

>  <RI>
3.37048e+07

>  <Rbt.Current_Directory>
/home/itssahil/PROJECTS/Mol_Feturizer/New_Systems/rnas/2be0

>  <Rbt.Executable>
rbdock ($Id: //depot/dev/client3/rdock/2013.1/src/exe/rbdock.cxx#4 $)

>  <Rbt.Library>
libRbt.so (2013.1, Build901 2013/11/27)

>  <Rbt.Parameter_File>
/export/apps/rDock/src/rDock_2013.1_src/data/scripts/dock_solv.prm

>  <Rbt.Receptor>
prm/pocket_docking_8.prm

>  <SCORE>
-30.4931

>  <SCORE.INTER>
-15.2345

>  <SCORE.INTER.CONST>
1

>  <SCORE.INTER.POLAR>
-2.41693

>  <SCORE.INTER.ROT>
15

>  <SCORE.INTER.SOLV>
19.6422

>  <SCORE.INTER.VDW>
-22.2473

>  <SCORE.INTER.norm>
-0.292971

>  <SCORE.INTRA>
-15.2587

>  <SCORE.INTRA.DIHEDRAL>
-33.8221

>  <SCORE.INTRA.DIHEDRAL.0>
47.8724

>  <SCORE.INTRA.POLAR>
0

>  <SCORE.INTRA.POLAR.0>
0

>  <SCORE.INTRA.REPUL>
0.000173575

>  <SCORE.INTRA.REPUL.0>
0

>  <SCORE.INTRA.SOLV>
-1.53244

>  <SCORE.INTRA.SOLV.lig_0>
-115.677

>  <SCORE.INTRA.VDW>
2.41774

>  <SCORE.INTRA.VDW.0>
-7.4833

>  <SCORE.INTRA.norm>
-0.293436

>  <SCORE.RESTR>
0

>  <SCORE.RESTR.CAVITY>
0

>  <SCORE.RESTR.norm>
0

>  <SCORE.SYSTEM>
0

>  <SCORE.SYSTEM.CONST>
0

>  <SCORE.SYSTEM.DIHEDRAL>
0

>  <SCORE.SYSTEM.SOLV>
0

>  <SCORE.SYSTEM.norm>
0

>  <SCORE.heavy>
52

>  <SCORE.norm>
-0.586407

>  <RMSD>
7.396

$$$$
2be0_lig
 OpenBabel11021811423D
libRbt.so/2013.1/901 2013/11/27
 52 56  0  0  0  0  0  0  0  0999 V2000
   44.4765    6.7027   -4.1465 C   0  0  2  0  0  0  0  0  0  0  0  0
   43.2744    6.6714   -4.8793 O   0  0  0  0  0  0  0  0  0  0  0  0
   42.4169    7.1424   -9.1704 C   0  0  2  0  0  0  0  0  0  0  0  0
   42.5222    6.9515  -10.6441 N   0  0  0  0  0  0  0  0  0  0  0  0
   40.3286    4.2846   -6.2452 C   0  0  2  0  0  0  0  0  0  0  0  0
   39.3481    5.1665   -5.6609 O   0  0  0  0  0  0  0  0  0  0  0  0
   38.2953    1.9230   -3.2887 C   0  0  1  0  0  0  0  0  0  0  0  0
   33.7754    0.8850   -7.8263 C   0  0  0  0  0  0  0  0  0  0  0  0
   45.1444    5.2691   -4.0795 C   0  0  2  0  0  0  0  0  0  0  0  0
   45.3162    4.7387   -5.4337 N   0  0  0  0  0  0  0  0  0  0  0  0
   43.8341    7.6067   -8.6009 C   0  0  0  0  0  0  0  0  0  0  0  0
   40.2488    2.9588   -5.4716 C   0  0  2  0  0  0  0  0  0  0  0  0
   39.1467    2.2182   -6.1603 O   0  0  0  0  0  0  0  0  0  0  0  0
   37.7822    1.3933   -1.8404 C   0  0  2  0  0  0  0  0  0  0  0  0
   38.8325    0.4977   -1.2569 N   0  0  0  0  0  0  0  0  0  0  0  0
   32.6121    1.7221   -7.8521 C   0  0  0  0  0  0  0  0  0  0  0  0
   31.5130    1.4250   -7.0043 N   0  0  0  0  0  0  0  0  0  0  0  0
   44.2546    4.3037   -3.1673 C   0  0  1  0  0  0  0  0  0  0  0  0
   44.8658    3.0235   -3.1265 O   0  0  0  0  0  0  0  0  0  0  0  0
   43.7647    7.8140   -6.9816 C   0  0  2  0  0  0  0  0  0  0  0  0
   45.0334    8.2340   -6.4570 N   0  0  0  0  0  0  0  0  0  0  0  0
   40.0232    3.5248   -4.0569 C   0  0  2  0  0  0  0  0  0  0  0  0
   39.5323    2.6258   -3.0733 O   0  0  0  0  0  0  0  0  0  0  0  0
   36.4485    0.6174   -2.0601 C   0  0  1  0  0  0  0  0  0  0  0  0
   35.4941    1.5909   -2.6158 O   0  0  0  0  0  0  0  0  0  0  0  0
   31.5005    0.3161   -6.1109 C   0  0  0  0  0  0  0  0  0  0  0  0
   44.1347    4.9340   -1.7493 C   0  0  2  0  0  0  0  0  0  0  0  0
   43.3136    4.0821   -0.8553 O   0  0  0  0  0  0  0  0  0  0  0  0
   43.3241    6.4610   -6.2852 C   0  0  2  0  0  0  0  0  0  0  0  0
   39.1058    4.7463   -4.3025 C   0  0  1  0  0  0  0  0  0  0  0  0
   36.6883   -0.6221   -3.0857 C   0  0  2  0  0  0  0  0  0  0  0  0
   37.6416   -1.5991   -2.5368 O   0  0  0  0  0  0  0  0  0  0  0  0
   32.6226   -0.5459   -6.0408 C   0  0  0  0  0  0  0  0  0  0  0  0
   43.4680    6.3606   -1.8368 C   0  0  2  0  0  0  0  0  0  0  0  0
   44.3127    7.1428   -2.7253 O   0  0  0  0  0  0  0  0  0  0  0  0
   41.9366    6.0449   -6.8857 C   0  0  2  0  0  0  0  0  0  0  0  0
   41.6377    4.8419   -6.1880 O   0  0  0  0  0  0  0  0  0  0  0  0
   39.4562    5.9290   -3.4010 C   0  0  0  0  0  0  0  0  0  0  0  0
   40.1059    7.0036   -4.0368 O   0  0  0  0  0  0  0  0  0  0  0  0
   37.2374   -0.0614   -4.4774 C   0  0  1  0  0  0  0  0  0  0  0  0
   38.5055    0.7237   -4.2123 O   0  0  0  0  0  0  0  0  0  0  0  0
   33.7950   -0.2793   -6.9060 C   0  0  0  0  0  0  0  0  0  0  0  0
   43.4015    6.9127   -0.4742 C   0  0  0  0  0  0  0  0  0  0  0  0
   44.6295    6.9336    0.0592 O   0  0  0  0  0  0  0  0  0  0  0  0
   42.0473    5.8226   -8.4528 C   0  0  1  0  0  0  0  0  0  0  0  0
   40.8084    5.4647   -8.9710 O   0  0  0  0  0  0  0  0  0  0  0  0
   37.7969    2.7102   -6.5238 C   0  0  0  0  0  0  0  0  0  0  0  0
   37.4572   -1.2850   -5.4081 C   0  0  0  0  0  0  0  0  0  0  0  0
   36.2221   -2.0028   -5.6027 N   0  0  0  0  0  0  0  0  0  0  0  0
   37.1546    1.6489   -7.4229 C   0  0  0  0  0  0  0  0  0  0  0  0
   36.0015    2.2549   -8.1645 N   0  0  0  0  0  0  0  0  0  0  0  0
   35.0046    1.2458   -8.7955 C   0  0  0  0  0  0  0  0  0  0  0  0
  1  2  1  1  0  0  0
  1  9  1  0  0  0  0
  1 35  1  0  0  0  0
  3  4  1  6  0  0  0
  3 11  1  0  0  0  0
  3 45  1  0  0  0  0
  5  6  1  0  0  0  0
  5 12  1  0  0  0  0
  5 37  1  1  0  0  0
  6 30  1  0  0  0  0
  7 14  1  0  0  0  0
  7 41  1  0  0  0  0
  7 23  1  1  0  0  0
  8 16  2  0  0  0  0
  8 42  1  0  0  0  0
  9 10  1  6  0  0  0
  9 18  1  0  0  0  0
 11 20  1  0  0  0  0
 12 13  1  6  0  0  0
 12 22  1  0  0  0  0
 13 47  1  0  0  0  0
 14 15  1  6  0  0  0
 14 24  1  0  0  0  0
 16 17  1  0  0  0  0
 17 26  2  0  0  0  0
 18 19  1  1  0  0  0
 18 27  1  0  0  0  0
 20 21  1  1  0  0  0
 20 29  1  0  0  0  0
 22 23  1  1  0  0  0
 22 30  1  0  0  0  0
 24 25  1  6  0  0  0
 24 31  1  0  0  0  0
 26 33  1  0  0  0  0
 27 28  1  1  0  0  0
 27 34  1  0  0  0  0
 29  2  1  1  0  0  0
 29 36  1  0  0  0  0
 30 38  1  1  0  0  0
 31 32  1  1  0  0  0
 31 40  1  0  0  0  0
 33 42  2  0  0  0  0
 34 35  1  0  0  0  0
 34 43  1  1  0  0  0
 36 37  1  1  0  0  0
 36 45  1  0  0  0  0
 38 39  1  0  0  0  0
 40 41  1  0  0  0  0
 40 48  1  6  0  0  0
 43 44  1  0  0  0  0
 45 46  1  6  0  0  0
 47 50  1  0  0  0  0
 48 49  1  0  0  0  0
 50 51  1  0  0  0  0
 51 52  1  0  0  0  0
 52  8  1  0  0  0  0
M  END
>  <CHROM.1>
-69.61016774,-63.18830313,-161.61961742,-48.33755803,170.17531825,-57.01023502
-77.24616154,-9.78233763,56.28939855,167.07636894,59.42516744,-162.22738884
-163.21321662,92.05972116,87.23409991,39.82495698,3.57283353,-4.99991713
-0.12758840,0.58595699,1.99406017

>  <Name>
2be0_lig

>  <RI>
3.37048e+07

>  <Rbt.Current_Directory>
/home/itssahil/PROJECTS/Mol_Feturizer/New_Systems/rnas/2be0

>  <Rbt.Executable>
rbdock ($Id: //depot/dev/client3/rdock/2013.1/src/exe/rbdock.cxx#4 $)

>  <Rbt.Library>
libRbt.so (2013.1, Build901 2013/11/27)

>  <Rbt.Parameter_File>
/export/apps/rDock/src/rDock_2013.1_src/data/scripts/dock_solv.prm

>  <Rbt.Receptor>
prm/pocket_docking_8.prm

>  <SCORE>
-32.2107

>  <SCORE.INTER>
-18.1341

>  <SCORE.INTER.CONST>
1

>  <SCORE.INTER.POLAR>
-1.85359

>  <SCORE.INTER.ROT>
15

>  <SCORE.INTER.SOLV>
22.6912

>  <SCORE.INTER.VDW>
-27.0745

>  <SCORE.INTER.norm>
-0.348732

>  <SCORE.INTRA>
-14.0766

>  <SCORE.INTRA.DIHEDRAL>
-34.4443

>  <SCORE.INTRA.DIHEDRAL.0>
47.8724

>  <SCORE.INTRA.POLAR>
0

>  <SCORE.INTRA.POLAR.0>
0

>  <SCORE.INTRA.REPUL>
0

>  <SCORE.INTRA.REPUL.0>
0

>  <SCORE.INTRA.SOLV>
3.33863

>  <SCORE.INTRA.SOLV.lig_0>
-115.677

>  <SCORE.INTRA.VDW>
1.47623

>  <SCORE.INTRA.VDW.0>
-7.4833

>  <SCORE.INTRA.norm>
-0.270703

>  <SCORE.RESTR>
0

>  <SCORE.RESTR.CAVITY>
0

>  <SCORE.RESTR.norm>
0

>  <SCORE.SYSTEM>
0

>  <SCORE.SYSTEM.CONST>
0

>  <SCORE.SYSTEM.DIHEDRAL>
0

>  <SCORE.SYSTEM.SOLV>
0

>  <SCORE.SYSTEM.norm>
0

>  <SCORE.heavy>
52

>  <SCORE.norm>
-0.619436

>  <RMSD>
7.405

$$$$
2be0_lig
 OpenBabel11021811423D
libRbt.so/2013.1/901 2013/11/27
 52 56  0  0  0  0  0  0  0  0999 V2000
   44.0826    2.6381   -4.5369 C   0  0  2  0  0  0  0  0  0  0  0  0
   43.2757    2.8782   -5.6657 O   0  0  0  0  0  0  0  0  0  0  0  0
   39.0734    1.9310   -6.5681 C   0  0  2  0  0  0  0  0  0  0  0  0
   37.8430    1.1233   -6.7988 N   0  0  0  0  0  0  0  0  0  0  0  0
   41.9219    3.5616   -2.8530 C   0  0  2  0  0  0  0  0  0  0  0  0
   42.5243    3.1631   -1.6046 O   0  0  0  0  0  0  0  0  0  0  0  0
   39.8961    5.6902    0.3140 C   0  0  1  0  0  0  0  0  0  0  0  0
   43.0761    7.3892   -8.0512 C   0  0  0  0  0  0  0  0  0  0  0  0
   45.4328    3.4610   -4.6120 C   0  0  2  0  0  0  0  0  0  0  0  0
   45.1370    4.8816   -4.8093 N   0  0  0  0  0  0  0  0  0  0  0  0
   40.2176    1.4368   -7.5655 C   0  0  0  0  0  0  0  0  0  0  0  0
   40.7642    4.5104   -2.5034 C   0  0  2  0  0  0  0  0  0  0  0  0
   41.4305    5.8438   -2.3791 O   0  0  0  0  0  0  0  0  0  0  0  0
   40.6042    5.1596    1.6772 C   0  0  2  0  0  0  0  0  0  0  0  0
   39.5856    4.4220    2.4920 N   0  0  0  0  0  0  0  0  0  0  0  0
   42.4009    6.9116   -9.2220 C   0  0  0  0  0  0  0  0  0  0  0  0
   42.6469    7.5285  -10.4766 N   0  0  0  0  0  0  0  0  0  0  0  0
   46.3554    2.8744   -5.7784 C   0  0  1  0  0  0  0  0  0  0  0  0
   47.5557    3.6295   -5.8339 O   0  0  0  0  0  0  0  0  0  0  0  0
   41.5918    2.2902   -7.3343 C   0  0  2  0  0  0  0  0  0  0  0  0
   42.6289    1.8566   -8.2275 N   0  0  0  0  0  0  0  0  0  0  0  0
   40.2450    3.7938   -1.2426 C   0  0  2  0  0  0  0  0  0  0  0  0
   39.3927    4.5366   -0.3833 O   0  0  0  0  0  0  0  0  0  0  0  0
   41.1429    6.4009    2.4507 C   0  0  1  0  0  0  0  0  0  0  0  0
   42.1388    7.0330    1.5698 O   0  0  0  0  0  0  0  0  0  0  0  0
   43.5455    8.6210  -10.6404 C   0  0  0  0  0  0  0  0  0  0  0  0
   46.6298    1.3709   -5.4840 C   0  0  2  0  0  0  0  0  0  0  0  0
   47.4810    0.7683   -6.5383 O   0  0  0  0  0  0  0  0  0  0  0  0
   42.0795    2.1275   -5.8359 C   0  0  2  0  0  0  0  0  0  0  0  0
   41.5386    3.2902   -0.5592 C   0  0  1  0  0  0  0  0  0  0  0  0
   39.9212    7.4216    2.7845 C   0  0  2  0  0  0  0  0  0  0  0  0
   38.9216    6.7964    3.6644 O   0  0  0  0  0  0  0  0  0  0  0  0
   44.2423    9.1354   -9.5193 C   0  0  0  0  0  0  0  0  0  0  0  0
   45.2738    0.5687   -5.4126 C   0  0  2  0  0  0  0  0  0  0  0  0
   44.4864    1.2067   -4.3696 O   0  0  0  0  0  0  0  0  0  0  0  0
   40.9191    2.6149   -4.9006 C   0  0  2  0  0  0  0  0  0  0  0  0
   41.4658    2.4380   -3.5994 O   0  0  0  0  0  0  0  0  0  0  0  0
   41.3679    1.9054    0.0632 C   0  0  0  0  0  0  0  0  0  0  0  0
   42.4873    1.4121    0.7595 O   0  0  0  0  0  0  0  0  0  0  0  0
   39.2239    7.8792    1.4217 C   0  0  1  0  0  0  0  0  0  0  0  0
   38.7584    6.6423    0.6813 O   0  0  0  0  0  0  0  0  0  0  0  0
   44.0198    8.5267   -8.1873 C   0  0  0  0  0  0  0  0  0  0  0  0
   45.5949   -0.8357   -5.1117 C   0  0  0  0  0  0  0  0  0  0  0  0
   44.4672   -1.5573   -5.0935 O   0  0  0  0  0  0  0  0  0  0  0  0
   39.6114    1.7460   -5.1295 C   0  0  1  0  0  0  0  0  0  0  0  0
   38.5901    2.1966   -4.3016 O   0  0  0  0  0  0  0  0  0  0  0  0
   42.1299    6.6222   -3.4285 C   0  0  0  0  0  0  0  0  0  0  0  0
   38.0638    8.8390    1.8020 C   0  0  0  0  0  0  0  0  0  0  0  0
   36.9689    8.1050    2.3861 N   0  0  0  0  0  0  0  0  0  0  0  0
   41.1758    6.7331   -4.6221 C   0  0  0  0  0  0  0  0  0  0  0  0
   41.8428    7.4989   -5.7245 N   0  0  0  0  0  0  0  0  0  0  0  0
   42.7796    6.6712   -6.6452 C   0  0  0  0  0  0  0  0  0  0  0  0
  1  2  1  6  0  0  0
  1  9  1  0  0  0  0
  1 35  1  0  0  0  0
  3  4  1  1  0  0  0
  3 11  1  0  0  0  0
  3 45  1  0  0  0  0
  5  6  1  0  0  0  0
  5 12  1  0  0  0  0
  5 37  1  1  0  0  0
  6 30  1  0  0  0  0
  7 14  1  0  0  0  0
  7 41  1  0  0  0  0
  7 23  1  1  0  0  0
  8 16  2  0  0  0  0
  8 42  1  0  0  0  0
  9 10  1  6  0  0  0
  9 18  1  0  0  0  0
 11 20  1  0  0  0  0
 12 13  1  1  0  0  0
 12 22  1  0  0  0  0
 13 47  1  0  0  0  0
 14 15  1  1  0  0  0
 14 24  1  0  0  0  0
 16 17  1  0  0  0  0
 17 26  2  0  0  0  0
 18 19  1  1  0  0  0
 18 27  1  0  0  0  0
 20 21  1  6  0  0  0
 20 29  1  0  0  0  0
 22 23  1  1  0  0  0
 22 30  1  0  0  0  0
 24 25  1  6  0  0  0
 24 31  1  0  0  0  0
 26 33  1  0  0  0  0
 27 28  1  6  0  0  0
 27 34  1  0  0  0  0
 29  2  1  6  0  0  0
 29 36  1  0  0  0  0
 30 38  1  6  0  0  0
 31 32  1  1  0  0  0
 31 40  1  0  0  0  0
 33 42  2  0  0  0  0
 34 35  1  0  0  0  0
 34 43  1  1  0  0  0
 36 37  1  1  0  0  0
 36 45  1  0  0  0  0
 38 39  1  0  0  0  0
 40 41  1  0  0  0  0
 40 48  1  1  0  0  0
 43 44  1  0  0  0  0
 45 46  1  1  0  0  0
 47 50  1  0  0  0  0
 48 49  1  0  0  0  0
 50 51  1  0  0  0  0
 51 52  1  0  0  0  0
 52  8  1  0  0  0  0
M  END
>  <CHROM.1>
174.02641428,-175.92680279,-84.84346299,63.78551577,52.07435544,-65.24170564
-164.37240352,66.71488753,-177.68744409,104.35207546,-72.87691212,-179.24801170
83.50602440,161.09021893,-103.60981191,42.01498204,4.25244453,-3.57244652
-0.40505630,-1.07530950,2.39019999

>  <Name>
2be0_lig

>  <RI>
2.75444e+07

>  <Rbt.Current_Directory>
/home/itssahil/PROJECTS/Mol_Feturizer/New_Systems/rnas/2be0

>  <Rbt.Executable>
rbdock ($Id: //depot/dev/client3/rdock/2013.1/src/exe/rbdock.cxx#4 $)

>  <Rbt.Library>
libRbt.so (2013.1, Build901 2013/11/27)

>  <Rbt.Parameter_File>
/export/apps/rDock/src/rDock_2013.1_src/data/scripts/dock_solv.prm

>  <Rbt.Receptor>
prm/pocket_docking_5.prm

>  <SCORE>
-21.8677

>  <SCORE.INTER>
-6.28367

>  <SCORE.INTER.CONST>
1

>  <SCORE.INTER.POLAR>
0

>  <SCORE.INTER.ROT>
15

>  <SCORE.INTER.SOLV>
19.3532

>  <SCORE.INTER.VDW>
-24.2402

>  <SCORE.INTER.norm>
-0.12084

>  <SCORE.INTRA>
-15.584

>  <SCORE.INTRA.DIHEDRAL>
-34.6435

>  <SCORE.INTRA.DIHEDRAL.0>
47.8724

>  <SCORE.INTRA.POLAR>
0

>  <SCORE.INTRA.POLAR.0>
0

>  <SCORE.INTRA.REPUL>
0

>  <SCORE.INTRA.REPUL.0>
0

>  <SCORE.INTRA.SOLV>
0.178201

>  <SCORE.INTRA.SOLV.lig_0>
-115.677

>  <SCORE.INTRA.VDW>
1.64861

>  <SCORE.INTRA.VDW.0>
-7.4833

>  <SCORE.INTRA.norm>
-0.299693

>  <SCORE.RESTR>
0

>  <SCORE.RESTR.CAVITY>
0

>  <SCORE.RESTR.norm>
0

>  <SCORE.SYSTEM>
0

>  <SCORE.SYSTEM.CONST>
0

>  <SCORE.SYSTEM.DIHEDRAL>
0

>  <SCORE.SYSTEM.SOLV>
0

>  <SCORE.SYSTEM.norm>
0

>  <SCORE.heavy>
52

>  <SCORE.norm>
-0.420533

>  <RMSD>
7.422

$$$$
2be0_lig
 OpenBabel11021811423D
libRbt.so/2013.1/901 2013/11/27
 52 56  0  0  0  0  0  0  0  0999 V2000
   41.2314    3.4359   -7.6302 C   0  0  2  0  0  0  0  0  0  0  0  0
   42.5763    3.3583   -7.2202 O   0  0  0  0  0  0  0  0  0  0  0  0
   43.2850   -0.9423   -7.8307 C   0  0  2  0  0  0  0  0  0  0  0  0
   44.0228   -2.2275   -7.9846 N   0  0  0  0  0  0  0  0  0  0  0  0
   44.2717    2.1141   -4.6797 C   0  0  2  0  0  0  0  0  0  0  0  0
   44.5366    1.9128   -3.2763 O   0  0  0  0  0  0  0  0  0  0  0  0
   43.4379    6.1769   -2.2598 C   0  0  1  0  0  0  0  0  0  0  0  0
   50.9703    4.4412   -4.9596 C   0  0  0  0  0  0  0  0  0  0  0  0
   40.6636    4.9036   -7.4589 C   0  0  2  0  0  0  0  0  0  0  0  0
   41.5289    5.8545   -8.1600 N   0  0  0  0  0  0  0  0  0  0  0  0
   43.8180    0.0996   -8.9163 C   0  0  0  0  0  0  0  0  0  0  0  0
   44.4597    3.6145   -4.9553 C   0  0  2  0  0  0  0  0  0  0  0  0
   45.9302    3.7440   -5.1965 O   0  0  0  0  0  0  0  0  0  0  0  0
   41.8785    6.2926   -2.7028 C   0  0  2  0  0  0  0  0  0  0  0  0
   41.7980    7.0770   -3.9771 N   0  0  0  0  0  0  0  0  0  0  0  0
   52.2547    4.1016   -5.4980 C   0  0  0  0  0  0  0  0  0  0  0  0
   52.8414    4.9280   -6.4919 N   0  0  0  0  0  0  0  0  0  0  0  0
   40.5303    5.2501   -5.9039 C   0  0  1  0  0  0  0  0  0  0  0  0
   40.0276    6.5708   -5.7724 O   0  0  0  0  0  0  0  0  0  0  0  0
   43.0422    1.5303   -8.7716 C   0  0  2  0  0  0  0  0  0  0  0  0
   43.5113    2.4762   -9.7446 N   0  0  0  0  0  0  0  0  0  0  0  0
   43.8450    4.1713   -3.6573 C   0  0  2  0  0  0  0  0  0  0  0  0
   44.1395    5.5217   -3.3317 O   0  0  0  0  0  0  0  0  0  0  0  0
   41.1077    7.0133   -1.5559 C   0  0  1  0  0  0  0  0  0  0  0  0
   41.2394    6.1527   -0.3687 O   0  0  0  0  0  0  0  0  0  0  0  0
   52.2104    6.1006   -6.9967 C   0  0  0  0  0  0  0  0  0  0  0  0
   39.5881    4.2029   -5.2422 C   0  0  2  0  0  0  0  0  0  0  0  0
   39.4281    4.4710   -3.7925 O   0  0  0  0  0  0  0  0  0  0  0  0
   43.2601    2.1147   -7.3154 C   0  0  2  0  0  0  0  0  0  0  0  0
   44.2980    3.1547   -2.5824 C   0  0  1  0  0  0  0  0  0  0  0  0
   41.7517    8.4833   -1.2908 C   0  0  2  0  0  0  0  0  0  0  0  0
   41.6239    9.3490   -2.4735 O   0  0  0  0  0  0  0  0  0  0  0  0
   50.9405    6.4871   -6.5017 C   0  0  0  0  0  0  0  0  0  0  0  0
   40.1699    2.7483   -5.4237 C   0  0  2  0  0  0  0  0  0  0  0  0
   40.3065    2.5483   -6.8576 O   0  0  0  0  0  0  0  0  0  0  0  0
   42.7318    1.0519   -6.2906 C   0  0  2  0  0  0  0  0  0  0  0  0
   42.9630    1.6801   -5.0355 O   0  0  0  0  0  0  0  0  0  0  0  0
   43.2120    2.8829   -1.5427 C   0  0  0  0  0  0  0  0  0  0  0  0
   42.9570    3.9356   -0.6438 O   0  0  0  0  0  0  0  0  0  0  0  0
   43.2945    8.3258   -0.9063 C   0  0  1  0  0  0  0  0  0  0  0  0
   43.9945    7.5806   -2.0240 O   0  0  0  0  0  0  0  0  0  0  0  0
   50.2853    5.6575   -5.4639 C   0  0  0  0  0  0  0  0  0  0  0  0
   39.2292    1.8042   -4.7993 C   0  0  0  0  0  0  0  0  0  0  0  0
   38.0286    1.9207   -5.3803 O   0  0  0  0  0  0  0  0  0  0  0  0
   43.5266   -0.3134   -6.4381 C   0  0  1  0  0  0  0  0  0  0  0  0
   43.0402   -1.2472   -5.5310 O   0  0  0  0  0  0  0  0  0  0  0  0
   47.0458    3.3030   -4.3262 C   0  0  0  0  0  0  0  0  0  0  0  0
   43.8563    9.7553   -0.6768 C   0  0  0  0  0  0  0  0  0  0  0  0
   44.0011   10.4510   -1.9313 N   0  0  0  0  0  0  0  0  0  0  0  0
   48.2284    2.9673   -5.2405 C   0  0  0  0  0  0  0  0  0  0  0  0
   49.3584    2.4278   -4.4167 N   0  0  0  0  0  0  0  0  0  0  0  0
   50.3312    3.4887   -3.8350 C   0  0  0  0  0  0  0  0  0  0  0  0
  1  2  1  1  0  0  0
  1  9  1  0  0  0  0
  1 35  1  0  0  0  0
  3  4  1  1  0  0  0
  3 11  1  0  0  0  0
  3 45  1  0  0  0  0
  5  6  1  0  0  0  0
  5 12  1  0  0  0  0
  5 37  1  1  0  0  0
  6 30  1  0  0  0  0
  7 14  1  0  0  0  0
  7 41  1  0  0  0  0
  7 23  1  6  0  0  0
  8 16  2  0  0  0  0
  8 42  1  0  0  0  0
  9 10  1  6  0  0  0
  9 18  1  0  0  0  0
 11 20  1  0  0  0  0
 12 13  1  1  0  0  0
 12 22  1  0  0  0  0
 13 47  1  0  0  0  0
 14 15  1  6  0  0  0
 14 24  1  0  0  0  0
 16 17  1  0  0  0  0
 17 26  2  0  0  0  0
 18 19  1  6  0  0  0
 18 27  1  0  0  0  0
 20 21  1  6  0  0  0
 20 29  1  0  0  0  0
 22 23  1  1  0  0  0
 22 30  1  0  0  0  0
 24 25  1  1  0  0  0
 24 31  1  0  0  0  0
 26 33  1  0  0  0  0
 27 28  1  1  0  0  0
 27 34  1  0  0  0  0
 29  2  1  6  0  0  0
 29 36  1  0  0  0  0
 30 38  1  1  0  0  0
 31 32  1  6  0  0  0
 31 40  1  0  0  0  0
 33 42  2  0  0  0  0
 34 35  1  0  0  0  0
 34 43  1  6  0  0  0
 36 37  1  1  0  0  0
 36 45  1  0  0  0  0
 38 39  1  0  0  0  0
 40 41  1  0  0  0  0
 40 48  1  6  0  0  0
 43 44  1  0  0  0  0
 45 46  1  1  0  0  0
 47 50  1  0  0  0  0
 48 49  1  0  0  0  0
 50 51  1  0  0  0  0
 51 52  1  0  0  0  0
 52  8  1  0  0  0  0
M  END
>  <CHROM.1>
-179.37039822,-142.95415531,-65.42866020,-54.01403167,150.54092381,170.05218010
49.83825693,172.24981023,58.89976549,-56.45618037,-72.87542533,-176.28056548
-87.73825509,-55.67090133,-95.04114057,43.88581506,4.09167073,-4.79383513
3.03721783,0.07186202,0.64528600

>  <Name>
2be0_lig

>  <RI>
0

>  <Rbt.Current_Directory>
/home/itssahil/PROJECTS/Mol_Feturizer/New_Systems/rnas/2be0

>  <Rbt.Executable>
rbdock ($Id: //depot/dev/client3/rdock/2013.1/src/exe/rbdock.cxx#4 $)

>  <Rbt.Library>
libRbt.so (2013.1, Build901 2013/11/27)

>  <Rbt.Parameter_File>
/export/apps/rDock/src/rDock_2013.1_src/data/scripts/dock_solv.prm

>  <Rbt.Receptor>
prm/pocket_docking_7.prm

>  <SCORE>
-24.4315

>  <SCORE.INTER>
-10.6807

>  <SCORE.INTER.CONST>
1

>  <SCORE.INTER.POLAR>
-1.94518

>  <SCORE.INTER.ROT>
15

>  <SCORE.INTER.SOLV>
16.8382

>  <SCORE.INTER.VDW>
-19.8493

>  <SCORE.INTER.norm>
-0.205398

>  <SCORE.INTRA>
-13.7508

>  <SCORE.INTRA.DIHEDRAL>
-35.5522

>  <SCORE.INTRA.DIHEDRAL.0>
47.8724

>  <SCORE.INTRA.POLAR>
0

>  <SCORE.INTRA.POLAR.0>
0

>  <SCORE.INTRA.REPUL>
0

>  <SCORE.INTRA.REPUL.0>
0

>  <SCORE.INTRA.SOLV>
3.02314

>  <SCORE.INTRA.SOLV.lig_0>
-115.677

>  <SCORE.INTRA.VDW>
2.51371

>  <SCORE.INTRA.VDW.0>
-7.4833

>  <SCORE.INTRA.norm>
-0.264439

>  <SCORE.RESTR>
0

>  <SCORE.RESTR.CAVITY>
0

>  <SCORE.RESTR.norm>
0

>  <SCORE.SYSTEM>
0

>  <SCORE.SYSTEM.CONST>
0

>  <SCORE.SYSTEM.DIHEDRAL>
0

>  <SCORE.SYSTEM.SOLV>
0

>  <SCORE.SYSTEM.norm>
0

>  <SCORE.heavy>
52

>  <SCORE.norm>
-0.469837

>  <RMSD>
7.432

$$$$
2be0_lig
 OpenBabel11021811423D
libRbt.so/2013.1/901 2013/11/27
 52 56  0  0  0  0  0  0  0  0999 V2000
   42.0102    3.3164   -5.4066 C   0  0  2  0  0  0  0  0  0  0  0  0
   42.8822    2.2181   -5.2790 O   0  0  0  0  0  0  0  0  0  0  0  0
   47.2214    2.1469   -6.0118 C   0  0  2  0  0  0  0  0  0  0  0  0
   48.5107    2.1038   -6.7571 N   0  0  0  0  0  0  0  0  0  0  0  0
   44.7683    5.8841   -5.7932 C   0  0  2  0  0  0  0  0  0  0  0  0
   45.3660    6.1132   -4.5007 O   0  0  0  0  0  0  0  0  0  0  0  0
   41.8913    8.2390   -2.7970 C   0  0  1  0  0  0  0  0  0  0  0  0
   44.8878   10.4258  -10.3686 C   0  0  0  0  0  0  0  0  0  0  0  0
   40.5759    2.9800   -4.8276 C   0  0  2  0  0  0  0  0  0  0  0  0
   40.6975    2.5064   -3.4472 N   0  0  0  0  0  0  0  0  0  0  0  0
   46.3387    0.8813   -6.4209 C   0  0  0  0  0  0  0  0  0  0  0  0
   43.6744    6.9492   -5.9705 C   0  0  2  0  0  0  0  0  0  0  0  0
   44.4201    8.1304   -6.5054 O   0  0  0  0  0  0  0  0  0  0  0  0
   41.0365    6.9081   -2.4240 C   0  0  2  0  0  0  0  0  0  0  0  0
   39.8861    6.7932   -3.3775 N   0  0  0  0  0  0  0  0  0  0  0  0
   45.6667   10.7225  -11.5349 C   0  0  0  0  0  0  0  0  0  0  0  0
   46.7554   11.6287  -11.4417 N   0  0  0  0  0  0  0  0  0  0  0  0
   39.8553    1.9060   -5.7673 C   0  0  1  0  0  0  0  0  0  0  0  0
   38.5760    1.6129   -5.2274 O   0  0  0  0  0  0  0  0  0  0  0  0
   44.9067    0.8987   -5.6341 C   0  0  2  0  0  0  0  0  0  0  0  0
   44.1037   -0.2364   -5.9918 N   0  0  0  0  0  0  0  0  0  0  0  0
   43.1340    6.9741   -4.5283 C   0  0  2  0  0  0  0  0  0  0  0  0
   42.3408    8.0917   -4.1560 O   0  0  0  0  0  0  0  0  0  0  0  0
   40.5310    7.0597   -0.9575 C   0  0  1  0  0  0  0  0  0  0  0  0
   41.7352    7.1466   -0.1152 O   0  0  0  0  0  0  0  0  0  0  0  0
   47.1241   12.2753  -10.2276 C   0  0  0  0  0  0  0  0  0  0  0  0
   39.7566    2.4932   -7.2053 C   0  0  2  0  0  0  0  0  0  0  0  0
   39.0979    1.5367   -8.1274 O   0  0  0  0  0  0  0  0  0  0  0  0
   44.1225    2.2322   -5.9752 C   0  0  2  0  0  0  0  0  0  0  0  0
   44.4064    6.7942   -3.6665 C   0  0  1  0  0  0  0  0  0  0  0  0
   39.6189    8.3995   -0.8192 C   0  0  2  0  0  0  0  0  0  0  0  0
   38.4134    8.3199   -1.6588 O   0  0  0  0  0  0  0  0  0  0  0  0
   46.3918   12.0204   -9.0420 C   0  0  0  0  0  0  0  0  0  0  0  0
   41.1943    2.8221   -7.7643 C   0  0  2  0  0  0  0  0  0  0  0  0
   41.7864    3.7560   -6.8198 O   0  0  0  0  0  0  0  0  0  0  0  0
   45.0344    3.4404   -5.5655 C   0  0  2  0  0  0  0  0  0  0  0  0
   44.2349    4.5682   -5.9003 O   0  0  0  0  0  0  0  0  0  0  0  0
   44.1642    5.9046   -2.4482 C   0  0  0  0  0  0  0  0  0  0  0  0
   44.0751    4.5252   -2.7137 O   0  0  0  0  0  0  0  0  0  0  0  0
   40.4824    9.6759   -1.2412 C   0  0  1  0  0  0  0  0  0  0  0  0
   40.9918    9.4661   -2.6523 O   0  0  0  0  0  0  0  0  0  0  0  0
   45.2458   11.0828   -9.0868 C   0  0  0  0  0  0  0  0  0  0  0  0
   41.0357    3.3916   -9.1121 C   0  0  0  0  0  0  0  0  0  0  0  0
   42.1480    4.0563   -9.4493 O   0  0  0  0  0  0  0  0  0  0  0  0
   46.4018    3.4092   -6.3698 C   0  0  1  0  0  0  0  0  0  0  0  0
   47.2022    4.4794   -5.9883 O   0  0  0  0  0  0  0  0  0  0  0  0
   45.3374    8.1877   -7.6680 C   0  0  0  0  0  0  0  0  0  0  0  0
   39.5606   10.9177   -1.1006 C   0  0  0  0  0  0  0  0  0  0  0  0
   39.0841   11.0450    0.2542 N   0  0  0  0  0  0  0  0  0  0  0  0
   44.5801    7.6168   -8.8713 C   0  0  0  0  0  0  0  0  0  0  0  0
   43.4496    8.5334   -9.2298 N   0  0  0  0  0  0  0  0  0  0  0  0
   43.6627    9.3956  -10.5032 C   0  0  0  0  0  0  0  0  0  0  0  0
  1  2  1  6  0  0  0
  1  9  1  0  0  0  0
  1 35  1  0  0  0  0
  3  4  1  6  0  0  0
  3 11  1  0  0  0  0
  3 45  1  0  0  0  0
  5  6  1  0  0  0  0
  5 12  1  0  0  0  0
  5 37  1  1  0  0  0
  6 30  1  0  0  0  0
  7 14  1  0  0  0  0
  7 41  1  0  0  0  0
  7 23  1  6  0  0  0
  8 16  2  0  0  0  0
  8 42  1  0  0  0  0
  9 10  1  1  0  0  0
  9 18  1  0  0  0  0
 11 20  1  0  0  0  0
 12 13  1  1  0  0  0
 12 22  1  0  0  0  0
 13 47  1  0  0  0  0
 14 15  1  6  0  0  0
 14 24  1  0  0  0  0
 16 17  1  0  0  0  0
 17 26  2  0  0  0  0
 18 19  1  1  0  0  0
 18 27  1  0  0  0  0
 20 21  1  6  0  0  0
 20 29  1  0  0  0  0
 22 23  1  1  0  0  0
 22 30  1  0  0  0  0
 24 25  1  1  0  0  0
 24 31  1  0  0  0  0
 26 33  1  0  0  0  0
 27 28  1  6  0  0  0
 27 34  1  0  0  0  0
 29  2  1  1  0  0  0
 29 36  1  0  0  0  0
 30 38  1  1  0  0  0
 31 32  1  6  0  0  0
 31 40  1  0  0  0  0
 33 42  2  0  0  0  0
 34 35  1  0  0  0  0
 34 43  1  6  0  0  0
 36 37  1  6  0  0  0
 36 45  1  0  0  0  0
 38 39  1  0  0  0  0
 40 41  1  0  0  0  0
 40 48  1  6  0  0  0
 43 44  1  0  0  0  0
 45 46  1  1  0  0  0
 47 50  1  0  0  0  0
 48 49  1  0  0  0  0
 50 51  1  0  0  0  0
 51 52  1  0  0  0  0
 52  8  1  0  0  0  0
M  END
>  <CHROM.1>
167.56047024,-51.06324753,-57.79622510,52.17775711,53.77292774,-174.97248485
178.98633924,-40.64217632,160.86774905,-174.03417918,59.07440846,66.86364175
105.37962900,-63.30684031,145.94119303,43.04675496,5.95514168,-5.61937486
-2.70003270,0.91356095,0.06742067

>  <Name>
2be0_lig

>  <RI>
0

>  <Rbt.Current_Directory>
/home/itssahil/PROJECTS/Mol_Feturizer/New_Systems/rnas/2be0

>  <Rbt.Executable>
rbdock ($Id: //depot/dev/client3/rdock/2013.1/src/exe/rbdock.cxx#4 $)

>  <Rbt.Library>
libRbt.so (2013.1, Build901 2013/11/27)

>  <Rbt.Parameter_File>
/export/apps/rDock/src/rDock_2013.1_src/data/scripts/dock_solv.prm

>  <Rbt.Receptor>
prm/pocket_docking_4.prm

>  <SCORE>
-28.7487

>  <SCORE.INTER>
-10.2798

>  <SCORE.INTER.CONST>
1

>  <SCORE.INTER.POLAR>
-0.854814

>  <SCORE.INTER.ROT>
15

>  <SCORE.INTER.SOLV>
13.0026

>  <SCORE.INTER.VDW>
-21.938

>  <SCORE.INTER.norm>
-0.197689

>  <SCORE.INTRA>
-18.4902

>  <SCORE.INTRA.DIHEDRAL>
-41.0694

>  <SCORE.INTRA.DIHEDRAL.0>
47.8724

>  <SCORE.INTRA.POLAR>
0

>  <SCORE.INTRA.POLAR.0>
0

>  <SCORE.INTRA.REPUL>
0

>  <SCORE.INTRA.REPUL.0>
0

>  <SCORE.INTRA.SOLV>
-1.21196

>  <SCORE.INTRA.SOLV.lig_0>
-115.677

>  <SCORE.INTRA.VDW>
2.65049

>  <SCORE.INTRA.VDW.0>
-7.4833

>  <SCORE.INTRA.norm>
-0.35558

>  <SCORE.RESTR>
0.0213305

>  <SCORE.RESTR.CAVITY>
0.0213305

>  <SCORE.RESTR.norm>
0.000410202

>  <SCORE.SYSTEM>
0

>  <SCORE.SYSTEM.CONST>
0

>  <SCORE.SYSTEM.DIHEDRAL>
0

>  <SCORE.SYSTEM.SOLV>
0

>  <SCORE.SYSTEM.norm>
0

>  <SCORE.heavy>
52

>  <SCORE.norm>
-0.552859

>  <RMSD>
7.472

$$$$
2be0_lig
 OpenBabel11021811423D
libRbt.so/2013.1/901 2013/11/27
 52 56  0  0  0  0  0  0  0  0999 V2000
   44.6700    5.7587   -3.6637 C   0  0  2  0  0  0  0  0  0  0  0  0
   44.7482    6.8483   -2.7751 O   0  0  0  0  0  0  0  0  0  0  0  0
   42.8028    7.9268    1.0226 C   0  0  2  0  0  0  0  0  0  0  0  0
   41.7220    8.1479    2.0239 N   0  0  0  0  0  0  0  0  0  0  0  0
   42.9483    4.0672   -0.9640 C   0  0  2  0  0  0  0  0  0  0  0  0
   43.1963    2.7412   -0.4534 O   0  0  0  0  0  0  0  0  0  0  0  0
   42.9120    2.6805   -5.2796 C   0  0  1  0  0  0  0  0  0  0  0  0
   38.6337    1.9080    0.9967 C   0  0  0  0  0  0  0  0  0  0  0  0
   45.8056    5.8335   -4.7639 C   0  0  2  0  0  0  0  0  0  0  0  0
   47.1147    5.9491   -4.1178 N   0  0  0  0  0  0  0  0  0  0  0  0
   42.4817    8.7777   -0.2894 C   0  0  0  0  0  0  0  0  0  0  0  0
   42.4405    3.8992   -2.4049 C   0  0  2  0  0  0  0  0  0  0  0  0
   40.9720    3.6716   -2.2337 O   0  0  0  0  0  0  0  0  0  0  0  0
   42.1981    1.6613   -6.3251 C   0  0  2  0  0  0  0  0  0  0  0  0
   43.0035    0.3993   -6.3916 N   0  0  0  0  0  0  0  0  0  0  0  0
   38.2415    2.6686    2.1467 C   0  0  0  0  0  0  0  0  0  0  0  0
   39.0194    2.6026    3.3322 N   0  0  0  0  0  0  0  0  0  0  0  0
   45.5163    7.0562   -5.7525 C   0  0  1  0  0  0  0  0  0  0  0  0
   46.5482    7.1104   -6.7252 O   0  0  0  0  0  0  0  0  0  0  0  0
   43.6389    8.5513   -1.4206 C   0  0  2  0  0  0  0  0  0  0  0  0
   43.3628    9.3134   -2.6057 N   0  0  0  0  0  0  0  0  0  0  0  0
   43.3498    2.7349   -2.8410 C   0  0  2  0  0  0  0  0  0  0  0  0
   42.9650    2.0166   -4.0040 O   0  0  0  0  0  0  0  0  0  0  0  0
   42.1459    2.3623   -7.7161 C   0  0  1  0  0  0  0  0  0  0  0  0
   41.3231    3.5698   -7.5366 O   0  0  0  0  0  0  0  0  0  0  0  0
   40.1928    1.8037    3.4461 C   0  0  0  0  0  0  0  0  0  0  0  0
   44.1177    6.8473   -6.4025 C   0  0  2  0  0  0  0  0  0  0  0  0
   43.7904    7.9567   -7.3306 O   0  0  0  0  0  0  0  0  0  0  0  0
   43.7363    7.0137   -1.7892 C   0  0  2  0  0  0  0  0  0  0  0  0
   43.4463    1.8605   -1.5681 C   0  0  1  0  0  0  0  0  0  0  0  0
   43.6501    2.7431   -8.2041 C   0  0  2  0  0  0  0  0  0  0  0  0
   44.4785    1.5409   -8.3852 O   0  0  0  0  0  0  0  0  0  0  0  0
   40.6301    1.0312    2.3421 C   0  0  0  0  0  0  0  0  0  0  0  0
   43.0007    6.7749   -5.2913 C   0  0  2  0  0  0  0  0  0  0  0  0
   43.3785    5.6769   -4.4158 O   0  0  0  0  0  0  0  0  0  0  0  0
   44.0411    6.2247   -0.4688 C   0  0  2  0  0  0  0  0  0  0  0  0
   44.1187    4.8767   -0.9163 O   0  0  0  0  0  0  0  0  0  0  0  0
   44.8428    1.2740   -1.3684 C   0  0  0  0  0  0  0  0  0  0  0  0
   45.2751    0.3845   -2.3699 O   0  0  0  0  0  0  0  0  0  0  0  0
   44.3309    3.7052   -7.1253 C   0  0  1  0  0  0  0  0  0  0  0  0
   44.3183    3.0055   -5.7818 O   0  0  0  0  0  0  0  0  0  0  0  0
   39.8523    1.0650    1.0818 C   0  0  0  0  0  0  0  0  0  0  0  0
   41.7093    6.5559   -5.9624 C   0  0  0  0  0  0  0  0  0  0  0  0
   40.7181    6.6640   -5.0687 O   0  0  0  0  0  0  0  0  0  0  0  0
   42.8840    6.4423    0.5947 C   0  0  1  0  0  0  0  0  0  0  0  0
   43.1737    5.7457    1.7619 O   0  0  0  0  0  0  0  0  0  0  0  0
   40.0097    4.4549   -1.4234 C   0  0  0  0  0  0  0  0  0  0  0  0
   45.7620    4.0246   -7.6367 C   0  0  0  0  0  0  0  0  0  0  0  0
   46.5682    2.8296   -7.6678 N   0  0  0  0  0  0  0  0  0  0  0  0
   38.6056    3.9561   -1.7800 C   0  0  0  0  0  0  0  0  0  0  0  0
   38.5364    2.4728   -1.5759 N   0  0  0  0  0  0  0  0  0  0  0  0
   37.7355    2.0031   -0.3317 C   0  0  0  0  0  0  0  0  0  0  0  0
  1  2  1  1  0  0  0
  1  9  1  0  0  0  0
  1 35  1  0  0  0  0
  3  4  1  1  0  0  0
  3 11  1  0  0  0  0
  3 45  1  0  0  0  0
  5  6  1  0  0  0  0
  5 12  1  0  0  0  0
  5 37  1  6  0  0  0
  6 30  1  0  0  0  0
  7 14  1  0  0  0  0
  7 41  1  0  0  0  0
  7 23  1  1  0  0  0
  8 16  2  0  0  0  0
  8 42  1  0  0  0  0
  9 10  1  1  0  0  0
  9 18  1  0  0  0  0
 11 20  1  0  0  0  0
 12 13  1  1  0  0  0
 12 22  1  0  0  0  0
 13 47  1  0  0  0  0
 14 15  1  6  0  0  0
 14 24  1  0  0  0  0
 16 17  1  0  0  0  0
 17 26  2  0  0  0  0
 18 19  1  6  0  0  0
 18 27  1  0  0  0  0
 20 21  1  6  0  0  0
 20 29  1  0  0  0  0
 22 23  1  6  0  0  0
 22 30  1  0  0  0  0
 24 25  1  1  0  0  0
 24 31  1  0  0  0  0
 26 33  1  0  0  0  0
 27 28  1  6  0  0  0
 27 34  1  0  0  0  0
 29  2  1  6  0  0  0
 29 36  1  0  0  0  0
 30 38  1  1  0  0  0
 31 32  1  1  0  0  0
 31 40  1  0  0  0  0
 33 42  2  0  0  0  0
 34 35  1  0  0  0  0
 34 43  1  6  0  0  0
 36 37  1  6  0  0  0
 36 45  1  0  0  0  0
 38 39  1  0  0  0  0
 40 41  1  0  0  0  0
 40 48  1  6  0  0  0
 43 44  1  0  0  0  0
 45 46  1  1  0  0  0
 47 50  1  0  0  0  0
 48 49  1  0  0  0  0
 50 51  1  0  0  0  0
 51 52  1  0  0  0  0
 52  8  1  0  0  0  0
M  END
>  <CHROM.1>
174.49503534,-136.58921455,-170.32127084,49.01222752,170.40940441,63.15299098
-153.29321421,-179.69155119,-171.94711405,-89.03533744,-64.94279655,54.96663832
106.45804000,-88.32822990,122.65971873,42.81700784,4.37720813,-2.99062961
-0.55237173,1.01451222,0.76278653

>  <Name>
2be0_lig

>  <RI>
0

>  <Rbt.Current_Directory>
/home/itssahil/PROJECTS/Mol_Feturizer/New_Systems/rnas/2be0

>  <Rbt.Executable>
rbdock ($Id: //depot/dev/client3/rdock/2013.1/src/exe/rbdock.cxx#4 $)

>  <Rbt.Library>
libRbt.so (2013.1, Build901 2013/11/27)

>  <Rbt.Parameter_File>
/export/apps/rDock/src/rDock_2013.1_src/data/scripts/dock_solv.prm

>  <Rbt.Receptor>
prm/pocket_docking_7.prm

>  <SCORE>
-29.302

>  <SCORE.INTER>
-12.0833

>  <SCORE.INTER.CONST>
1

>  <SCORE.INTER.POLAR>
-1.84669

>  <SCORE.INTER.ROT>
15

>  <SCORE.INTER.SOLV>
18.7104

>  <SCORE.INTER.VDW>
-21.7367

>  <SCORE.INTER.norm>
-0.232371

>  <SCORE.INTRA>
-17.2187

>  <SCORE.INTRA.DIHEDRAL>
-30.7322

>  <SCORE.INTRA.DIHEDRAL.0>
47.8724

>  <SCORE.INTRA.POLAR>
0

>  <SCORE.INTRA.POLAR.0>
0

>  <SCORE.INTRA.REPUL>
0

>  <SCORE.INTRA.REPUL.0>
0

>  <SCORE.INTRA.SOLV>
0.525936

>  <SCORE.INTRA.SOLV.lig_0>
-115.677

>  <SCORE.INTRA.VDW>
-2.11562

>  <SCORE.INTRA.VDW.0>
-7.4833

>  <SCORE.INTRA.norm>
-0.33113

>  <SCORE.RESTR>
0

>  <SCORE.RESTR.CAVITY>
0

>  <SCORE.RESTR.norm>
0

>  <SCORE.SYSTEM>
0

>  <SCORE.SYSTEM.CONST>
0

>  <SCORE.SYSTEM.DIHEDRAL>
0

>  <SCORE.SYSTEM.SOLV>
0

>  <SCORE.SYSTEM.norm>
0

>  <SCORE.heavy>
52

>  <SCORE.norm>
-0.563501

>  <RMSD>
7.512

$$$$
2be0_lig
 OpenBabel11021811423D
libRbt.so/2013.1/901 2013/11/27
 52 56  0  0  0  0  0  0  0  0999 V2000
   40.7325    2.5483   -5.2267 C   0  0  2  0  0  0  0  0  0  0  0  0
   41.7064    3.0399   -6.1171 O   0  0  0  0  0  0  0  0  0  0  0  0
   44.2877    6.5745   -6.5800 C   0  0  2  0  0  0  0  0  0  0  0  0
   44.8179    7.9520   -6.3776 N   0  0  0  0  0  0  0  0  0  0  0  0
   43.7863    2.0860   -4.3848 C   0  0  2  0  0  0  0  0  0  0  0  0
   43.8408    1.4891   -3.0728 O   0  0  0  0  0  0  0  0  0  0  0  0
   48.2440    1.3215   -5.1078 C   0  0  1  0  0  0  0  0  0  0  0  0
   42.4597   -2.7516   -8.8346 C   0  0  0  0  0  0  0  0  0  0  0  0
   39.2954    3.1083   -5.5830 C   0  0  2  0  0  0  0  0  0  0  0  0
   38.9843    2.8189   -6.9844 N   0  0  0  0  0  0  0  0  0  0  0  0
   42.7549    6.6634   -7.0167 C   0  0  0  0  0  0  0  0  0  0  0  0
   45.0125    1.5724   -5.1563 C   0  0  2  0  0  0  0  0  0  0  0  0
   44.5516    0.2631   -5.7137 O   0  0  0  0  0  0  0  0  0  0  0  0
   49.4291    0.2096   -5.1305 C   0  0  2  0  0  0  0  0  0  0  0  0
   49.9679    0.0532   -3.7409 N   0  0  0  0  0  0  0  0  0  0  0  0
   41.4545   -3.7736   -8.8397 C   0  0  0  0  0  0  0  0  0  0  0  0
   40.1588   -3.4831   -9.3415 N   0  0  0  0  0  0  0  0  0  0  0  0
   39.2357    4.6745   -5.2680 C   0  0  1  0  0  0  0  0  0  0  0  0
   37.9435    5.1578   -5.6009 O   0  0  0  0  0  0  0  0  0  0  0  0
   42.1303    5.1694   -7.2355 C   0  0  2  0  0  0  0  0  0  0  0  0
   40.7517    5.2356   -7.6311 N   0  0  0  0  0  0  0  0  0  0  0  0
   46.0399    1.5966   -4.0088 C   0  0  2  0  0  0  0  0  0  0  0  0
   47.2342    0.8517   -4.1966 O   0  0  0  0  0  0  0  0  0  0  0  0
   50.5377    0.7120   -6.1040 C   0  0  1  0  0  0  0  0  0  0  0  0
   49.9052    0.8123   -7.4296 O   0  0  0  0  0  0  0  0  0  0  0  0
   39.7930   -2.2041   -9.8498 C   0  0  0  0  0  0  0  0  0  0  0  0
   39.5646    4.8897   -3.7621 C   0  0  2  0  0  0  0  0  0  0  0  0
   39.5285    6.3296   -3.4093 O   0  0  0  0  0  0  0  0  0  0  0  0
   42.2587    4.3321   -5.8969 C   0  0  2  0  0  0  0  0  0  0  0  0
   45.2125    1.1538   -2.7786 C   0  0  1  0  0  0  0  0  0  0  0  0
   51.0993    2.1564   -5.6098 C   0  0  2  0  0  0  0  0  0  0  0  0
   51.7326    2.0638   -4.2851 O   0  0  0  0  0  0  0  0  0  0  0  0
   40.7448   -1.1550   -9.8713 C   0  0  0  0  0  0  0  0  0  0  0  0
   40.9988    4.3254   -3.4269 C   0  0  2  0  0  0  0  0  0  0  0  0
   40.9715    2.9192   -3.7965 O   0  0  0  0  0  0  0  0  0  0  0  0
   43.7770    4.2846   -5.5074 C   0  0  2  0  0  0  0  0  0  0  0  0
   43.7739    3.5081   -4.3156 O   0  0  0  0  0  0  0  0  0  0  0  0
   45.5963    1.9178   -1.5125 C   0  0  0  0  0  0  0  0  0  0  0  0
   44.8852    1.5616   -0.3511 O   0  0  0  0  0  0  0  0  0  0  0  0
   49.8945    3.2045   -5.5556 C   0  0  1  0  0  0  0  0  0  0  0  0
   48.8216    2.6561   -4.6376 O   0  0  0  0  0  0  0  0  0  0  0  0
   42.1112   -1.4071   -9.3579 C   0  0  0  0  0  0  0  0  0  0  0  0
   41.2435    4.5372   -1.9912 C   0  0  0  0  0  0  0  0  0  0  0  0
   42.5307    4.2912   -1.7169 O   0  0  0  0  0  0  0  0  0  0  0  0
   44.3422    5.7485   -5.2730 C   0  0  1  0  0  0  0  0  0  0  0  0
   45.6900    5.6900   -4.9390 O   0  0  0  0  0  0  0  0  0  0  0  0
   44.3141   -1.0095   -4.9922 C   0  0  0  0  0  0  0  0  0  0  0  0
   50.4859    4.5554   -5.0689 C   0  0  0  0  0  0  0  0  0  0  0  0
   51.3526    5.1209   -6.0728 N   0  0  0  0  0  0  0  0  0  0  0  0
   43.6150   -1.9605   -5.9690 C   0  0  0  0  0  0  0  0  0  0  0  0
   44.4316   -2.0791   -7.2204 N   0  0  0  0  0  0  0  0  0  0  0  0
   43.9174   -3.1089   -8.2622 C   0  0  0  0  0  0  0  0  0  0  0  0
  1  2  1  6  0  0  0
  1  9  1  0  0  0  0
  1 35  1  0  0  0  0
  3  4  1  1  0  0  0
  3 11  1  0  0  0  0
  3 45  1  0  0  0  0
  5  6  1  0  0  0  0
  5 12  1  0  0  0  0
  5 37  1  1  0  0  0
  6 30  1  0  0  0  0
  7 14  1  0  0  0  0
  7 41  1  0  0  0  0
  7 23  1  1  0  0  0
  8 16  2  0  0  0  0
  8 42  1  0  0  0  0
  9 10  1  6  0  0  0
  9 18  1  0  0  0  0
 11 20  1  0  0  0  0
 12 13  1  1  0  0  0
 12 22  1  0  0  0  0
 13 47  1  0  0  0  0
 14 15  1  1  0  0  0
 14 24  1  0  0  0  0
 16 17  1  0  0  0  0
 17 26  2  0  0  0  0
 18 19  1  1  0  0  0
 18 27  1  0  0  0  0
 20 21  1  1  0  0  0
 20 29  1  0  0  0  0
 22 23  1  6  0  0  0
 22 30  1  0  0  0  0
 24 25  1  6  0  0  0
 24 31  1  0  0  0  0
 26 33  1  0  0  0  0
 27 28  1  6  0  0  0
 27 34  1  0  0  0  0
 29  2  1  6  0  0  0
 29 36  1  0  0  0  0
 30 38  1  1  0  0  0
 31 32  1  1  0  0  0
 31 40  1  0  0  0  0
 33 42  2  0  0  0  0
 34 35  1  0  0  0  0
 34 43  1  1  0  0  0
 36 37  1  1  0  0  0
 36 45  1  0  0  0  0
 38 39  1  0  0  0  0
 40 41  1  0  0  0  0
 40 48  1  1  0  0  0
 43 44  1  0  0  0  0
 45 46  1  6  0  0  0
 47 50  1  0  0  0  0
 48 49  1  0  0  0  0
 50 51  1  0  0  0  0
 51 52  1  0  0  0  0
 52  8  1  0  0  0  0
M  END
>  <CHROM.1>
82.18093622,177.43237047,-177.48962659,-72.45645471,169.94089726,72.87490913
-127.83156944,63.97354222,-169.10766959,84.16548935,68.82465775,54.41587087
174.80830354,62.42233094,-130.05684658,44.21688902,2.27438197,-5.43333730
-3.11890627,0.14399243,-2.69032057

>  <Name>
2be0_lig

>  <RI>
2.75444e+07

>  <Rbt.Current_Directory>
/home/itssahil/PROJECTS/Mol_Feturizer/New_Systems/rnas/2be0

>  <Rbt.Executable>
rbdock ($Id: //depot/dev/client3/rdock/2013.1/src/exe/rbdock.cxx#4 $)

>  <Rbt.Library>
libRbt.so (2013.1, Build901 2013/11/27)

>  <Rbt.Parameter_File>
/export/apps/rDock/src/rDock_2013.1_src/data/scripts/dock_solv.prm

>  <Rbt.Receptor>
prm/pocket_docking_5.prm

>  <SCORE>
-14.7333

>  <SCORE.INTER>
-0.730673

>  <SCORE.INTER.CONST>
1

>  <SCORE.INTER.POLAR>
-1.74352

>  <SCORE.INTER.ROT>
15

>  <SCORE.INTER.SOLV>
15.5975

>  <SCORE.INTER.VDW>
-13.4746

>  <SCORE.INTER.norm>
-0.0140514

>  <SCORE.INTRA>
-14.0026

>  <SCORE.INTRA.DIHEDRAL>
-32.2064

>  <SCORE.INTRA.DIHEDRAL.0>
47.8724

>  <SCORE.INTRA.POLAR>
0

>  <SCORE.INTRA.POLAR.0>
0

>  <SCORE.INTRA.REPUL>
0

>  <SCORE.INTRA.REPUL.0>
0

>  <SCORE.INTRA.SOLV>
2.26075

>  <SCORE.INTRA.SOLV.lig_0>
-115.677

>  <SCORE.INTRA.VDW>
0.970209

>  <SCORE.INTRA.VDW.0>
-7.4833

>  <SCORE.INTRA.norm>
-0.269281

>  <SCORE.RESTR>
0

>  <SCORE.RESTR.CAVITY>
0

>  <SCORE.RESTR.norm>
0

>  <SCORE.SYSTEM>
0

>  <SCORE.SYSTEM.CONST>
0

>  <SCORE.SYSTEM.DIHEDRAL>
0

>  <SCORE.SYSTEM.SOLV>
0

>  <SCORE.SYSTEM.norm>
0

>  <SCORE.heavy>
52

>  <SCORE.norm>
-0.283333

>  <RMSD>
7.539

$$$$
2be0_lig
 OpenBabel11021811423D
libRbt.so/2013.1/901 2013/11/27
 52 56  0  0  0  0  0  0  0  0999 V2000
   40.6193    1.4900   -3.8958 C   0  0  2  0  0  0  0  0  0  0  0  0
   41.1815    0.2278   -4.1668 O   0  0  0  0  0  0  0  0  0  0  0  0
   45.4213   -0.8363   -4.6797 C   0  0  2  0  0  0  0  0  0  0  0  0
   46.7646   -0.9519   -5.3133 N   0  0  0  0  0  0  0  0  0  0  0  0
   44.0785    3.0732   -3.1237 C   0  0  2  0  0  0  0  0  0  0  0  0
   44.6978    2.6513   -1.8913 O   0  0  0  0  0  0  0  0  0  0  0  0
   41.7988    4.9467    0.6574 C   0  0  1  0  0  0  0  0  0  0  0  0
   44.6310    8.1631   -8.3914 C   0  0  0  0  0  0  0  0  0  0  0  0
   39.0652    1.3774   -3.6165 C   0  0  2  0  0  0  0  0  0  0  0  0
   38.8229    0.4046   -2.5490 N   0  0  0  0  0  0  0  0  0  0  0  0
   44.3297   -1.4862   -5.6464 C   0  0  0  0  0  0  0  0  0  0  0  0
   43.3668    4.4033   -2.8292 C   0  0  2  0  0  0  0  0  0  0  0  0
   44.4469    5.4235   -3.0024 O   0  0  0  0  0  0  0  0  0  0  0  0
   40.2481    4.5503    0.3755 C   0  0  2  0  0  0  0  0  0  0  0  0
   39.5912    5.6764   -0.3636 N   0  0  0  0  0  0  0  0  0  0  0  0
   43.4871    7.4585   -8.8913 C   0  0  0  0  0  0  0  0  0  0  0  0
   42.8098    7.9429  -10.0408 N   0  0  0  0  0  0  0  0  0  0  0  0
   38.3035    0.9862   -4.9665 C   0  0  1  0  0  0  0  0  0  0  0  0
   36.9147    0.8830   -4.6932 O   0  0  0  0  0  0  0  0  0  0  0  0
   42.8369   -1.3668   -4.9929 C   0  0  2  0  0  0  0  0  0  0  0  0
   41.8456   -1.9501   -5.8522 N   0  0  0  0  0  0  0  0  0  0  0  0
   42.8380    4.0803   -1.4189 C   0  0  2  0  0  0  0  0  0  0  0  0
   42.4202    5.1773   -0.6199 O   0  0  0  0  0  0  0  0  0  0  0  0
   39.5580    4.3106    1.7522 C   0  0  1  0  0  0  0  0  0  0  0  0
   40.2686    3.1826    2.3767 O   0  0  0  0  0  0  0  0  0  0  0  0
   43.2109    9.1171  -10.7398 C   0  0  0  0  0  0  0  0  0  0  0  0
   38.6039    2.0746   -6.0377 C   0  0  2  0  0  0  0  0  0  0  0  0
   37.9248    1.7631   -7.3187 O   0  0  0  0  0  0  0  0  0  0  0  0
   42.4844    0.1556   -4.7329 C   0  0  2  0  0  0  0  0  0  0  0  0
   43.9806    3.2472   -0.7908 C   0  0  1  0  0  0  0  0  0  0  0  0
   39.6627    5.6508    2.6680 C   0  0  2  0  0  0  0  0  0  0  0  0
   38.9549    6.7827    2.0498 O   0  0  0  0  0  0  0  0  0  0  0  0
   44.3350    9.8545  -10.2930 C   0  0  0  0  0  0  0  0  0  0  0  0
   40.1558    2.1721   -6.3017 C   0  0  2  0  0  0  0  0  0  0  0  0
   40.7620    2.4738   -5.0147 O   0  0  0  0  0  0  0  0  0  0  0  0
   43.5891    0.7471   -3.7902 C   0  0  2  0  0  0  0  0  0  0  0  0
   43.1690    2.0950   -3.6172 O   0  0  0  0  0  0  0  0  0  0  0  0
   43.4587    2.1009    0.0739 C   0  0  0  0  0  0  0  0  0  0  0  0
   44.4409    1.3713    0.7697 O   0  0  0  0  0  0  0  0  0  0  0  0
   41.2002    6.0312    2.8790 C   0  0  1  0  0  0  0  0  0  0  0  0
   41.8423    6.2085    1.5185 O   0  0  0  0  0  0  0  0  0  0  0  0
   45.0758    9.3908   -9.0969 C   0  0  0  0  0  0  0  0  0  0  0  0
   40.3784    3.2276   -7.3029 C   0  0  0  0  0  0  0  0  0  0  0  0
   40.1347    4.4235   -6.7522 O   0  0  0  0  0  0  0  0  0  0  0  0
   45.0199    0.6427   -4.4680 C   0  0  1  0  0  0  0  0  0  0  0  0
   45.9883    1.1612   -3.6166 O   0  0  0  0  0  0  0  0  0  0  0  0
   45.2032    5.7605   -4.2315 C   0  0  0  0  0  0  0  0  0  0  0  0
   41.2373    7.3184    3.7469 C   0  0  0  0  0  0  0  0  0  0  0  0
   40.8854    7.0197    5.1128 N   0  0  0  0  0  0  0  0  0  0  0  0
   44.1799    6.1746   -5.2940 C   0  0  0  0  0  0  0  0  0  0  0  0
   44.8418    6.2062   -6.6385 N   0  0  0  0  0  0  0  0  0  0  0  0
   45.3787    7.5912   -7.0898 C   0  0  0  0  0  0  0  0  0  0  0  0
  1  2  1  6  0  0  0
  1  9  1  0  0  0  0
  1 35  1  0  0  0  0
  3  4  1  6  0  0  0
  3 11  1  0  0  0  0
  3 45  1  0  0  0  0
  5  6  1  0  0  0  0
  5 12  1  0  0  0  0
  5 37  1  1  0  0  0
  6 30  1  0  0  0  0
  7 14  1  0  0  0  0
  7 41  1  0  0  0  0
  7 23  1  6  0  0  0
  8 16  2  0  0  0  0
  8 42  1  0  0  0  0
  9 10  1  1  0  0  0
  9 18  1  0  0  0  0
 11 20  1  0  0  0  0
 12 13  1  1  0  0  0
 12 22  1  0  0  0  0
 13 47  1  0  0  0  0
 14 15  1  1  0  0  0
 14 24  1  0  0  0  0
 16 17  1  0  0  0  0
 17 26  2  0  0  0  0
 18 19  1  1  0  0  0
 18 27  1  0  0  0  0
 20 21  1  6  0  0  0
 20 29  1  0  0  0  0
 22 23  1  1  0  0  0
 22 30  1  0  0  0  0
 24 25  1  1  0  0  0
 24 31  1  0  0  0  0
 26 33  1  0  0  0  0
 27 28  1  6  0  0  0
 27 34  1  0  0  0  0
 29  2  1  1  0  0  0
 29 36  1  0  0  0  0
 30 38  1  1  0  0  0
 31 32  1  6  0  0  0
 31 40  1  0  0  0  0
 33 42  2  0  0  0  0
 34 35  1  0  0  0  0
 34 43  1  6  0  0  0
 36 37  1  6  0  0  0
 36 45  1  0  0  0  0
 38 39  1  0  0  0  0
 40 41  1  0  0  0  0
 40 48  1  1  0  0  0
 43 44  1  0  0  0  0
 45 46  1  1  0  0  0
 47 50  1  0  0  0  0
 48 49  1  0  0  0  0
 50 51  1  0  0  0  0
 51 52  1  0  0  0  0
 52  8  1  0  0  0  0
M  END
>  <CHROM.1>
165.90697978,-52.68414370,-79.20513983,63.27215789,57.68197544,174.15456144
-177.40196842,68.99391189,70.80690716,-163.04452924,72.92855129,-166.42474665
-94.58046795,-115.66379662,7.27238276,42.21413685,3.63346778,-3.40136368
0.55410552,-1.28451074,-2.52309296

>  <Name>
2be0_lig

>  <RI>
0

>  <Rbt.Current_Directory>
/home/itssahil/PROJECTS/Mol_Feturizer/New_Systems/rnas/2be0

>  <Rbt.Executable>
rbdock ($Id: //depot/dev/client3/rdock/2013.1/src/exe/rbdock.cxx#4 $)

>  <Rbt.Library>
libRbt.so (2013.1, Build901 2013/11/27)

>  <Rbt.Parameter_File>
/export/apps/rDock/src/rDock_2013.1_src/data/scripts/dock_solv.prm

>  <Rbt.Receptor>
prm/pocket_docking_6.prm

>  <SCORE>
-30.0876

>  <SCORE.INTER>
-12.9025

>  <SCORE.INTER.CONST>
1

>  <SCORE.INTER.POLAR>
0

>  <SCORE.INTER.ROT>
15

>  <SCORE.INTER.SOLV>
13.1901

>  <SCORE.INTER.VDW>
-26.5984

>  <SCORE.INTER.norm>
-0.248125

>  <SCORE.INTRA>
-17.1851

>  <SCORE.INTRA.DIHEDRAL>
-38.3266

>  <SCORE.INTRA.DIHEDRAL.0>
47.8724

>  <SCORE.INTRA.POLAR>
0

>  <SCORE.INTRA.POLAR.0>
0

>  <SCORE.INTRA.REPUL>
0

>  <SCORE.INTRA.REPUL.0>
0

>  <SCORE.INTRA.SOLV>
-4.2202

>  <SCORE.INTRA.SOLV.lig_0>
-115.677

>  <SCORE.INTRA.VDW>
4.08829

>  <SCORE.INTRA.VDW.0>
-7.4833

>  <SCORE.INTRA.norm>
-0.330483

>  <SCORE.RESTR>
0

>  <SCORE.RESTR.CAVITY>
0

>  <SCORE.RESTR.norm>
0

>  <SCORE.SYSTEM>
0

>  <SCORE.SYSTEM.CONST>
0

>  <SCORE.SYSTEM.DIHEDRAL>
0

>  <SCORE.SYSTEM.SOLV>
0

>  <SCORE.SYSTEM.norm>
0

>  <SCORE.heavy>
52

>  <SCORE.norm>
-0.578607

>  <RMSD>
7.540

$$$$
2be0_lig
 OpenBabel11021811423D
libRbt.so/2013.1/901 2013/11/27
 52 56  0  0  0  0  0  0  0  0999 V2000
   41.2722    0.2914   -5.7728 C   0  0  2  0  0  0  0  0  0  0  0  0
   41.8447    1.5768   -5.8252 O   0  0  0  0  0  0  0  0  0  0  0  0
   45.3811    0.6911   -8.2910 C   0  0  2  0  0  0  0  0  0  0  0  0
   46.6091    0.9188   -9.1031 N   0  0  0  0  0  0  0  0  0  0  0  0
   44.7459    2.7688   -4.4099 C   0  0  2  0  0  0  0  0  0  0  0  0
   45.2895    2.9371   -3.0846 O   0  0  0  0  0  0  0  0  0  0  0  0
   41.5948    4.5232   -1.2863 C   0  0  1  0  0  0  0  0  0  0  0  0
   44.9340    7.5820   -8.4090 C   0  0  0  0  0  0  0  0  0  0  0  0
   39.8486    0.3256   -5.0814 C   0  0  2  0  0  0  0  0  0  0  0  0
   38.9930    1.3034   -5.7571 N   0  0  0  0  0  0  0  0  0  0  0  0
   44.1737    1.5207   -8.9253 C   0  0  0  0  0  0  0  0  0  0  0  0
   43.5449    3.7216   -4.5204 C   0  0  2  0  0  0  0  0  0  0  0  0
   44.1660    5.0219   -4.9213 O   0  0  0  0  0  0  0  0  0  0  0  0
   40.1401    5.2476   -1.2647 C   0  0  2  0  0  0  0  0  0  0  0  0
   40.2914    6.6449   -1.7846 N   0  0  0  0  0  0  0  0  0  0  0  0
   44.1094    6.4095   -8.4178 C   0  0  0  0  0  0  0  0  0  0  0  0
   42.9608    6.3637   -9.2507 N   0  0  0  0  0  0  0  0  0  0  0  0
   40.0147    0.6506   -3.5250 C   0  0  1  0  0  0  0  0  0  0  0  0
   38.7285    0.6842   -2.9262 O   0  0  0  0  0  0  0  0  0  0  0  0
   42.8080    1.3088   -8.0536 C   0  0  2  0  0  0  0  0  0  0  0  0
   41.7132    2.0485   -8.6154 N   0  0  0  0  0  0  0  0  0  0  0  0
   42.9770    3.5507   -3.0988 C   0  0  2  0  0  0  0  0  0  0  0  0
   42.0584    4.5355   -2.6485 O   0  0  0  0  0  0  0  0  0  0  0  0
   39.6308    5.2538    0.2083 C   0  0  1  0  0  0  0  0  0  0  0  0
   39.5048    3.8417    0.6051 O   0  0  0  0  0  0  0  0  0  0  0  0
   42.5723    7.4423  -10.0955 C   0  0  0  0  0  0  0  0  0  0  0  0
   40.9232   -0.4394   -2.8856 C   0  0  2  0  0  0  0  0  0  0  0  0
   41.1180   -0.1883   -1.4372 O   0  0  0  0  0  0  0  0  0  0  0  0
   43.0485    1.7709   -6.5575 C   0  0  2  0  0  0  0  0  0  0  0  0
   44.2445    3.4280   -2.2198 C   0  0  1  0  0  0  0  0  0  0  0  0
   40.6904    6.0396    1.1600 C   0  0  2  0  0  0  0  0  0  0  0  0
   40.8218    7.4517    0.7690 O   0  0  0  0  0  0  0  0  0  0  0  0
   43.3490    8.6266  -10.1299 C   0  0  0  0  0  0  0  0  0  0  0  0
   42.3355   -0.4584   -3.5874 C   0  0  2  0  0  0  0  0  0  0  0  0
   42.0779   -0.7036   -4.9975 O   0  0  0  0  0  0  0  0  0  0  0  0
   44.2471    0.9362   -5.9869 C   0  0  2  0  0  0  0  0  0  0  0  0
   44.3631    1.4193   -4.6540 O   0  0  0  0  0  0  0  0  0  0  0  0
   44.0783    2.4057   -1.0968 C   0  0  0  0  0  0  0  0  0  0  0  0
   43.3259    2.8396    0.0108 O   0  0  0  0  0  0  0  0  0  0  0  0
   42.1163    5.3242    1.0709 C   0  0  1  0  0  0  0  0  0  0  0  0
   42.5509    5.2979   -0.3800 O   0  0  0  0  0  0  0  0  0  0  0  0
   44.5571    8.7245   -9.2784 C   0  0  0  0  0  0  0  0  0  0  0  0
   43.1389   -1.5186   -2.9576 C   0  0  0  0  0  0  0  0  0  0  0  0
   44.4150   -1.4014   -3.3455 O   0  0  0  0  0  0  0  0  0  0  0  0
   45.5623    1.1890   -6.8375 C   0  0  1  0  0  0  0  0  0  0  0  0
   46.6117    0.4350   -6.3260 O   0  0  0  0  0  0  0  0  0  0  0  0
   45.1377    5.8471   -4.1655 C   0  0  0  0  0  0  0  0  0  0  0  0
   43.0850    6.1207    1.9867 C   0  0  0  0  0  0  0  0  0  0  0  0
   42.5841    6.1658    3.3379 N   0  0  0  0  0  0  0  0  0  0  0  0
   45.4920    7.0501   -5.0457 C   0  0  0  0  0  0  0  0  0  0  0  0
   46.1535    6.5711   -6.3025 N   0  0  0  0  0  0  0  0  0  0  0  0
   46.2282    7.6054   -7.4578 C   0  0  0  0  0  0  0  0  0  0  0  0
  1  2  1  1  0  0  0
  1  9  1  0  0  0  0
  1 35  1  0  0  0  0
  3  4  1  6  0  0  0
  3 11  1  0  0  0  0
  3 45  1  0  0  0  0
  5  6  1  0  0  0  0
  5 12  1  0  0  0  0
  5 37  1  1  0  0  0
  6 30  1  0  0  0  0
  7 14  1  0  0  0  0
  7 41  1  0  0  0  0
  7 23  1  6  0  0  0
  8 16  2  0  0  0  0
  8 42  1  0  0  0  0
  9 10  1  6  0  0  0
  9 18  1  0  0  0  0
 11 20  1  0  0  0  0
 12 13  1  1  0  0  0
 12 22  1  0  0  0  0
 13 47  1  0  0  0  0
 14 15  1  1  0  0  0
 14 24  1  0  0  0  0
 16 17  1  0  0  0  0
 17 26  2  0  0  0  0
 18 19  1  1  0  0  0
 18 27  1  0  0  0  0
 20 21  1  6  0  0  0
 20 29  1  0  0  0  0
 22 23  1  1  0  0  0
 22 30  1  0  0  0  0
 24 25  1  1  0  0  0
 24 31  1  0  0  0  0
 26 33  1  0  0  0  0
 27 28  1  1  0  0  0
 27 34  1  0  0  0  0
 29  2  1  1  0  0  0
 29 36  1  0  0  0  0
 30 38  1  1  0  0  0
 31 32  1  6  0  0  0
 31 40  1  0  0  0  0
 33 42  2  0  0  0  0
 34 35  1  0  0  0  0
 34 43  1  1  0  0  0
 36 37  1  1  0  0  0
 36 45  1  0  0  0  0
 38 39  1  0  0  0  0
 40 41  1  0  0  0  0
 40 48  1  1  0  0  0
 43 44  1  0  0  0  0
 45 46  1  1  0  0  0
 47 50  1  0  0  0  0
 48 49  1  0  0  0  0
 50 51  1  0  0  0  0
 51 52  1  0  0  0  0
 52  8  1  0  0  0  0
M  END
>  <CHROM.1>
-172.31669307,-158.20882518,-154.17317913,-62.81374633,177.90746339,-173.41732823
57.22914951,166.16014942,-168.40984522,-65.51206749,57.56586204,-62.59516366
164.12710372,-88.34638485,-20.58074114,42.92013400,3.36946652,-4.17908334
0.39083449,-1.19443665,-2.75900534

>  <Name>
2be0_lig

>  <RI>
0

>  <Rbt.Current_Directory>
/home/itssahil/PROJECTS/Mol_Feturizer/New_Systems/rnas/2be0

>  <Rbt.Executable>
rbdock ($Id: //depot/dev/client3/rdock/2013.1/src/exe/rbdock.cxx#4 $)

>  <Rbt.Library>
libRbt.so (2013.1, Build901 2013/11/27)

>  <Rbt.Parameter_File>
/export/apps/rDock/src/rDock_2013.1_src/data/scripts/dock_solv.prm

>  <Rbt.Receptor>
prm/pocket_docking_6.prm

>  <SCORE>
-23.4429

>  <SCORE.INTER>
-5.39693

>  <SCORE.INTER.CONST>
1

>  <SCORE.INTER.POLAR>
0

>  <SCORE.INTER.ROT>
15

>  <SCORE.INTER.SOLV>
13.3685

>  <SCORE.INTER.VDW>
-21.6541

>  <SCORE.INTER.norm>
-0.103787

>  <SCORE.INTRA>
-18.046

>  <SCORE.INTRA.DIHEDRAL>
-39.1228

>  <SCORE.INTRA.DIHEDRAL.0>
47.8724

>  <SCORE.INTRA.POLAR>
0

>  <SCORE.INTRA.POLAR.0>
0

>  <SCORE.INTRA.REPUL>
0

>  <SCORE.INTRA.REPUL.0>
0

>  <SCORE.INTRA.SOLV>
-0.858573

>  <SCORE.INTRA.SOLV.lig_0>
-115.677

>  <SCORE.INTRA.VDW>
1.94472

>  <SCORE.INTRA.VDW.0>
-7.4833

>  <SCORE.INTRA.norm>
-0.347038

>  <SCORE.RESTR>
0

>  <SCORE.RESTR.CAVITY>
0

>  <SCORE.RESTR.norm>
0

>  <SCORE.SYSTEM>
0

>  <SCORE.SYSTEM.CONST>
0

>  <SCORE.SYSTEM.DIHEDRAL>
0

>  <SCORE.SYSTEM.SOLV>
0

>  <SCORE.SYSTEM.norm>
0

>  <SCORE.heavy>
52

>  <SCORE.norm>
-0.450825

>  <RMSD>
7.542

$$$$
2be0_lig
 OpenBabel11021811423D
libRbt.so/2013.1/901 2013/11/27
 52 56  0  0  0  0  0  0  0  0999 V2000
   40.7571    4.3658   -3.4118 C   0  0  2  0  0  0  0  0  0  0  0  0
   41.1453    3.5840   -4.5167 O   0  0  0  0  0  0  0  0  0  0  0  0
   40.9483   -0.4194   -2.6985 C   0  0  2  0  0  0  0  0  0  0  0  0
   40.8949   -1.9046   -2.5956 N   0  0  0  0  0  0  0  0  0  0  0  0
   43.8376    1.5989   -5.4011 C   0  0  2  0  0  0  0  0  0  0  0  0
   45.2657    1.4356   -5.5205 O   0  0  0  0  0  0  0  0  0  0  0  0
   43.8281    5.3828   -7.9316 C   0  0  1  0  0  0  0  0  0  0  0  0
   39.2369   -1.9299   -8.3033 C   0  0  0  0  0  0  0  0  0  0  0  0
   40.6648    5.8982   -3.7979 C   0  0  2  0  0  0  0  0  0  0  0  0
   39.7808    6.0656   -4.9533 N   0  0  0  0  0  0  0  0  0  0  0  0
   39.7395    0.0851   -3.6111 C   0  0  0  0  0  0  0  0  0  0  0  0
   43.4043    2.5476   -6.5301 C   0  0  2  0  0  0  0  0  0  0  0  0
   43.2197    1.6358   -7.7013 O   0  0  0  0  0  0  0  0  0  0  0  0
   43.0983    4.9684   -9.3234 C   0  0  2  0  0  0  0  0  0  0  0  0
   44.1393    4.8491  -10.3947 N   0  0  0  0  0  0  0  0  0  0  0  0
   38.1759   -2.0737   -9.2565 C   0  0  0  0  0  0  0  0  0  0  0  0
   36.8714   -2.4123   -8.8109 N   0  0  0  0  0  0  0  0  0  0  0  0
   42.1309    6.4708   -4.0784 C   0  0  1  0  0  0  0  0  0  0  0  0
   42.0255    7.8418   -4.4298 O   0  0  0  0  0  0  0  0  0  0  0  0
   39.7705    1.7118   -3.7612 C   0  0  2  0  0  0  0  0  0  0  0  0
   38.6863    2.1787   -4.5784 N   0  0  0  0  0  0  0  0  0  0  0  0
   44.6011    3.5167   -6.4958 C   0  0  2  0  0  0  0  0  0  0  0  0
   44.7865    4.3532   -7.6282 O   0  0  0  0  0  0  0  0  0  0  0  0
   42.0658    6.0826   -9.6721 C   0  0  1  0  0  0  0  0  0  0  0  0
   41.0911    6.0989   -8.5689 O   0  0  0  0  0  0  0  0  0  0  0  0
   36.5510   -2.6237   -7.4395 C   0  0  0  0  0  0  0  0  0  0  0  0
   42.9958    6.2649   -2.8010 C   0  0  2  0  0  0  0  0  0  0  0  0
   44.3735    6.7751   -3.0024 O   0  0  0  0  0  0  0  0  0  0  0  0
   41.1483    2.1666   -4.3970 C   0  0  2  0  0  0  0  0  0  0  0  0
   45.8036    2.5895   -6.1985 C   0  0  1  0  0  0  0  0  0  0  0  0
   42.8205    7.5168   -9.8110 C   0  0  2  0  0  0  0  0  0  0  0  0
   43.7966    7.5077  -10.9117 O   0  0  0  0  0  0  0  0  0  0  0  0
   37.5583   -2.4944   -6.4518 C   0  0  0  0  0  0  0  0  0  0  0  0
   43.0753    4.7334   -2.4324 C   0  0  2  0  0  0  0  0  0  0  0  0
   41.7008    4.2937   -2.2523 O   0  0  0  0  0  0  0  0  0  0  0  0
   42.2986    1.6384   -3.4712 C   0  0  2  0  0  0  0  0  0  0  0  0
   43.4715    2.1099   -4.1234 O   0  0  0  0  0  0  0  0  0  0  0  0
   46.8148    3.2322   -5.2506 C   0  0  0  0  0  0  0  0  0  0  0  0
   47.9140    2.4257   -4.9002 O   0  0  0  0  0  0  0  0  0  0  0  0
   43.5634    7.8612   -8.4390 C   0  0  1  0  0  0  0  0  0  0  0  0
   44.5206    6.7328   -8.1145 O   0  0  0  0  0  0  0  0  0  0  0  0
   38.9366   -2.1431   -6.8655 C   0  0  0  0  0  0  0  0  0  0  0  0
   43.8843    4.6043   -1.2098 C   0  0  0  0  0  0  0  0  0  0  0  0
   44.0978    3.3081   -0.9508 O   0  0  0  0  0  0  0  0  0  0  0  0
   42.2573    0.0554   -3.3725 C   0  0  1  0  0  0  0  0  0  0  0  0
   43.2755   -0.3959   -2.5412 O   0  0  0  0  0  0  0  0  0  0  0  0
   42.5114    1.9080   -8.9744 C   0  0  0  0  0  0  0  0  0  0  0  0
   44.2721    9.2292   -8.6342 C   0  0  0  0  0  0  0  0  0  0  0  0
   45.1640    9.5000   -7.5342 N   0  0  0  0  0  0  0  0  0  0  0  0
   42.0311    0.5605   -9.5229 C   0  0  0  0  0  0  0  0  0  0  0  0
   41.0890   -0.0700   -8.5422 N   0  0  0  0  0  0  0  0  0  0  0  0
   40.7026   -1.5447   -8.8358 C   0  0  0  0  0  0  0  0  0  0  0  0
  1  2  1  6  0  0  0
  1  9  1  0  0  0  0
  1 35  1  0  0  0  0
  3  4  1  6  0  0  0
  3 11  1  0  0  0  0
  3 45  1  0  0  0  0
  5  6  1  0  0  0  0
  5 12  1  0  0  0  0
  5 37  1  1  0  0  0
  6 30  1  0  0  0  0
  7 14  1  0  0  0  0
  7 41  1  0  0  0  0
  7 23  1  6  0  0  0
  8 16  2  0  0  0  0
  8 42  1  0  0  0  0
  9 10  1  6  0  0  0
  9 18  1  0  0  0  0
 11 20  1  0  0  0  0
 12 13  1  6  0  0  0
 12 22  1  0  0  0  0
 13 47  1  0  0  0  0
 14 15  1  6  0  0  0
 14 24  1  0  0  0  0
 16 17  1  0  0  0  0
 17 26  2  0  0  0  0
 18 19  1  1  0  0  0
 18 27  1  0  0  0  0
 20 21  1  6  0  0  0
 20 29  1  0  0  0  0
 22 23  1  6  0  0  0
 22 30  1  0  0  0  0
 24 25  1  1  0  0  0
 24 31  1  0  0  0  0
 26 33  1  0  0  0  0
 27 28  1  6  0  0  0
 27 34  1  0  0  0  0
 29  2  1  1  0  0  0
 29 36  1  0  0  0  0
 30 38  1  1  0  0  0
 31 32  1  6  0  0  0
 31 40  1  0  0  0  0
 33 42  2  0  0  0  0
 34 35  1  0  0  0  0
 34 43  1  1  0  0  0
 36 37  1  6  0  0  0
 36 45  1  0  0  0  0
 38 39  1  0  0  0  0
 40 41  1  0  0  0  0
 40 48  1  6  0  0  0
 43 44  1  0  0  0  0
 45 46  1  1  0  0  0
 47 50  1  0  0  0  0
 48 49  1  0  0  0  0
 50 51  1  0  0  0  0
 51 52  1  0  0  0  0
 52  8  1  0  0  0  0
M  END
>  <CHROM.1>
-173.58594872,-141.79175256,-113.17086772,164.17936293,-153.65439811,67.04597775
48.31337643,61.67430902,-173.16219715,-66.73242615,-169.52226698,60.95775360
-169.95525344,-150.46503040,105.61504327,42.32211494,3.09275119,-5.95502827
-0.33536206,1.02802643,1.87313245

>  <Name>
2be0_lig

>  <RI>
0

>  <Rbt.Current_Directory>
/home/itssahil/PROJECTS/Mol_Feturizer/New_Systems/rnas/2be0

>  <Rbt.Executable>
rbdock ($Id: //depot/dev/client3/rdock/2013.1/src/exe/rbdock.cxx#4 $)

>  <Rbt.Library>
libRbt.so (2013.1, Build901 2013/11/27)

>  <Rbt.Parameter_File>
/export/apps/rDock/src/rDock_2013.1_src/data/scripts/dock_solv.prm

>  <Rbt.Receptor>
prm/pocket_docking_4.prm

>  <SCORE>
-17.0868

>  <SCORE.INTER>
-3.63268

>  <SCORE.INTER.CONST>
1

>  <SCORE.INTER.POLAR>
-1.84497

>  <SCORE.INTER.ROT>
15

>  <SCORE.INTER.SOLV>
17.5924

>  <SCORE.INTER.VDW>
-15.736

>  <SCORE.INTER.norm>
-0.0698592

>  <SCORE.INTRA>
-14.1629

>  <SCORE.INTRA.DIHEDRAL>
-28.1083

>  <SCORE.INTRA.DIHEDRAL.0>
47.8724

>  <SCORE.INTRA.POLAR>
0

>  <SCORE.INTRA.POLAR.0>
0

>  <SCORE.INTRA.REPUL>
0.0588125

>  <SCORE.INTRA.REPUL.0>
0

>  <SCORE.INTRA.SOLV>
-2.06948

>  <SCORE.INTRA.SOLV.lig_0>
-115.677

>  <SCORE.INTRA.VDW>
0.63195

>  <SCORE.INTRA.VDW.0>
-7.4833

>  <SCORE.INTRA.norm>
-0.272363

>  <SCORE.RESTR>
0.708745

>  <SCORE.RESTR.CAVITY>
0.708745

>  <SCORE.RESTR.norm>
0.0136297

>  <SCORE.SYSTEM>
0

>  <SCORE.SYSTEM.CONST>
0

>  <SCORE.SYSTEM.DIHEDRAL>
0

>  <SCORE.SYSTEM.SOLV>
0

>  <SCORE.SYSTEM.norm>
0

>  <SCORE.heavy>
52

>  <SCORE.norm>
-0.328592

>  <RMSD>
7.568

$$$$
2be0_lig
 OpenBabel11021811423D
libRbt.so/2013.1/901 2013/11/27
 52 56  0  0  0  0  0  0  0  0999 V2000
   41.9623    7.0226   -2.1304 C   0  0  2  0  0  0  0  0  0  0  0  0
   42.2133    6.3424   -0.9232 O   0  0  0  0  0  0  0  0  0  0  0  0
   40.3774    2.9867    1.2538 C   0  0  2  0  0  0  0  0  0  0  0  0
   39.3226    2.1175    1.8466 N   0  0  0  0  0  0  0  0  0  0  0  0
   41.2873    2.9731   -3.1451 C   0  0  2  0  0  0  0  0  0  0  0  0
   42.1444    1.9455   -2.6068 O   0  0  0  0  0  0  0  0  0  0  0  0
   44.2550    4.1439   -6.3556 C   0  0  1  0  0  0  0  0  0  0  0  0
   37.5028   -0.8288   -5.7540 C   0  0  0  0  0  0  0  0  0  0  0  0
   43.1571    7.9926   -2.5010 C   0  0  2  0  0  0  0  0  0  0  0  0
   44.4155    7.2438   -2.5198 N   0  0  0  0  0  0  0  0  0  0  0  0
   40.2117    4.4699    1.8201 C   0  0  0  0  0  0  0  0  0  0  0  0
   41.8211    3.3055   -4.5476 C   0  0  2  0  0  0  0  0  0  0  0  0
   41.1702    2.2805   -5.4212 O   0  0  0  0  0  0  0  0  0  0  0  0
   44.7477    5.4946   -5.5977 C   0  0  2  0  0  0  0  0  0  0  0  0
   43.7734    5.8148   -4.5050 N   0  0  0  0  0  0  0  0  0  0  0  0
   37.4881    0.1694   -4.7252 C   0  0  0  0  0  0  0  0  0  0  0  0
   36.3696    0.2676   -3.8566 N   0  0  0  0  0  0  0  0  0  0  0  0
   43.2011    9.2106   -1.4664 C   0  0  1  0  0  0  0  0  0  0  0  0
   44.2822   10.0630   -1.8111 O   0  0  0  0  0  0  0  0  0  0  0  0
   41.3437    5.4604    1.1819 C   0  0  2  0  0  0  0  0  0  0  0  0
   41.2068    6.7980    1.6853 N   0  0  0  0  0  0  0  0  0  0  0  0
   43.3303    3.2131   -4.2532 C   0  0  2  0  0  0  0  0  0  0  0  0
   44.1993    3.0967   -5.3702 O   0  0  0  0  0  0  0  0  0  0  0  0
   44.7997    6.6421   -6.6511 C   0  0  1  0  0  0  0  0  0  0  0  0
   45.7914    6.2302   -7.6581 O   0  0  0  0  0  0  0  0  0  0  0  0
   35.2353   -0.5880   -3.9534 C   0  0  0  0  0  0  0  0  0  0  0  0
   41.8358    9.9558   -1.5203 C   0  0  2  0  0  0  0  0  0  0  0  0
   41.8146   11.0983   -0.5751 O   0  0  0  0  0  0  0  0  0  0  0  0
   41.2185    5.4723   -0.3973 C   0  0  2  0  0  0  0  0  0  0  0  0
   43.4288    2.0330   -3.2574 C   0  0  1  0  0  0  0  0  0  0  0  0
   43.3321    6.8489   -7.3214 C   0  0  2  0  0  0  0  0  0  0  0  0
   42.3355    7.2603   -6.3204 O   0  0  0  0  0  0  0  0  0  0  0  0
   35.1936   -1.5941   -4.9499 C   0  0  0  0  0  0  0  0  0  0  0  0
   40.6589    8.9737   -1.1489 C   0  0  2  0  0  0  0  0  0  0  0  0
   40.7352    7.8793   -2.1036 O   0  0  0  0  0  0  0  0  0  0  0  0
   41.3773    3.9953   -0.8998 C   0  0  2  0  0  0  0  0  0  0  0  0
   41.2622    4.1272   -2.3114 O   0  0  0  0  0  0  0  0  0  0  0  0
   44.4667    2.2786   -2.1635 C   0  0  0  0  0  0  0  0  0  0  0  0
   44.6241    1.2346   -1.2326 O   0  0  0  0  0  0  0  0  0  0  0  0
   42.8665    5.4853   -8.0118 C   0  0  1  0  0  0  0  0  0  0  0  0
   42.8755    4.3897   -6.9657 O   0  0  0  0  0  0  0  0  0  0  0  0
   36.3360   -1.7371   -5.8820 C   0  0  0  0  0  0  0  0  0  0  0  0
   39.3973    9.7262   -1.2378 C   0  0  0  0  0  0  0  0  0  0  0  0
   38.3857    8.9515   -0.8265 O   0  0  0  0  0  0  0  0  0  0  0  0
   40.2452    3.0689   -0.2854 C   0  0  1  0  0  0  0  0  0  0  0  0
   40.4057    1.7625   -0.7317 O   0  0  0  0  0  0  0  0  0  0  0  0
   41.6516    1.7354   -6.7125 C   0  0  0  0  0  0  0  0  0  0  0  0
   41.4612    5.7388   -8.6219 C   0  0  0  0  0  0  0  0  0  0  0  0
   41.0683    4.6378   -9.4659 N   0  0  0  0  0  0  0  0  0  0  0  0
   40.5074    0.9109   -7.3111 C   0  0  0  0  0  0  0  0  0  0  0  0
   39.9552   -0.0093   -6.2647 N   0  0  0  0  0  0  0  0  0  0  0  0
   38.7820   -0.9178   -6.7214 C   0  0  0  0  0  0  0  0  0  0  0  0
  1  2  1  1  0  0  0
  1  9  1  0  0  0  0
  1 35  1  0  0  0  0
  3  4  1  1  0  0  0
  3 11  1  0  0  0  0
  3 45  1  0  0  0  0
  5  6  1  0  0  0  0
  5 12  1  0  0  0  0
  5 37  1  1  0  0  0
  6 30  1  0  0  0  0
  7 14  1  0  0  0  0
  7 41  1  0  0  0  0
  7 23  1  1  0  0  0
  8 16  2  0  0  0  0
  8 42  1  0  0  0  0
  9 10  1  1  0  0  0
  9 18  1  0  0  0  0
 11 20  1  0  0  0  0
 12 13  1  6  0  0  0
 12 22  1  0  0  0  0
 13 47  1  0  0  0  0
 14 15  1  1  0  0  0
 14 24  1  0  0  0  0
 16 17  1  0  0  0  0
 17 26  2  0  0  0  0
 18 19  1  6  0  0  0
 18 27  1  0  0  0  0
 20 21  1  1  0  0  0
 20 29  1  0  0  0  0
 22 23  1  6  0  0  0
 22 30  1  0  0  0  0
 24 25  1  6  0  0  0
 24 31  1  0  0  0  0
 26 33  1  0  0  0  0
 27 28  1  1  0  0  0
 27 34  1  0  0  0  0
 29  2  1  6  0  0  0
 29 36  1  0  0  0  0
 30 38  1  1  0  0  0
 31 32  1  1  0  0  0
 31 40  1  0  0  0  0
 33 42  2  0  0  0  0
 34 35  1  0  0  0  0
 34 43  1  6  0  0  0
 36 37  1  6  0  0  0
 36 45  1  0  0  0  0
 38 39  1  0  0  0  0
 40 41  1  0  0  0  0
 40 48  1  1  0  0  0
 43 44  1  0  0  0  0
 45 46  1  6  0  0  0
 47 50  1  0  0  0  0
 48 49  1  0  0  0  0
 50 51  1  0  0  0  0
 51 52  1  0  0  0  0
 52  8  1  0  0  0  0
M  END
>  <CHROM.1>
177.03315533,-33.26779705,61.11070677,-153.59281485,-170.11312152,61.71926153
-150.05327127,64.68528122,-175.15752648,-176.84480175,169.81652233,-48.18608239
-179.95238467,-127.96593084,8.47265744,41.43004477,4.42487464,-3.47283634
0.91262252,0.90240660,0.96339364

>  <Name>
2be0_lig

>  <RI>
0

>  <Rbt.Current_Directory>
/home/itssahil/PROJECTS/Mol_Feturizer/New_Systems/rnas/2be0

>  <Rbt.Executable>
rbdock ($Id: //depot/dev/client3/rdock/2013.1/src/exe/rbdock.cxx#4 $)

>  <Rbt.Library>
libRbt.so (2013.1, Build901 2013/11/27)

>  <Rbt.Parameter_File>
/export/apps/rDock/src/rDock_2013.1_src/data/scripts/dock_solv.prm

>  <Rbt.Receptor>
prm/pocket_docking_6.prm

>  <SCORE>
-18.5911

>  <SCORE.INTER>
-5.87956

>  <SCORE.INTER.CONST>
1

>  <SCORE.INTER.POLAR>
-1.87422

>  <SCORE.INTER.ROT>
15

>  <SCORE.INTER.SOLV>
14.6403

>  <SCORE.INTER.VDW>
-16.1524

>  <SCORE.INTER.norm>
-0.113069

>  <SCORE.INTRA>
-12.7115

>  <SCORE.INTRA.DIHEDRAL>
-34.7297

>  <SCORE.INTRA.DIHEDRAL.0>
47.8724

>  <SCORE.INTRA.POLAR>
0

>  <SCORE.INTRA.POLAR.0>
0

>  <SCORE.INTRA.REPUL>
0.10636

>  <SCORE.INTRA.REPUL.0>
0

>  <SCORE.INTRA.SOLV>
4.40967

>  <SCORE.INTRA.SOLV.lig_0>
-115.677

>  <SCORE.INTRA.VDW>
1.91671

>  <SCORE.INTRA.VDW.0>
-7.4833

>  <SCORE.INTRA.norm>
-0.244452

>  <SCORE.RESTR>
0

>  <SCORE.RESTR.CAVITY>
0

>  <SCORE.RESTR.norm>
0

>  <SCORE.SYSTEM>
0

>  <SCORE.SYSTEM.CONST>
0

>  <SCORE.SYSTEM.DIHEDRAL>
0

>  <SCORE.SYSTEM.SOLV>
0

>  <SCORE.SYSTEM.norm>
0

>  <SCORE.heavy>
52

>  <SCORE.norm>
-0.35752

>  <RMSD>
7.584

$$$$
2be0_lig
 OpenBabel11021811423D
libRbt.so/2013.1/901 2013/11/27
 52 56  0  0  0  0  0  0  0  0999 V2000
   43.4298    5.8526   -2.1230 C   0  0  2  0  0  0  0  0  0  0  0  0
   43.6322    4.4592   -2.1443 O   0  0  0  0  0  0  0  0  0  0  0  0
   41.4774    1.0063   -0.4695 C   0  0  2  0  0  0  0  0  0  0  0  0
   40.3401    0.1413   -0.0478 N   0  0  0  0  0  0  0  0  0  0  0  0
   43.2562    1.5296   -4.7424 C   0  0  2  0  0  0  0  0  0  0  0  0
   44.5487    1.0678   -4.2991 O   0  0  0  0  0  0  0  0  0  0  0  0
   46.7466    4.0702   -6.8388 C   0  0  1  0  0  0  0  0  0  0  0  0
   40.9000   -4.4696   -7.2438 C   0  0  0  0  0  0  0  0  0  0  0  0
   42.0153    6.2356   -2.7216 C   0  0  2  0  0  0  0  0  0  0  0  0
   40.9637    5.4962   -2.0202 N   0  0  0  0  0  0  0  0  0  0  0  0
   41.3406    2.4310    0.2376 C   0  0  0  0  0  0  0  0  0  0  0  0
   43.4645    2.1695   -6.1243 C   0  0  2  0  0  0  0  0  0  0  0  0
   43.3904    1.0069   -7.0626 O   0  0  0  0  0  0  0  0  0  0  0  0
   47.1632    4.6211   -8.3099 C   0  0  2  0  0  0  0  0  0  0  0  0
   47.4041    3.4485   -9.2115 N   0  0  0  0  0  0  0  0  0  0  0  0
   40.4525   -5.2403   -8.3667 C   0  0  0  0  0  0  0  0  0  0  0  0
   39.3531   -6.1259   -8.2186 N   0  0  0  0  0  0  0  0  0  0  0  0
   42.0017    5.9481   -4.2942 C   0  0  1  0  0  0  0  0  0  0  0  0
   40.7244    6.2905   -4.8094 O   0  0  0  0  0  0  0  0  0  0  0  0
   42.5640    3.4168   -0.2108 C   0  0  2  0  0  0  0  0  0  0  0  0
   42.4538    4.7016    0.4204 N   0  0  0  0  0  0  0  0  0  0  0  0
   44.8178    2.8576   -5.8637 C   0  0  2  0  0  0  0  0  0  0  0  0
   45.5599    3.2728   -7.0011 O   0  0  0  0  0  0  0  0  0  0  0  0
   48.4565    5.4764   -8.1517 C   0  0  1  0  0  0  0  0  0  0  0  0
   48.1008    6.5985   -7.2675 O   0  0  0  0  0  0  0  0  0  0  0  0
   38.6553   -6.2967   -6.9889 C   0  0  0  0  0  0  0  0  0  0  0  0
   43.1367    6.7795   -4.9596 C   0  0  2  0  0  0  0  0  0  0  0  0
   43.1766    6.5505   -6.4242 O   0  0  0  0  0  0  0  0  0  0  0  0
   42.5597    3.5967   -1.7847 C   0  0  2  0  0  0  0  0  0  0  0  0
   45.5657    1.8461   -4.9629 C   0  0  1  0  0  0  0  0  0  0  0  0
   49.6454    4.5733   -7.5062 C   0  0  2  0  0  0  0  0  0  0  0  0
   50.0059    3.4494   -8.3845 O   0  0  0  0  0  0  0  0  0  0  0  0
   39.0516   -5.5610   -5.8449 C   0  0  0  0  0  0  0  0  0  0  0  0
   44.5367    6.3844   -4.3502 C   0  0  2  0  0  0  0  0  0  0  0  0
   44.4328    6.6265   -2.9200 O   0  0  0  0  0  0  0  0  0  0  0  0
   42.6850    2.1722   -2.4283 C   0  0  2  0  0  0  0  0  0  0  0  0
   42.6838    2.4536   -3.8226 O   0  0  0  0  0  0  0  0  0  0  0  0
   46.3851    2.5325   -3.8713 C   0  0  0  0  0  0  0  0  0  0  0  0
   46.9863    1.6719   -2.9337 O   0  0  0  0  0  0  0  0  0  0  0  0
   49.1755    4.0134   -6.0854 C   0  0  1  0  0  0  0  0  0  0  0  0
   47.8933    3.2299   -6.2779 O   0  0  0  0  0  0  0  0  0  0  0  0
   40.1942   -4.6238   -5.9473 C   0  0  0  0  0  0  0  0  0  0  0  0
   45.5631    7.2151   -5.0001 C   0  0  0  0  0  0  0  0  0  0  0  0
   45.6787    6.8574   -6.2851 O   0  0  0  0  0  0  0  0  0  0  0  0
   41.4664    1.2524   -1.9968 C   0  0  1  0  0  0  0  0  0  0  0  0
   41.5973   -0.0085   -2.5664 O   0  0  0  0  0  0  0  0  0  0  0  0
   42.2708    0.0563   -7.2602 C   0  0  0  0  0  0  0  0  0  0  0  0
   50.3410    3.1537   -5.5250 C   0  0  0  0  0  0  0  0  0  0  0  0
   49.9624    2.5368   -4.2781 N   0  0  0  0  0  0  0  0  0  0  0  0
   42.7902   -1.0769   -8.1510 C   0  0  0  0  0  0  0  0  0  0  0  0
   41.7721   -2.1757   -8.2048 N   0  0  0  0  0  0  0  0  0  0  0  0
   42.1455   -3.4745   -7.4408 C   0  0  0  0  0  0  0  0  0  0  0  0
  1  2  1  6  0  0  0
  1  9  1  0  0  0  0
  1 35  1  0  0  0  0
  3  4  1  6  0  0  0
  3 11  1  0  0  0  0
  3 45  1  0  0  0  0
  5  6  1  0  0  0  0
  5 12  1  0  0  0  0
  5 37  1  1  0  0  0
  6 30  1  0  0  0  0
  7 14  1  0  0  0  0
  7 41  1  0  0  0  0
  7 23  1  6  0  0  0
  8 16  2  0  0  0  0
  8 42  1  0  0  0  0
  9 10  1  1  0  0  0
  9 18  1  0  0  0  0
 11 20  1  0  0  0  0
 12 13  1  6  0  0  0
 12 22  1  0  0  0  0
 13 47  1  0  0  0  0
 14 15  1  6  0  0  0
 14 24  1  0  0  0  0
 16 17  1  0  0  0  0
 17 26  2  0  0  0  0
 18 19  1  6  0  0  0
 18 27  1  0  0  0  0
 20 21  1  1  0  0  0
 20 29  1  0  0  0  0
 22 23  1  6  0  0  0
 22 30  1  0  0  0  0
 24 25  1  1  0  0  0
 24 31  1  0  0  0  0
 26 33  1  0  0  0  0
 27 28  1  6  0  0  0
 27 34  1  0  0  0  0
 29  2  1  1  0  0  0
 29 36  1  0  0  0  0
 30 38  1  1  0  0  0
 31 32  1  6  0  0  0
 31 40  1  0  0  0  0
 33 42  2  0  0  0  0
 34 35  1  0  0  0  0
 34 43  1  6  0  0  0
 36 37  1  6  0  0  0
 36 45  1  0  0  0  0
 38 39  1  0  0  0  0
 40 41  1  0  0  0  0
 40 48  1  6  0  0  0
 43 44  1  0  0  0  0
 45 46  1  6  0  0  0
 47 50  1  0  0  0  0
 48 49  1  0  0  0  0
 50 51  1  0  0  0  0
 51 52  1  0  0  0  0
 52  8  1  0  0  0  0
M  END
>  <CHROM.1>
-41.64821485,-46.54953239,-168.43133810,58.88795945,-170.48464135,172.11193739
-86.02504623,57.74163229,-68.45146884,156.93130521,-176.23269447,171.00105014
-108.53513760,166.57228849,75.76004125,43.99606660,2.38511462,-4.98771823
0.76838101,0.66291541,0.63427343

>  <Name>
2be0_lig

>  <RI>
0

>  <Rbt.Current_Directory>
/home/itssahil/PROJECTS/Mol_Feturizer/New_Systems/rnas/2be0

>  <Rbt.Executable>
rbdock ($Id: //depot/dev/client3/rdock/2013.1/src/exe/rbdock.cxx#4 $)

>  <Rbt.Library>
libRbt.so (2013.1, Build901 2013/11/27)

>  <Rbt.Parameter_File>
/export/apps/rDock/src/rDock_2013.1_src/data/scripts/dock_solv.prm

>  <Rbt.Receptor>
prm/pocket_docking_4.prm

>  <SCORE>
-10.814

>  <SCORE.INTER>
2.22038

>  <SCORE.INTER.CONST>
1

>  <SCORE.INTER.POLAR>
-0.894427

>  <SCORE.INTER.ROT>
15

>  <SCORE.INTER.SOLV>
9.29326

>  <SCORE.INTER.VDW>
-12.2361

>  <SCORE.INTER.norm>
0.0426995

>  <SCORE.INTRA>
-13.0666

>  <SCORE.INTRA.DIHEDRAL>
-35.8447

>  <SCORE.INTRA.DIHEDRAL.0>
47.8724

>  <SCORE.INTRA.POLAR>
0

>  <SCORE.INTRA.POLAR.0>
0

>  <SCORE.INTRA.REPUL>
0

>  <SCORE.INTRA.REPUL.0>
0

>  <SCORE.INTRA.SOLV>
3.9613

>  <SCORE.INTRA.SOLV.lig_0>
-115.677

>  <SCORE.INTRA.VDW>
2.87514

>  <SCORE.INTRA.VDW.0>
-7.4833

>  <SCORE.INTRA.norm>
-0.25128

>  <SCORE.RESTR>
0.0322503

>  <SCORE.RESTR.CAVITY>
0.0322503

>  <SCORE.RESTR.norm>
0.000620199

>  <SCORE.SYSTEM>
0

>  <SCORE.SYSTEM.CONST>
0

>  <SCORE.SYSTEM.DIHEDRAL>
0

>  <SCORE.SYSTEM.SOLV>
0

>  <SCORE.SYSTEM.norm>
0

>  <SCORE.heavy>
52

>  <SCORE.norm>
-0.207961

>  <RMSD>
7.609

$$$$
2be0_lig
 OpenBabel11021811423D
libRbt.so/2013.1/901 2013/11/27
 52 56  0  0  0  0  0  0  0  0999 V2000
   40.5309    1.5708   -4.9358 C   0  0  2  0  0  0  0  0  0  0  0  0
   41.4815    0.7063   -4.3598 O   0  0  0  0  0  0  0  0  0  0  0  0
   45.8242    0.6476   -3.6467 C   0  0  2  0  0  0  0  0  0  0  0  0
   47.2750    0.9230   -3.8437 N   0  0  0  0  0  0  0  0  0  0  0  0
   43.1608    4.0601   -3.5787 C   0  0  2  0  0  0  0  0  0  0  0  0
   44.1429    4.6879   -2.7291 O   0  0  0  0  0  0  0  0  0  0  0  0
   41.0774    7.3306   -0.7512 C   0  0  1  0  0  0  0  0  0  0  0  0
   43.5250    8.4977   -9.4417 C   0  0  0  0  0  0  0  0  0  0  0  0
   39.0571    1.1410   -4.5498 C   0  0  2  0  0  0  0  0  0  0  0  0
   38.9337    1.0473   -3.0936 N   0  0  0  0  0  0  0  0  0  0  0  0
   45.2390   -0.0390   -4.9637 C   0  0  0  0  0  0  0  0  0  0  0  0
   42.0032    5.0597   -3.7313 C   0  0  2  0  0  0  0  0  0  0  0  0
   42.4449    5.9362   -4.8601 O   0  0  0  0  0  0  0  0  0  0  0  0
   40.2567    6.1883    0.0630 C   0  0  2  0  0  0  0  0  0  0  0  0
   38.9593    5.9340   -0.6427 N   0  0  0  0  0  0  0  0  0  0  0  0
   43.3032    8.6385  -10.8509 C   0  0  0  0  0  0  0  0  0  0  0  0
   43.8632    9.7434  -11.5441 N   0  0  0  0  0  0  0  0  0  0  0  0
   38.6933   -0.2386   -5.2710 C   0  0  1  0  0  0  0  0  0  0  0  0
   37.3728   -0.6095   -4.9064 O   0  0  0  0  0  0  0  0  0  0  0  0
   43.6430   -0.3452   -4.7935 C   0  0  2  0  0  0  0  0  0  0  0  0
   43.1047   -0.9652   -5.9712 N   0  0  0  0  0  0  0  0  0  0  0  0
   41.9805    5.6150   -2.2947 C   0  0  2  0  0  0  0  0  0  0  0  0
   41.2873    6.8367   -2.0863 O   0  0  0  0  0  0  0  0  0  0  0  0
   40.0099    6.7157    1.5087 C   0  0  1  0  0  0  0  0  0  0  0  0
   41.3407    6.9130    2.1064 O   0  0  0  0  0  0  0  0  0  0  0  0
   44.6492   10.7431  -10.9031 C   0  0  0  0  0  0  0  0  0  0  0  0
   38.8375   -0.0467   -6.8087 C   0  0  2  0  0  0  0  0  0  0  0  0
   38.5154   -1.2991   -7.5346 O   0  0  0  0  0  0  0  0  0  0  0  0
   42.8654    1.0036   -4.5011 C   0  0  2  0  0  0  0  0  0  0  0  0
   43.4780    5.6709   -1.9093 C   0  0  1  0  0  0  0  0  0  0  0  0
   39.1759    8.1113    1.4570 C   0  0  2  0  0  0  0  0  0  0  0  0
   37.8445    7.9218    0.8603 O   0  0  0  0  0  0  0  0  0  0  0  0
   44.9033   10.6564   -9.5121 C   0  0  0  0  0  0  0  0  0  0  0  0
   40.3111    0.3814   -7.1731 C   0  0  2  0  0  0  0  0  0  0  0  0
   40.5665    1.6061   -6.4317 O   0  0  0  0  0  0  0  0  0  0  0  0
   43.4840    1.6408   -3.2087 C   0  0  2  0  0  0  0  0  0  0  0  0
   42.7109    2.8224   -3.0371 O   0  0  0  0  0  0  0  0  0  0  0  0
   43.7203    5.2750   -0.4537 C   0  0  0  0  0  0  0  0  0  0  0  0
   43.2599    3.9957   -0.0893 O   0  0  0  0  0  0  0  0  0  0  0  0
   39.9951    9.1886    0.6078 C   0  0  1  0  0  0  0  0  0  0  0  0
   40.2534    8.6176   -0.7713 O   0  0  0  0  0  0  0  0  0  0  0  0
   44.3403    9.5224   -8.7430 C   0  0  0  0  0  0  0  0  0  0  0  0
   40.3799    0.5680   -8.6314 C   0  0  0  0  0  0  0  0  0  0  0  0
   39.5512    1.5550   -8.9945 O   0  0  0  0  0  0  0  0  0  0  0  0
   45.0253    1.9527   -3.4194 C   0  0  1  0  0  0  0  0  0  0  0  0
   45.5608    2.5069   -2.2628 O   0  0  0  0  0  0  0  0  0  0  0  0
   43.7051    6.7059   -4.9861 C   0  0  0  0  0  0  0  0  0  0  0  0
   39.1490   10.4905    0.5837 C   0  0  0  0  0  0  0  0  0  0  0  0
   38.9820   11.0119    1.9175 N   0  0  0  0  0  0  0  0  0  0  0  0
   43.5671    7.6021   -6.2210 C   0  0  0  0  0  0  0  0  0  0  0  0
   43.7142    6.7709   -7.4596 N   0  0  0  0  0  0  0  0  0  0  0  0
   42.8804    7.2368   -8.6835 C   0  0  0  0  0  0  0  0  0  0  0  0
  1  2  1  6  0  0  0
  1  9  1  0  0  0  0
  1 35  1  0  0  0  0
  3  4  1  6  0  0  0
  3 11  1  0  0  0  0
  3 45  1  0  0  0  0
  5  6  1  0  0  0  0
  5 12  1  0  0  0  0
  5 37  1  1  0  0  0
  6 30  1  0  0  0  0
  7 14  1  0  0  0  0
  7 41  1  0  0  0  0
  7 23  1  6  0  0  0
  8 16  2  0  0  0  0
  8 42  1  0  0  0  0
  9 10  1  1  0  0  0
  9 18  1  0  0  0  0
 11 20  1  0  0  0  0
 12 13  1  6  0  0  0
 12 22  1  0  0  0  0
 13 47  1  0  0  0  0
 14 15  1  6  0  0  0
 14 24  1  0  0  0  0
 16 17  1  0  0  0  0
 17 26  2  0  0  0  0
 18 19  1  6  0  0  0
 18 27  1  0  0  0  0
 20 21  1  6  0  0  0
 20 29  1  0  0  0  0
 22 23  1  6  0  0  0
 22 30  1  0  0  0  0
 24 25  1  6  0  0  0
 24 31  1  0  0  0  0
 26 33  1  0  0  0  0
 27 28  1  6  0  0  0
 27 34  1  0  0  0  0
 29  2  1  1  0  0  0
 29 36  1  0  0  0  0
 30 38  1  1  0  0  0
 31 32  1  6  0  0  0
 31 40  1  0  0  0  0
 33 42  2  0  0  0  0
 34 35  1  0  0  0  0
 34 43  1  6  0  0  0
 36 37  1  6  0  0  0
 36 45  1  0  0  0  0
 38 39  1  0  0  0  0
 40 41  1  0  0  0  0
 40 48  1  6  0  0  0
 43 44  1  0  0  0  0
 45 46  1  1  0  0  0
 47 50  1  0  0  0  0
 48 49  1  0  0  0  0
 50 51  1  0  0  0  0
 51 52  1  0  0  0  0
 52  8  1  0  0  0  0
M  END
>  <CHROM.1>
-174.59446245,-81.12474558,-58.27665579,-54.88772208,-171.29979738,172.14535391
-138.88348594,-58.82342138,62.24346289,-93.54809455,62.66771025,-75.02501688
147.29215142,77.79013470,150.06045503,41.88556560,4.53807545,-4.09206009
1.19958780,-1.22437792,-2.74000175

>  <Name>
2be0_lig

>  <RI>
2.10017e+07

>  <Rbt.Current_Directory>
/home/itssahil/PROJECTS/Mol_Feturizer/New_Systems/rnas/2be0

>  <Rbt.Executable>
rbdock ($Id: //depot/dev/client3/rdock/2013.1/src/exe/rbdock.cxx#4 $)

>  <Rbt.Library>
libRbt.so (2013.1, Build901 2013/11/27)

>  <Rbt.Parameter_File>
/export/apps/rDock/src/rDock_2013.1_src/data/scripts/dock_solv.prm

>  <Rbt.Receptor>
prm/pocket_docking_3.prm

>  <SCORE>
-17.6397

>  <SCORE.INTER>
-6.3061

>  <SCORE.INTER.CONST>
1

>  <SCORE.INTER.POLAR>
0

>  <SCORE.INTER.ROT>
15

>  <SCORE.INTER.SOLV>
8.31171

>  <SCORE.INTER.VDW>
-20.5746

>  <SCORE.INTER.norm>
-0.121271

>  <SCORE.INTRA>
-13.6344

>  <SCORE.INTRA.DIHEDRAL>
-32.1161

>  <SCORE.INTRA.DIHEDRAL.0>
47.8724

>  <SCORE.INTRA.POLAR>
0

>  <SCORE.INTRA.POLAR.0>
0

>  <SCORE.INTRA.REPUL>
0

>  <SCORE.INTRA.REPUL.0>
0

>  <SCORE.INTRA.SOLV>
-0.284297

>  <SCORE.INTRA.SOLV.lig_0>
-115.677

>  <SCORE.INTRA.VDW>
2.56584

>  <SCORE.INTRA.VDW.0>
-7.4833

>  <SCORE.INTRA.norm>
-0.262199

>  <SCORE.RESTR>
2.30076

>  <SCORE.RESTR.CAVITY>
2.30076

>  <SCORE.RESTR.norm>
0.0442455

>  <SCORE.SYSTEM>
0

>  <SCORE.SYSTEM.CONST>
0

>  <SCORE.SYSTEM.DIHEDRAL>
0

>  <SCORE.SYSTEM.SOLV>
0

>  <SCORE.SYSTEM.norm>
0

>  <SCORE.heavy>
52

>  <SCORE.norm>
-0.339225

>  <RMSD>
7.631

$$$$
2be0_lig
 OpenBabel11021811423D
libRbt.so/2013.1/901 2013/11/27
 52 56  0  0  0  0  0  0  0  0999 V2000
   45.3420    2.5594   -3.6301 C   0  0  2  0  0  0  0  0  0  0  0  0
   44.4175    2.5166   -4.6914 O   0  0  0  0  0  0  0  0  0  0  0  0
   40.0332    2.8086   -4.9436 C   0  0  2  0  0  0  0  0  0  0  0  0
   38.5971    2.5198   -4.6722 N   0  0  0  0  0  0  0  0  0  0  0  0
   43.5699    5.3161   -2.7476 C   0  0  2  0  0  0  0  0  0  0  0  0
   44.3403    5.4989   -1.5420 O   0  0  0  0  0  0  0  0  0  0  0  0
   40.1798    7.3101   -0.0384 C   0  0  1  0  0  0  0  0  0  0  0  0
   44.4589    6.9366   -8.3906 C   0  0  0  0  0  0  0  0  0  0  0  0
   46.8251    2.6937   -4.1669 C   0  0  2  0  0  0  0  0  0  0  0  0
   46.9265    3.8514   -5.0580 N   0  0  0  0  0  0  0  0  0  0  0  0
   40.7558    1.4662   -5.4173 C   0  0  0  0  0  0  0  0  0  0  0  0
   42.4802    6.4001   -2.7455 C   0  0  2  0  0  0  0  0  0  0  0  0
   43.1667    7.5870   -3.3433 O   0  0  0  0  0  0  0  0  0  0  0  0
   39.5119    8.7759    0.1774 C   0  0  2  0  0  0  0  0  0  0  0  0
   40.4615    9.6250    0.9667 N   0  0  0  0  0  0  0  0  0  0  0  0
   43.4855    5.8847   -8.3626 C   0  0  0  0  0  0  0  0  0  0  0  0
   42.3581    5.9467   -9.2230 N   0  0  0  0  0  0  0  0  0  0  0  0
   47.2578    1.3381   -4.8955 C   0  0  1  0  0  0  0  0  0  0  0  0
   48.5856    1.4819   -5.3753 O   0  0  0  0  0  0  0  0  0  0  0  0
   42.3398    1.7375   -5.7122 C   0  0  2  0  0  0  0  0  0  0  0  0
   43.0011    0.5377   -6.1415 N   0  0  0  0  0  0  0  0  0  0  0  0
   42.1398    6.3891   -1.2433 C   0  0  2  0  0  0  0  0  0  0  0  0
   41.4231    7.5052   -0.7361 O   0  0  0  0  0  0  0  0  0  0  0  0
   38.1694    8.5814    0.9449 C   0  0  1  0  0  0  0  0  0  0  0  0
   37.3163    7.7536    0.0765 O   0  0  0  0  0  0  0  0  0  0  0  0
   42.1341    7.0204  -10.1313 C   0  0  0  0  0  0  0  0  0  0  0  0
   47.1330    0.1672   -3.8778 C   0  0  2  0  0  0  0  0  0  0  0  0
   47.5188   -1.1226   -4.4996 O   0  0  0  0  0  0  0  0  0  0  0  0
   43.0424    2.2921   -4.4051 C   0  0  2  0  0  0  0  0  0  0  0  0
   43.5136    6.1671   -0.5670 C   0  0  1  0  0  0  0  0  0  0  0  0
   38.4448    7.8477    2.3703 C   0  0  2  0  0  0  0  0  0  0  0  0
   39.2973    8.6693    3.2436 O   0  0  0  0  0  0  0  0  0  0  0  0
   43.0625    8.0879  -10.2043 C   0  0  0  0  0  0  0  0  0  0  0  0
   45.6498    0.0498   -3.3546 C   0  0  2  0  0  0  0  0  0  0  0  0
   45.3314    1.3396   -2.7629 O   0  0  0  0  0  0  0  0  0  0  0  0
   42.2904    3.6000   -3.9774 C   0  0  2  0  0  0  0  0  0  0  0  0
   43.0048    4.0111   -2.8180 O   0  0  0  0  0  0  0  0  0  0  0  0
   43.4230    5.2448    0.6477 C   0  0  0  0  0  0  0  0  0  0  0  0
   42.7672    4.0186    0.4295 O   0  0  0  0  0  0  0  0  0  0  0  0
   39.1448    6.4345    2.1139 C   0  0  1  0  0  0  0  0  0  0  0  0
   40.4182    6.6650    1.3264 O   0  0  0  0  0  0  0  0  0  0  0  0
   44.2555    8.0707   -9.3264 C   0  0  0  0  0  0  0  0  0  0  0  0
   45.5991   -1.0554   -2.3840 C   0  0  0  0  0  0  0  0  0  0  0  0
   46.2535   -0.7019   -1.2707 O   0  0  0  0  0  0  0  0  0  0  0  0
   40.7642    3.2947   -3.6697 C   0  0  1  0  0  0  0  0  0  0  0  0
   40.1099    4.4645   -3.3024 O   0  0  0  0  0  0  0  0  0  0  0  0
   43.5488    7.8109   -4.7576 C   0  0  0  0  0  0  0  0  0  0  0  0
   39.3923    5.7884    3.5042 C   0  0  0  0  0  0  0  0  0  0  0  0
   40.3787    6.5366    4.2431 N   0  0  0  0  0  0  0  0  0  0  0  0
   44.8996    7.1218   -4.9766 C   0  0  0  0  0  0  0  0  0  0  0  0
   45.5919    7.7432   -6.1519 N   0  0  0  0  0  0  0  0  0  0  0  0
   45.7252    6.8395   -7.4071 C   0  0  0  0  0  0  0  0  0  0  0  0
  1  2  1  6  0  0  0
  1  9  1  0  0  0  0
  1 35  1  0  0  0  0
  3  4  1  1  0  0  0
  3 11  1  0  0  0  0
  3 45  1  0  0  0  0
  5  6  1  0  0  0  0
  5 12  1  0  0  0  0
  5 37  1  1  0  0  0
  6 30  1  0  0  0  0
  7 14  1  0  0  0  0
  7 41  1  0  0  0  0
  7 23  1  1  0  0  0
  8 16  2  0  0  0  0
  8 42  1  0  0  0  0
  9 10  1  6  0  0  0
  9 18  1  0  0  0  0
 11 20  1  0  0  0  0
 12 13  1  1  0  0  0
 12 22  1  0  0  0  0
 13 47  1  0  0  0  0
 14 15  1  1  0  0  0
 14 24  1  0  0  0  0
 16 17  1  0  0  0  0
 17 26  2  0  0  0  0
 18 19  1  1  0  0  0
 18 27  1  0  0  0  0
 20 21  1  1  0  0  0
 20 29  1  0  0  0  0
 22 23  1  1  0  0  0
 22 30  1  0  0  0  0
 24 25  1  6  0  0  0
 24 31  1  0  0  0  0
 26 33  1  0  0  0  0
 27 28  1  6  0  0  0
 27 34  1  0  0  0  0
 29  2  1  6  0  0  0
 29 36  1  0  0  0  0
 30 38  1  1  0  0  0
 31 32  1  1  0  0  0
 31 40  1  0  0  0  0
 33 42  2  0  0  0  0
 34 35  1  0  0  0  0
 34 43  1  1  0  0  0
 36 37  1  1  0  0  0
 36 45  1  0  0  0  0
 38 39  1  0  0  0  0
 40 41  1  0  0  0  0
 40 48  1  1  0  0  0
 43 44  1  0  0  0  0
 45 46  1  6  0  0  0
 47 50  1  0  0  0  0
 48 49  1  0  0  0  0
 50 51  1  0  0  0  0
 51 52  1  0  0  0  0
 52  8  1  0  0  0  0
M  END
>  <CHROM.1>
175.11632930,-175.37835342,-170.59883612,73.06441151,-83.99835819,124.52509310
-158.21890244,-64.85684659,70.08116100,124.38422050,-67.31777043,-157.38394827
-111.32700183,88.02861779,-101.80708004,42.89453363,4.76710472,-3.05326713
-0.40787747,-0.93077885,2.07207954

>  <Name>
2be0_lig

>  <RI>
2.75444e+07

>  <Rbt.Current_Directory>
/home/itssahil/PROJECTS/Mol_Feturizer/New_Systems/rnas/2be0

>  <Rbt.Executable>
rbdock ($Id: //depot/dev/client3/rdock/2013.1/src/exe/rbdock.cxx#4 $)

>  <Rbt.Library>
libRbt.so (2013.1, Build901 2013/11/27)

>  <Rbt.Parameter_File>
/export/apps/rDock/src/rDock_2013.1_src/data/scripts/dock_solv.prm

>  <Rbt.Receptor>
prm/pocket_docking_5.prm

>  <SCORE>
-24.2533

>  <SCORE.INTER>
-13.2937

>  <SCORE.INTER.CONST>
1

>  <SCORE.INTER.POLAR>
-0.633154

>  <SCORE.INTER.ROT>
15

>  <SCORE.INTER.SOLV>
14.5186

>  <SCORE.INTER.VDW>
-25.1915

>  <SCORE.INTER.norm>
-0.255649

>  <SCORE.INTRA>
-10.9985

>  <SCORE.INTRA.DIHEDRAL>
-22.5068

>  <SCORE.INTRA.DIHEDRAL.0>
47.8724

>  <SCORE.INTRA.POLAR>
0

>  <SCORE.INTRA.POLAR.0>
0

>  <SCORE.INTRA.REPUL>
0

>  <SCORE.INTRA.REPUL.0>
0

>  <SCORE.INTRA.SOLV>
-0.541526

>  <SCORE.INTRA.SOLV.lig_0>
-115.677

>  <SCORE.INTRA.VDW>
0.525633

>  <SCORE.INTRA.VDW.0>
-7.4833

>  <SCORE.INTRA.norm>
-0.21151

>  <SCORE.RESTR>
0.0390143

>  <SCORE.RESTR.CAVITY>
0.0390143

>  <SCORE.RESTR.norm>
0.000750276

>  <SCORE.SYSTEM>
0

>  <SCORE.SYSTEM.CONST>
0

>  <SCORE.SYSTEM.DIHEDRAL>
0

>  <SCORE.SYSTEM.SOLV>
0

>  <SCORE.SYSTEM.norm>
0

>  <SCORE.heavy>
52

>  <SCORE.norm>
-0.466409

>  <RMSD>
7.649

$$$$
2be0_lig
 OpenBabel11021811423D
libRbt.so/2013.1/901 2013/11/27
 52 56  0  0  0  0  0  0  0  0999 V2000
   45.5552    6.6809   -4.5303 C   0  0  2  0  0  0  0  0  0  0  0  0
   44.1521    6.5779   -4.4727 O   0  0  0  0  0  0  0  0  0  0  0  0
   43.5281    7.0761   -0.1444 C   0  0  2  0  0  0  0  0  0  0  0  0
   42.8242    7.1281    1.1675 N   0  0  0  0  0  0  0  0  0  0  0  0
   42.8533    3.8514   -3.2252 C   0  0  2  0  0  0  0  0  0  0  0  0
   42.0318    3.4581   -2.1068 O   0  0  0  0  0  0  0  0  0  0  0  0
   41.6276   -0.3311   -3.5653 C   0  0  1  0  0  0  0  0  0  0  0  0
   39.4548    6.7187   -1.9680 C   0  0  0  0  0  0  0  0  0  0  0  0
   46.0470    6.9959   -6.0016 C   0  0  2  0  0  0  0  0  0  0  0  0
   45.3667    8.1906   -6.5062 N   0  0  0  0  0  0  0  0  0  0  0  0
   42.8204    8.0865   -1.1576 C   0  0  0  0  0  0  0  0  0  0  0  0
   43.0168    2.6078   -4.1137 C   0  0  2  0  0  0  0  0  0  0  0  0
   41.7967    2.6332   -4.9785 O   0  0  0  0  0  0  0  0  0  0  0  0
   41.6963   -1.9324   -3.2960 C   0  0  2  0  0  0  0  0  0  0  0  0
   42.6617   -2.5418   -4.2668 N   0  0  0  0  0  0  0  0  0  0  0  0
   38.6493    7.8742   -1.7018 C   0  0  0  0  0  0  0  0  0  0  0  0
   38.2699    8.1747   -0.3673 N   0  0  0  0  0  0  0  0  0  0  0  0
   45.7945    5.7240   -6.9365 C   0  0  1  0  0  0  0  0  0  0  0  0
   46.2345    6.0293   -8.2508 O   0  0  0  0  0  0  0  0  0  0  0  0
   43.5554    8.0491   -2.6165 C   0  0  2  0  0  0  0  0  0  0  0  0
   42.9293    8.9558   -3.5369 N   0  0  0  0  0  0  0  0  0  0  0  0
   43.1491    1.5439   -3.0076 C   0  0  2  0  0  0  0  0  0  0  0  0
   42.9575    0.1895   -3.3893 O   0  0  0  0  0  0  0  0  0  0  0  0
   40.2639   -2.5130   -3.4967 C   0  0  1  0  0  0  0  0  0  0  0  0
   39.4118   -1.8611   -2.4886 O   0  0  0  0  0  0  0  0  0  0  0  0
   38.6519    7.3735    0.7464 C   0  0  0  0  0  0  0  0  0  0  0  0
   46.5600    4.5088   -6.3369 C   0  0  2  0  0  0  0  0  0  0  0  0
   46.3599    3.2930   -7.1621 O   0  0  0  0  0  0  0  0  0  0  0  0
   43.5077    6.5789   -3.2045 C   0  0  2  0  0  0  0  0  0  0  0  0
   42.1630    2.0337   -1.9205 C   0  0  1  0  0  0  0  0  0  0  0  0
   39.7406   -2.1945   -5.0036 C   0  0  2  0  0  0  0  0  0  0  0  0
   40.5879   -2.8427   -6.0167 O   0  0  0  0  0  0  0  0  0  0  0  0
   39.4489    6.2198    0.5451 C   0  0  0  0  0  0  0  0  0  0  0  0
   46.0570    4.2111   -4.8721 C   0  0  2  0  0  0  0  0  0  0  0  0
   46.2753    5.4352   -4.1179 O   0  0  0  0  0  0  0  0  0  0  0  0
   44.2036    5.6281   -2.1698 C   0  0  2  0  0  0  0  0  0  0  0  0
   44.1150    4.3558   -2.7995 O   0  0  0  0  0  0  0  0  0  0  0  0
   42.6995    1.8167   -0.5066 C   0  0  0  0  0  0  0  0  0  0  0  0
   41.9426    2.4032    0.5251 O   0  0  0  0  0  0  0  0  0  0  0  0
   39.7351   -0.6145   -5.2411 C   0  0  1  0  0  0  0  0  0  0  0  0
   41.1324   -0.0861   -4.9903 O   0  0  0  0  0  0  0  0  0  0  0  0
   39.8705    5.8623   -0.8292 C   0  0  0  0  0  0  0  0  0  0  0  0
   46.8289    3.0710   -4.3522 C   0  0  0  0  0  0  0  0  0  0  0  0
   48.1301    3.3861   -4.3299 O   0  0  0  0  0  0  0  0  0  0  0  0
   43.4470    5.6660   -0.7757 C   0  0  1  0  0  0  0  0  0  0  0  0
   44.0814    4.8270    0.1326 O   0  0  0  0  0  0  0  0  0  0  0  0
   40.3763    2.6987   -4.5608 C   0  0  0  0  0  0  0  0  0  0  0  0
   39.2397   -0.3725   -6.6929 C   0  0  0  0  0  0  0  0  0  0  0  0
   39.7932    0.8496   -7.2208 N   0  0  0  0  0  0  0  0  0  0  0  0
   39.9163    4.1485   -4.7444 C   0  0  0  0  0  0  0  0  0  0  0  0
   40.5117    5.0013   -3.6650 N   0  0  0  0  0  0  0  0  0  0  0  0
   39.8703    6.4039   -3.4874 C   0  0  0  0  0  0  0  0  0  0  0  0
  1  2  1  6  0  0  0
  1  9  1  0  0  0  0
  1 35  1  0  0  0  0
  3  4  1  1  0  0  0
  3 11  1  0  0  0  0
  3 45  1  0  0  0  0
  5  6  1  0  0  0  0
  5 12  1  0  0  0  0
  5 37  1  1  0  0  0
  6 30  1  0  0  0  0
  7 14  1  0  0  0  0
  7 41  1  0  0  0  0
  7 23  1  6  0  0  0
  8 16  2  0  0  0  0
  8 42  1  0  0  0  0
  9 10  1  6  0  0  0
  9 18  1  0  0  0  0
 11 20  1  0  0  0  0
 12 13  1  6  0  0  0
 12 22  1  0  0  0  0
 13 47  1  0  0  0  0
 14 15  1  6  0  0  0
 14 24  1  0  0  0  0
 16 17  1  0  0  0  0
 17 26  2  0  0  0  0
 18 19  1  6  0  0  0
 18 27  1  0  0  0  0
 20 21  1  6  0  0  0
 20 29  1  0  0  0  0
 22 23  1  6  0  0  0
 22 30  1  0  0  0  0
 24 25  1  1  0  0  0
 24 31  1  0  0  0  0
 26 33  1  0  0  0  0
 27 28  1  6  0  0  0
 27 34  1  0  0  0  0
 29  2  1  6  0  0  0
 29 36  1  0  0  0  0
 30 38  1  1  0  0  0
 31 32  1  6  0  0  0
 31 40  1  0  0  0  0
 33 42  2  0  0  0  0
 34 35  1  0  0  0  0
 34 43  1  1  0  0  0
 36 37  1  6  0  0  0
 36 45  1  0  0  0  0
 38 39  1  0  0  0  0
 40 41  1  0  0  0  0
 40 48  1  6  0  0  0
 43 44  1  0  0  0  0
 45 46  1  1  0  0  0
 47 50  1  0  0  0  0
 48 49  1  0  0  0  0
 50 51  1  0  0  0  0
 51 52  1  0  0  0  0
 52  8  1  0  0  0  0
M  END
>  <CHROM.1>
-166.90975580,-71.82571496,-153.71074963,-54.28924803,101.30444069,-79.10544921
73.30828003,55.32392024,60.54482009,-54.57129730,-151.71830558,-73.81971918
-165.01054995,128.85351002,-169.42834829,42.58090580,3.73439700,-3.45450712
-1.21033073,-0.62465588,-2.70328920

>  <Name>
2be0_lig

>  <RI>
2.10017e+07

>  <Rbt.Current_Directory>
/home/itssahil/PROJECTS/Mol_Feturizer/New_Systems/rnas/2be0

>  <Rbt.Executable>
rbdock ($Id: //depot/dev/client3/rdock/2013.1/src/exe/rbdock.cxx#4 $)

>  <Rbt.Library>
libRbt.so (2013.1, Build901 2013/11/27)

>  <Rbt.Parameter_File>
/export/apps/rDock/src/rDock_2013.1_src/data/scripts/dock_solv.prm

>  <Rbt.Receptor>
prm/pocket_docking_3.prm

>  <SCORE>
-12.3259

>  <SCORE.INTER>
-0.201001

>  <SCORE.INTER.CONST>
1

>  <SCORE.INTER.POLAR>
-0.987582

>  <SCORE.INTER.ROT>
15

>  <SCORE.INTER.SOLV>
16.8593

>  <SCORE.INTER.VDW>
-16.0618

>  <SCORE.INTER.norm>
-0.00386541

>  <SCORE.INTRA>
-12.1956

>  <SCORE.INTRA.DIHEDRAL>
-29.412

>  <SCORE.INTRA.DIHEDRAL.0>
47.8724

>  <SCORE.INTRA.POLAR>
0

>  <SCORE.INTRA.POLAR.0>
0

>  <SCORE.INTRA.REPUL>
0

>  <SCORE.INTRA.REPUL.0>
0

>  <SCORE.INTRA.SOLV>
5.72355

>  <SCORE.INTRA.SOLV.lig_0>
-115.677

>  <SCORE.INTRA.VDW>
-0.351438

>  <SCORE.INTRA.VDW.0>
-7.4833

>  <SCORE.INTRA.norm>
-0.234532

>  <SCORE.RESTR>
0.0707351

>  <SCORE.RESTR.CAVITY>
0.0707351

>  <SCORE.RESTR.norm>
0.00136029

>  <SCORE.SYSTEM>
0

>  <SCORE.SYSTEM.CONST>
0

>  <SCORE.SYSTEM.DIHEDRAL>
0

>  <SCORE.SYSTEM.SOLV>
0

>  <SCORE.SYSTEM.norm>
0

>  <SCORE.heavy>
52

>  <SCORE.norm>
-0.237037

>  <RMSD>
7.693

$$$$
2be0_lig
 OpenBabel11021811423D
libRbt.so/2013.1/901 2013/11/27
 52 56  0  0  0  0  0  0  0  0999 V2000
   43.1418    2.1002   -5.6136 C   0  0  2  0  0  0  0  0  0  0  0  0
   43.1195    3.4729   -5.9267 O   0  0  0  0  0  0  0  0  0  0  0  0
   47.0779    3.8524   -7.8131 C   0  0  2  0  0  0  0  0  0  0  0  0
   48.2411    4.4767   -8.5034 N   0  0  0  0  0  0  0  0  0  0  0  0
   44.9285    5.8167   -4.3992 C   0  0  2  0  0  0  0  0  0  0  0  0
   45.1809    6.3702   -3.0914 O   0  0  0  0  0  0  0  0  0  0  0  0
   40.9668    5.9562   -1.7171 C   0  0  1  0  0  0  0  0  0  0  0  0
   46.8201   10.1867   -8.7500 C   0  0  0  0  0  0  0  0  0  0  0  0
   41.7159    1.5956   -5.1465 C   0  0  2  0  0  0  0  0  0  0  0  0
   40.7144    1.9327   -6.1604 N   0  0  0  0  0  0  0  0  0  0  0  0
   45.7666    4.0712   -8.6968 C   0  0  0  0  0  0  0  0  0  0  0  0
   43.4342    6.0293   -4.6893 C   0  0  2  0  0  0  0  0  0  0  0  0
   43.3802    7.4163   -5.2467 O   0  0  0  0  0  0  0  0  0  0  0  0
   39.4009    6.3799   -1.8165 C   0  0  2  0  0  0  0  0  0  0  0  0
   39.3180    7.8231   -2.2116 N   0  0  0  0  0  0  0  0  0  0  0  0
   45.6224   10.9189   -8.4595 C   0  0  0  0  0  0  0  0  0  0  0  0
   45.5476   12.3001   -8.7786 N   0  0  0  0  0  0  0  0  0  0  0  0
   41.3618    2.2291   -3.7220 C   0  0  1  0  0  0  0  0  0  0  0  0
   40.0785    1.7709   -3.3254 O   0  0  0  0  0  0  0  0  0  0  0  0
   44.4624    3.4119   -7.9660 C   0  0  2  0  0  0  0  0  0  0  0  0
   43.2760    3.6000   -8.7524 N   0  0  0  0  0  0  0  0  0  0  0  0
   42.8784    5.7484   -3.2804 C   0  0  2  0  0  0  0  0  0  0  0  0
   41.5553    6.1874   -3.0097 O   0  0  0  0  0  0  0  0  0  0  0  0
   38.7529    6.1474   -0.4183 C   0  0  1  0  0  0  0  0  0  0  0  0
   38.8761    4.7064   -0.1433 O   0  0  0  0  0  0  0  0  0  0  0  0
   46.6205   13.0154   -9.3829 C   0  0  0  0  0  0  0  0  0  0  0  0
   42.4652    1.8123   -2.7066 C   0  0  2  0  0  0  0  0  0  0  0  0
   42.1924    2.3757   -1.3622 O   0  0  0  0  0  0  0  0  0  0  0  0
   44.2605    4.0641   -6.5366 C   0  0  2  0  0  0  0  0  0  0  0  0
   43.9463    6.3642   -2.3454 C   0  0  1  0  0  0  0  0  0  0  0  0
   39.5278    7.0293    0.7076 C   0  0  2  0  0  0  0  0  0  0  0  0
   39.4092    8.4708    0.4389 O   0  0  0  0  0  0  0  0  0  0  0  0
   47.8288   12.3444   -9.6942 C   0  0  0  0  0  0  0  0  0  0  0  0
   43.8772    2.3232   -3.1891 C   0  0  2  0  0  0  0  0  0  0  0  0
   44.0834    1.7427   -4.5065 O   0  0  0  0  0  0  0  0  0  0  0  0
   45.5762    3.8313   -5.7156 C   0  0  2  0  0  0  0  0  0  0  0  0
   45.2797    4.4383   -4.4638 O   0  0  0  0  0  0  0  0  0  0  0  0
   44.1847    5.5181   -1.0959 C   0  0  0  0  0  0  0  0  0  0  0  0
   44.6747    6.2161    0.0239 O   0  0  0  0  0  0  0  0  0  0  0  0
   41.0707    6.6151    0.7375 C   0  0  1  0  0  0  0  0  0  0  0  0
   41.6478    6.8114   -0.6492 O   0  0  0  0  0  0  0  0  0  0  0  0
   47.9574   10.9025   -9.3802 C   0  0  0  0  0  0  0  0  0  0  0  0
   44.8780    1.8823   -2.2043 C   0  0  0  0  0  0  0  0  0  0  0  0
   45.0101    0.5514   -2.2676 O   0  0  0  0  0  0  0  0  0  0  0  0
   46.8155    4.5098   -6.4375 C   0  0  1  0  0  0  0  0  0  0  0  0
   47.9743    4.2859   -5.7036 O   0  0  0  0  0  0  0  0  0  0  0  0
   43.6585    7.8604   -6.6329 C   0  0  0  0  0  0  0  0  0  0  0  0
   41.7585    7.4934    1.8178 C   0  0  0  0  0  0  0  0  0  0  0  0
   41.3739    7.0655    3.1399 N   0  0  0  0  0  0  0  0  0  0  0  0
   45.0814    7.4081   -6.9766 C   0  0  0  0  0  0  0  0  0  0  0  0
   45.4727    7.9642   -8.3124 N   0  0  0  0  0  0  0  0  0  0  0  0
   46.8760    8.6247   -8.3794 C   0  0  0  0  0  0  0  0  0  0  0  0
  1  2  1  1  0  0  0
  1  9  1  0  0  0  0
  1 35  1  0  0  0  0
  3  4  1  6  0  0  0
  3 11  1  0  0  0  0
  3 45  1  0  0  0  0
  5  6  1  0  0  0  0
  5 12  1  0  0  0  0
  5 37  1  1  0  0  0
  6 30  1  0  0  0  0
  7 14  1  0  0  0  0
  7 41  1  0  0  0  0
  7 23  1  6  0  0  0
  8 16  2  0  0  0  0
  8 42  1  0  0  0  0
  9 10  1  6  0  0  0
  9 18  1  0  0  0  0
 11 20  1  0  0  0  0
 12 13  1  1  0  0  0
 12 22  1  0  0  0  0
 13 47  1  0  0  0  0
 14 15  1  1  0  0  0
 14 24  1  0  0  0  0
 16 17  1  0  0  0  0
 17 26  2  0  0  0  0
 18 19  1  1  0  0  0
 18 27  1  0  0  0  0
 20 21  1  6  0  0  0
 20 29  1  0  0  0  0
 22 23  1  6  0  0  0
 22 30  1  0  0  0  0
 24 25  1  1  0  0  0
 24 31  1  0  0  0  0
 26 33  1  0  0  0  0
 27 28  1  1  0  0  0
 27 34  1  0  0  0  0
 29  2  1  1  0  0  0
 29 36  1  0  0  0  0
 30 38  1  1  0  0  0
 31 32  1  6  0  0  0
 31 40  1  0  0  0  0
 33 42  2  0  0  0  0
 34 35  1  0  0  0  0
 34 43  1  1  0  0  0
 36 37  1  1  0  0  0
 36 45  1  0  0  0  0
 38 39  1  0  0  0  0
 40 41  1  0  0  0  0
 40 48  1  1  0  0  0
 43 44  1  0  0  0  0
 45 46  1  1  0  0  0
 47 50  1  0  0  0  0
 48 49  1  0  0  0  0
 50 51  1  0  0  0  0
 51 52  1  0  0  0  0
 52  8  1  0  0  0  0
M  END
>  <CHROM.1>
-171.55247841,-157.05476709,-171.91314039,81.76041252,-57.12646296,179.78246869
64.38637300,89.06189428,69.00561905,-58.55460514,72.63729982,-173.69402701
132.98213355,-117.87216107,24.53827168,43.60532902,5.63721929,-4.31510181
-2.81246783,0.96078053,0.02449323

>  <Name>
2be0_lig

>  <RI>
2.10017e+07

>  <Rbt.Current_Directory>
/home/itssahil/PROJECTS/Mol_Feturizer/New_Systems/rnas/2be0

>  <Rbt.Executable>
rbdock ($Id: //depot/dev/client3/rdock/2013.1/src/exe/rbdock.cxx#4 $)

>  <Rbt.Library>
libRbt.so (2013.1, Build901 2013/11/27)

>  <Rbt.Parameter_File>
/export/apps/rDock/src/rDock_2013.1_src/data/scripts/dock_solv.prm

>  <Rbt.Receptor>
prm/pocket_docking_3.prm

>  <SCORE>
-22.303

>  <SCORE.INTER>
-5.18406

>  <SCORE.INTER.CONST>
1

>  <SCORE.INTER.POLAR>
-0.687578

>  <SCORE.INTER.ROT>
15

>  <SCORE.INTER.SOLV>
13.8688

>  <SCORE.INTER.VDW>
-19.3871

>  <SCORE.INTER.norm>
-0.0996935

>  <SCORE.INTRA>
-17.1788

>  <SCORE.INTRA.DIHEDRAL>
-35.9547

>  <SCORE.INTRA.DIHEDRAL.0>
47.8724

>  <SCORE.INTRA.POLAR>
0

>  <SCORE.INTRA.POLAR.0>
0

>  <SCORE.INTRA.REPUL>
0.00591391

>  <SCORE.INTRA.REPUL.0>
0

>  <SCORE.INTRA.SOLV>
-0.900425

>  <SCORE.INTRA.SOLV.lig_0>
-115.677

>  <SCORE.INTRA.VDW>
1.2192

>  <SCORE.INTRA.VDW.0>
-7.4833

>  <SCORE.INTRA.norm>
-0.330361

>  <SCORE.RESTR>
0.0597999

>  <SCORE.RESTR.CAVITY>
0.0597999

>  <SCORE.RESTR.norm>
0.00115

>  <SCORE.SYSTEM>
0

>  <SCORE.SYSTEM.CONST>
0

>  <SCORE.SYSTEM.DIHEDRAL>
0

>  <SCORE.SYSTEM.SOLV>
0

>  <SCORE.SYSTEM.norm>
0

>  <SCORE.heavy>
52

>  <SCORE.norm>
-0.428905

>  <RMSD>
7.720

$$$$
2be0_lig
 OpenBabel11021811423D
libRbt.so/2013.1/901 2013/11/27
 52 56  0  0  0  0  0  0  0  0999 V2000
   46.2654    8.9174  -10.1853 C   0  0  2  0  0  0  0  0  0  0  0  0
   45.8498    8.6407   -8.8687 O   0  0  0  0  0  0  0  0  0  0  0  0
   45.3600    4.2702   -9.0429 C   0  0  2  0  0  0  0  0  0  0  0  0
   45.3135    2.8516   -8.5902 N   0  0  0  0  0  0  0  0  0  0  0  0
   43.5922    7.7341   -6.7346 C   0  0  2  0  0  0  0  0  0  0  0  0
   44.4669    8.8562   -6.4979 O   0  0  0  0  0  0  0  0  0  0  0  0
   47.8152    5.5473   -6.0951 C   0  0  1  0  0  0  0  0  0  0  0  0
   42.9520    7.2047    1.2815 C   0  0  0  0  0  0  0  0  0  0  0  0
   47.0747   10.2760  -10.2574 C   0  0  2  0  0  0  0  0  0  0  0  0
   48.1859   10.2419   -9.3042 N   0  0  0  0  0  0  0  0  0  0  0  0
   46.7925    4.8830   -8.6955 C   0  0  0  0  0  0  0  0  0  0  0  0
   44.2073    6.5307   -6.0025 C   0  0  2  0  0  0  0  0  0  0  0  0
   43.6849    6.6660   -4.6075 O   0  0  0  0  0  0  0  0  0  0  0  0
   48.1714    4.2033   -5.2536 C   0  0  2  0  0  0  0  0  0  0  0  0
   48.4193    4.5825   -3.8251 N   0  0  0  0  0  0  0  0  0  0  0  0
   43.0234    6.1229    2.2194 C   0  0  0  0  0  0  0  0  0  0  0  0
   41.9774    5.9385    3.1612 N   0  0  0  0  0  0  0  0  0  0  0  0
   46.0886   11.5040   -9.9829 C   0  0  1  0  0  0  0  0  0  0  0  0
   46.8341   12.7101  -10.0444 O   0  0  0  0  0  0  0  0  0  0  0  0
   46.8799    6.4459   -9.1643 C   0  0  2  0  0  0  0  0  0  0  0  0
   48.1651    7.0085   -8.8593 N   0  0  0  0  0  0  0  0  0  0  0  0
   45.6934    6.8121   -6.2940 C   0  0  2  0  0  0  0  0  0  0  0  0
   46.6479    6.1332   -5.4912 O   0  0  0  0  0  0  0  0  0  0  0  0
   49.4432    3.5644   -5.8886 C   0  0  1  0  0  0  0  0  0  0  0  0
   49.0816    3.2197   -7.2735 O   0  0  0  0  0  0  0  0  0  0  0  0
   40.8366    6.7882    3.2291 C   0  0  0  0  0  0  0  0  0  0  0  0
   44.9503   11.4718  -11.0438 C   0  0  2  0  0  0  0  0  0  0  0  0
   43.9977   12.5894  -10.8373 O   0  0  0  0  0  0  0  0  0  0  0  0
   45.7477    7.2872   -8.4433 C   0  0  2  0  0  0  0  0  0  0  0  0
   45.7883    8.3543   -6.2105 C   0  0  1  0  0  0  0  0  0  0  0  0
   50.6768    4.6240   -5.8495 C   0  0  2  0  0  0  0  0  0  0  0  0
   51.0435    4.9734   -4.4683 O   0  0  0  0  0  0  0  0  0  0  0  0
   40.7105    7.8733    2.3271 C   0  0  0  0  0  0  0  0  0  0  0  0
   44.1566   10.1117  -10.9567 C   0  0  2  0  0  0  0  0  0  0  0  0
   45.1406    9.0608  -11.1623 O   0  0  0  0  0  0  0  0  0  0  0  0
   44.3668    6.6394   -8.8073 C   0  0  2  0  0  0  0  0  0  0  0  0
   43.4369    7.4725   -8.1257 O   0  0  0  0  0  0  0  0  0  0  0  0
   46.7262    8.9384   -7.2657 C   0  0  0  0  0  0  0  0  0  0  0  0
   46.5606   10.3110   -7.5300 O   0  0  0  0  0  0  0  0  0  0  0  0
   50.2662    5.9469   -6.6458 C   0  0  1  0  0  0  0  0  0  0  0  0
   49.0023    6.5074   -6.0268 O   0  0  0  0  0  0  0  0  0  0  0  0
   41.7759    8.1090    1.3252 C   0  0  0  0  0  0  0  0  0  0  0  0
   43.1120   10.1309  -11.9933 C   0  0  0  0  0  0  0  0  0  0  0  0
   43.6400   10.5473  -13.1511 O   0  0  0  0  0  0  0  0  0  0  0  0
   44.3052    5.1336   -8.3112 C   0  0  1  0  0  0  0  0  0  0  0  0
   43.0804    4.5710   -8.6501 O   0  0  0  0  0  0  0  0  0  0  0  0
   44.2332    6.0813   -3.3609 C   0  0  0  0  0  0  0  0  0  0  0  0
   51.4725    6.9215   -6.5653 C   0  0  0  0  0  0  0  0  0  0  0  0
   52.6470    6.3245   -7.1509 N   0  0  0  0  0  0  0  0  0  0  0  0
   43.5020    6.7448   -2.1894 C   0  0  0  0  0  0  0  0  0  0  0  0
   44.1374    6.3201   -0.8999 N   0  0  0  0  0  0  0  0  0  0  0  0
   44.1491    7.3885    0.2263 C   0  0  0  0  0  0  0  0  0  0  0  0
  1  2  1  1  0  0  0
  1  9  1  0  0  0  0
  1 35  1  0  0  0  0
  3  4  1  1  0  0  0
  3 11  1  0  0  0  0
  3 45  1  0  0  0  0
  5  6  1  0  0  0  0
  5 12  1  0  0  0  0
  5 37  1  6  0  0  0
  6 30  1  0  0  0  0
  7 14  1  0  0  0  0
  7 41  1  0  0  0  0
  7 23  1  1  0  0  0
  8 16  2  0  0  0  0
  8 42  1  0  0  0  0
  9 10  1  1  0  0  0
  9 18  1  0  0  0  0
 11 20  1  0  0  0  0
 12 13  1  1  0  0  0
 12 22  1  0  0  0  0
 13 47  1  0  0  0  0
 14 15  1  1  0  0  0
 14 24  1  0  0  0  0
 16 17  1  0  0  0  0
 17 26  2  0  0  0  0
 18 19  1  6  0  0  0
 18 27  1  0  0  0  0
 20 21  1  1  0  0  0
 20 29  1  0  0  0  0
 22 23  1  1  0  0  0
 22 30  1  0  0  0  0
 24 25  1  6  0  0  0
 24 31  1  0  0  0  0
 26 33  1  0  0  0  0
 27 28  1  1  0  0  0
 27 34  1  0  0  0  0
 29  2  1  6  0  0  0
 29 36  1  0  0  0  0
 30 38  1  6  0  0  0
 31 32  1  1  0  0  0
 31 40  1  0  0  0  0
 33 42  2  0  0  0  0
 34 35  1  0  0  0  0
 34 43  1  6  0  0  0
 36 37  1  1  0  0  0
 36 45  1  0  0  0  0
 38 39  1  0  0  0  0
 40 41  1  0  0  0  0
 40 48  1  1  0  0  0
 43 44  1  0  0  0  0
 45 46  1  6  0  0  0
 47 50  1  0  0  0  0
 48 49  1  0  0  0  0
 50 51  1  0  0  0  0
 51 52  1  0  0  0  0
 52  8  1  0  0  0  0
M  END
>  <CHROM.1>
-148.03009241,86.53221022,-146.21471767,-159.05648637,168.88578680,136.57235052
33.86592008,45.04621739,46.58475567,-52.63136414,59.56003692,-172.82708322
146.04106727,97.76534544,73.28865468,45.81666523,7.30360021,-6.41483713,1.26681409
0.56672370,-1.15363947

>  <Name>
2be0_lig

>  <RI>
224

>  <Rbt.Current_Directory>
/home/itssahil/PROJECTS/Mol_Feturizer/New_Systems/rnas/2be0

>  <Rbt.Executable>
rbdock ($Id: //depot/dev/client3/rdock/2013.1/src/exe/rbdock.cxx#4 $)

>  <Rbt.Library>
libRbt.so (2013.1, Build901 2013/11/27)

>  <Rbt.Parameter_File>
/export/apps/rDock/src/rDock_2013.1_src/data/scripts/dock_solv.prm

>  <Rbt.Receptor>
prm/blind_docking_100.prm

>  <SCORE>
139.844

>  <SCORE.INTER>
72.5144

>  <SCORE.INTER.CONST>
1

>  <SCORE.INTER.POLAR>
-0.779098

>  <SCORE.INTER.ROT>
15

>  <SCORE.INTER.SOLV>
34.0858

>  <SCORE.INTER.VDW>
25.978

>  <SCORE.INTER.norm>
1.39451

>  <SCORE.INTRA>
58.6006

>  <SCORE.INTRA.DIHEDRAL>
-20.9261

>  <SCORE.INTRA.DIHEDRAL.0>
47.8724

>  <SCORE.INTRA.POLAR>
0

>  <SCORE.INTRA.POLAR.0>
0

>  <SCORE.INTRA.REPUL>
0

>  <SCORE.INTRA.REPUL.0>
0

>  <SCORE.INTRA.SOLV>
9.68337

>  <SCORE.INTRA.SOLV.lig_0>
-115.677

>  <SCORE.INTRA.VDW>
64.222

>  <SCORE.INTRA.VDW.0>
-7.4833

>  <SCORE.INTRA.norm>
1.12694

>  <SCORE.RESTR>
8.72853

>  <SCORE.RESTR.CAVITY>
8.72853

>  <SCORE.RESTR.norm>
0.167856

>  <SCORE.SYSTEM>
0

>  <SCORE.SYSTEM.CONST>
0

>  <SCORE.SYSTEM.DIHEDRAL>
0

>  <SCORE.SYSTEM.SOLV>
0

>  <SCORE.SYSTEM.norm>
0

>  <SCORE.heavy>
52

>  <SCORE.norm>
2.6893

>  <RMSD>
7.741

$$$$
2be0_lig
 OpenBabel11021811423D
libRbt.so/2013.1/901 2013/11/27
 52 56  0  0  0  0  0  0  0  0999 V2000
   44.3980    4.5467   -4.5080 C   0  0  2  0  0  0  0  0  0  0  0  0
   44.5958    4.9726   -3.1804 O   0  0  0  0  0  0  0  0  0  0  0  0
   41.8621    4.2794    0.1985 C   0  0  2  0  0  0  0  0  0  0  0  0
   40.7093    4.4690    1.1230 N   0  0  0  0  0  0  0  0  0  0  0  0
   41.2890    2.5353   -3.8685 C   0  0  2  0  0  0  0  0  0  0  0  0
   41.9048    1.2311   -3.8835 O   0  0  0  0  0  0  0  0  0  0  0  0
   40.2728    0.9146   -7.7059 C   0  0  1  0  0  0  0  0  0  0  0  0
   36.2107   -0.7208   -2.4980 C   0  0  0  0  0  0  0  0  0  0  0  0
   45.6451    4.9019   -5.4158 C   0  0  2  0  0  0  0  0  0  0  0  0
   46.8650    4.3554   -4.8178 N   0  0  0  0  0  0  0  0  0  0  0  0
   42.7204    5.6245    0.1507 C   0  0  0  0  0  0  0  0  0  0  0  0
   40.6640    2.7461   -5.2568 C   0  0  2  0  0  0  0  0  0  0  0  0
   39.3236    2.0926   -5.1396 O   0  0  0  0  0  0  0  0  0  0  0  0
   40.4900    0.2304   -9.1640 C   0  0  2  0  0  0  0  0  0  0  0  0
   40.6332    1.3157  -10.1874 N   0  0  0  0  0  0  0  0  0  0  0  0
   35.7683   -1.4793   -3.6310 C   0  0  0  0  0  0  0  0  0  0  0  0
   34.5067   -1.1968   -4.2173 N   0  0  0  0  0  0  0  0  0  0  0  0
   45.7330    6.4861   -5.6122 C   0  0  1  0  0  0  0  0  0  0  0  0
   46.8603    6.7836   -6.4214 O   0  0  0  0  0  0  0  0  0  0  0  0
   43.9895    5.4626   -0.8657 C   0  0  2  0  0  0  0  0  0  0  0  0
   44.7714    6.6657   -0.9160 N   0  0  0  0  0  0  0  0  0  0  0  0
   41.7636    2.0891   -6.1124 C   0  0  2  0  0  0  0  0  0  0  0  0
   41.4216    1.7412   -7.4460 O   0  0  0  0  0  0  0  0  0  0  0  0
   39.2457   -0.6583   -9.4654 C   0  0  1  0  0  0  0  0  0  0  0  0
   39.2144   -1.6903   -8.4159 O   0  0  0  0  0  0  0  0  0  0  0  0
   33.6358   -0.1805   -3.7307 C   0  0  0  0  0  0  0  0  0  0  0  0
   44.4073    6.9789   -6.2617 C   0  0  2  0  0  0  0  0  0  0  0  0
   44.4278    8.4476   -6.4659 O   0  0  0  0  0  0  0  0  0  0  0  0
   43.4713    5.1053   -2.3194 C   0  0  2  0  0  0  0  0  0  0  0  0
   42.2190    0.8886   -5.2490 C   0  0  1  0  0  0  0  0  0  0  0  0
   37.8952    0.2480   -9.4391 C   0  0  2  0  0  0  0  0  0  0  0  0
   37.9197    1.2820  -10.4854 O   0  0  0  0  0  0  0  0  0  0  0  0
   34.0198    0.6025   -2.6143 C   0  0  0  0  0  0  0  0  0  0  0  0
   43.1775    6.6157   -5.3436 C   0  0  2  0  0  0  0  0  0  0  0  0
   43.2146    5.1713   -5.1786 O   0  0  0  0  0  0  0  0  0  0  0  0
   42.6283    3.7871   -2.2151 C   0  0  2  0  0  0  0  0  0  0  0  0
   42.2308    3.5582   -3.5615 O   0  0  0  0  0  0  0  0  0  0  0  0
   43.7284    0.6620   -5.3157 C   0  0  0  0  0  0  0  0  0  0  0  0
   44.2192    0.2129   -6.5561 O   0  0  0  0  0  0  0  0  0  0  0  0
   37.7471    0.9391   -8.0062 C   0  0  1  0  0  0  0  0  0  0  0  0
   38.9953    1.7530   -7.7340 O   0  0  0  0  0  0  0  0  0  0  0  0
   35.3269    0.3463   -1.9659 C   0  0  0  0  0  0  0  0  0  0  0  0
   41.9562    7.0855   -6.0173 C   0  0  0  0  0  0  0  0  0  0  0  0
   40.8913    6.8092   -5.2542 O   0  0  0  0  0  0  0  0  0  0  0  0
   41.3888    3.9891   -1.2454 C   0  0  1  0  0  0  0  0  0  0  0  0
   40.6583    2.8102   -1.1556 O   0  0  0  0  0  0  0  0  0  0  0  0
   39.0151    0.6876   -4.7831 C   0  0  0  0  0  0  0  0  0  0  0  0
   36.4526    1.7962   -8.0440 C   0  0  0  0  0  0  0  0  0  0  0  0
   35.2956    0.9592   -8.2433 N   0  0  0  0  0  0  0  0  0  0  0  0
   39.0534    0.5890   -3.2546 C   0  0  0  0  0  0  0  0  0  0  0  0
   38.8216   -0.8327   -2.8405 N   0  0  0  0  0  0  0  0  0  0  0  0
   37.6432   -1.0613   -1.8559 C   0  0  0  0  0  0  0  0  0  0  0  0
  1  2  1  1  0  0  0
  1  9  1  0  0  0  0
  1 35  1  0  0  0  0
  3  4  1  1  0  0  0
  3 11  1  0  0  0  0
  3 45  1  0  0  0  0
  5  6  1  0  0  0  0
  5 12  1  0  0  0  0
  5 37  1  6  0  0  0
  6 30  1  0  0  0  0
  7 14  1  0  0  0  0
  7 41  1  0  0  0  0
  7 23  1  6  0  0  0
  8 16  2  0  0  0  0
  8 42  1  0  0  0  0
  9 10  1  1  0  0  0
  9 18  1  0  0  0  0
 11 20  1  0  0  0  0
 12 13  1  1  0  0  0
 12 22  1  0  0  0  0
 13 47  1  0  0  0  0
 14 15  1  6  0  0  0
 14 24  1  0  0  0  0
 16 17  1  0  0  0  0
 17 26  2  0  0  0  0
 18 19  1  6  0  0  0
 18 27  1  0  0  0  0
 20 21  1  6  0  0  0
 20 29  1  0  0  0  0
 22 23  1  6  0  0  0
 22 30  1  0  0  0  0
 24 25  1  1  0  0  0
 24 31  1  0  0  0  0
 26 33  1  0  0  0  0
 27 28  1  1  0  0  0
 27 34  1  0  0  0  0
 29  2  1  6  0  0  0
 29 36  1  0  0  0  0
 30 38  1  1  0  0  0
 31 32  1  6  0  0  0
 31 40  1  0  0  0  0
 33 42  2  0  0  0  0
 34 35  1  0  0  0  0
 34 43  1  6  0  0  0
 36 37  1  6  0  0  0
 36 45  1  0  0  0  0
 38 39  1  0  0  0  0
 40 41  1  0  0  0  0
 40 48  1  6  0  0  0
 43 44  1  0  0  0  0
 45 46  1  1  0  0  0
 47 50  1  0  0  0  0
 48 49  1  0  0  0  0
 50 51  1  0  0  0  0
 51 52  1  0  0  0  0
 52  8  1  0  0  0  0
M  END
>  <CHROM.1>
161.66357743,-79.20368217,-157.77893251,-57.73353807,82.38170187,-53.98324167
174.78202836,175.23384938,-179.13506835,-171.63598505,63.14262852,-176.91014217
-124.31073810,65.56949455,62.16844089,40.84843836,2.66422699,-4.89768856
-0.32460755,-0.61941273,-1.76428529

>  <Name>
2be0_lig

>  <RI>
0

>  <Rbt.Current_Directory>
/home/itssahil/PROJECTS/Mol_Feturizer/New_Systems/rnas/2be0

>  <Rbt.Executable>
rbdock ($Id: //depot/dev/client3/rdock/2013.1/src/exe/rbdock.cxx#4 $)

>  <Rbt.Library>
libRbt.so (2013.1, Build901 2013/11/27)

>  <Rbt.Parameter_File>
/export/apps/rDock/src/rDock_2013.1_src/data/scripts/dock_solv.prm

>  <Rbt.Receptor>
prm/pocket_docking_7.prm

>  <SCORE>
-20.4359

>  <SCORE.INTER>
-3.40107

>  <SCORE.INTER.CONST>
1

>  <SCORE.INTER.POLAR>
-1.82306

>  <SCORE.INTER.ROT>
15

>  <SCORE.INTER.SOLV>
14.6824

>  <SCORE.INTER.VDW>
-14.6847

>  <SCORE.INTER.norm>
-0.0654053

>  <SCORE.INTRA>
-17.0348

>  <SCORE.INTRA.DIHEDRAL>
-37.0535

>  <SCORE.INTRA.DIHEDRAL.0>
47.8724

>  <SCORE.INTRA.POLAR>
0

>  <SCORE.INTRA.POLAR.0>
0

>  <SCORE.INTRA.REPUL>
0

>  <SCORE.INTRA.REPUL.0>
0

>  <SCORE.INTRA.SOLV>
-2.97651

>  <SCORE.INTRA.SOLV.lig_0>
-115.677

>  <SCORE.INTRA.VDW>
2.9802

>  <SCORE.INTRA.VDW.0>
-7.4833

>  <SCORE.INTRA.norm>
-0.327593

>  <SCORE.RESTR>
0

>  <SCORE.RESTR.CAVITY>
0

>  <SCORE.RESTR.norm>
0

>  <SCORE.SYSTEM>
0

>  <SCORE.SYSTEM.CONST>
0

>  <SCORE.SYSTEM.DIHEDRAL>
0

>  <SCORE.SYSTEM.SOLV>
0

>  <SCORE.SYSTEM.norm>
0

>  <SCORE.heavy>
52

>  <SCORE.norm>
-0.392998

>  <RMSD>
7.747

$$$$
2be0_lig
 OpenBabel11021811423D
libRbt.so/2013.1/901 2013/11/27
 52 56  0  0  0  0  0  0  0  0999 V2000
   40.6510    5.1709   -2.7542 C   0  0  2  0  0  0  0  0  0  0  0  0
   40.7787    3.8185   -3.1250 O   0  0  0  0  0  0  0  0  0  0  0  0
   41.0813    1.9610    0.8536 C   0  0  2  0  0  0  0  0  0  0  0  0
   41.0426    0.9124    1.9112 N   0  0  0  0  0  0  0  0  0  0  0  0
   42.9341    1.3188   -3.1946 C   0  0  2  0  0  0  0  0  0  0  0  0
   43.5555    0.1590   -2.6039 O   0  0  0  0  0  0  0  0  0  0  0  0
   46.4647    1.8868   -6.0910 C   0  0  1  0  0  0  0  0  0  0  0  0
   39.1802   -2.3105   -7.3952 C   0  0  0  0  0  0  0  0  0  0  0  0
   39.6258    5.9283   -3.6928 C   0  0  2  0  0  0  0  0  0  0  0  0
   38.3457    5.2172   -3.7041 N   0  0  0  0  0  0  0  0  0  0  0  0
   39.6624    2.0206    0.1246 C   0  0  0  0  0  0  0  0  0  0  0  0
   43.5769    1.5098   -4.5776 C   0  0  2  0  0  0  0  0  0  0  0  0
   42.7762    0.6084   -5.4628 O   0  0  0  0  0  0  0  0  0  0  0  0
   47.4331    1.1931   -7.1967 C   0  0  2  0  0  0  0  0  0  0  0  0
   48.4950    0.4128   -6.4832 N   0  0  0  0  0  0  0  0  0  0  0  0
   38.1552   -1.7783   -6.5461 C   0  0  0  0  0  0  0  0  0  0  0  0
   37.2263   -0.8403   -7.0681 N   0  0  0  0  0  0  0  0  0  0  0  0
   40.2443    6.0701   -5.1602 C   0  0  1  0  0  0  0  0  0  0  0  0
   39.3080    6.7441   -5.9867 O   0  0  0  0  0  0  0  0  0  0  0  0
   39.6673    3.1514   -1.0548 C   0  0  2  0  0  0  0  0  0  0  0  0
   38.3952    3.2166   -1.7172 N   0  0  0  0  0  0  0  0  0  0  0  0
   45.0273    1.1370   -4.2167 C   0  0  2  0  0  0  0  0  0  0  0  0
   45.9013    0.8302   -5.2930 O   0  0  0  0  0  0  0  0  0  0  0  0
   48.0619    2.3276   -8.0607 C   0  0  1  0  0  0  0  0  0  0  0  0
   46.9379    3.0107   -8.7221 O   0  0  0  0  0  0  0  0  0  0  0  0
   37.2576   -0.3871   -8.4178 C   0  0  0  0  0  0  0  0  0  0  0  0
   41.5900    6.8453   -5.0576 C   0  0  2  0  0  0  0  0  0  0  0  0
   42.2158    7.0054   -6.3925 O   0  0  0  0  0  0  0  0  0  0  0  0
   40.7998    2.8202   -2.1119 C   0  0  2  0  0  0  0  0  0  0  0  0
   44.8575   -0.0164   -3.1994 C   0  0  1  0  0  0  0  0  0  0  0  0
   48.8962    3.3521   -7.1119 C   0  0  2  0  0  0  0  0  0  0  0  0
   50.0211    2.6761   -6.4472 O   0  0  0  0  0  0  0  0  0  0  0  0
   38.2472   -0.8789   -9.3043 C   0  0  0  0  0  0  0  0  0  0  0  0
   42.5971    6.0760   -4.1188 C   0  0  2  0  0  0  0  0  0  0  0  0
   41.9277    5.9480   -2.8341 O   0  0  0  0  0  0  0  0  0  0  0  0
   42.1665    2.7627   -1.3452 C   0  0  2  0  0  0  0  0  0  0  0  0
   43.0985    2.4756   -2.3807 O   0  0  0  0  0  0  0  0  0  0  0  0
   45.8791    0.0513   -2.0655 C   0  0  0  0  0  0  0  0  0  0  0  0
   46.0571   -1.1408   -1.3386 O   0  0  0  0  0  0  0  0  0  0  0  0
   47.9182    3.9727   -6.0113 C   0  0  1  0  0  0  0  0  0  0  0  0
   47.2943    2.8365   -5.2275 O   0  0  0  0  0  0  0  0  0  0  0  0
   39.2407   -1.8591   -8.8079 C   0  0  0  0  0  0  0  0  0  0  0  0
   43.8374    6.8646   -4.0439 C   0  0  0  0  0  0  0  0  0  0  0  0
   44.5638    6.4554   -2.9962 O   0  0  0  0  0  0  0  0  0  0  0  0
   42.1369    1.6351   -0.2294 C   0  0  1  0  0  0  0  0  0  0  0  0
   43.3504    1.6039    0.4473 O   0  0  0  0  0  0  0  0  0  0  0  0
   42.6811   -0.8700   -5.4229 C   0  0  0  0  0  0  0  0  0  0  0  0
   48.7685    4.9296   -5.1321 C   0  0  0  0  0  0  0  0  0  0  0  0
   49.3331    5.9872   -5.9330 N   0  0  0  0  0  0  0  0  0  0  0  0
   41.7334   -1.2938   -6.5497 C   0  0  0  0  0  0  0  0  0  0  0  0
   41.6436   -2.7894   -6.5900 N   0  0  0  0  0  0  0  0  0  0  0  0
   40.2167   -3.3713   -6.7782 C   0  0  0  0  0  0  0  0  0  0  0  0
  1  2  1  6  0  0  0
  1  9  1  0  0  0  0
  1 35  1  0  0  0  0
  3  4  1  1  0  0  0
  3 11  1  0  0  0  0
  3 45  1  0  0  0  0
  5  6  1  0  0  0  0
  5 12  1  0  0  0  0
  5 37  1  1  0  0  0
  6 30  1  0  0  0  0
  7 14  1  0  0  0  0
  7 41  1  0  0  0  0
  7 23  1  1  0  0  0
  8 16  2  0  0  0  0
  8 42  1  0  0  0  0
  9 10  1  6  0  0  0
  9 18  1  0  0  0  0
 11 20  1  0  0  0  0
 12 13  1  6  0  0  0
 12 22  1  0  0  0  0
 13 47  1  0  0  0  0
 14 15  1  1  0  0  0
 14 24  1  0  0  0  0
 16 17  1  0  0  0  0
 17 26  2  0  0  0  0
 18 19  1  6  0  0  0
 18 27  1  0  0  0  0
 20 21  1  6  0  0  0
 20 29  1  0  0  0  0
 22 23  1  6  0  0  0
 22 30  1  0  0  0  0
 24 25  1  1  0  0  0
 24 31  1  0  0  0  0
 26 33  1  0  0  0  0
 27 28  1  6  0  0  0
 27 34  1  0  0  0  0
 29  2  1  6  0  0  0
 29 36  1  0  0  0  0
 30 38  1  1  0  0  0
 31 32  1  1  0  0  0
 31 40  1  0  0  0  0
 33 42  2  0  0  0  0
 34 35  1  0  0  0  0
 34 43  1  1  0  0  0
 36 37  1  6  0  0  0
 36 45  1  0  0  0  0
 38 39  1  0  0  0  0
 40 41  1  0  0  0  0
 40 48  1  1  0  0  0
 43 44  1  0  0  0  0
 45 46  1  1  0  0  0
 47 50  1  0  0  0  0
 48 49  1  0  0  0  0
 50 51  1  0  0  0  0
 51 52  1  0  0  0  0
 52  8  1  0  0  0  0
M  END
>  <CHROM.1>
-136.58455210,-87.15378285,178.68019436,-65.23138953,-179.72182117,77.45638186
43.89002959,81.90252531,163.18856706,-56.66315333,60.47447210,177.75023322
136.56690060,19.99943823,-108.66358682,43.00730158,2.25907698,-4.44768740
3.07397946,-0.27461540,-2.49553849

>  <Name>
2be0_lig

>  <RI>
3.37048e+07

>  <Rbt.Current_Directory>
/home/itssahil/PROJECTS/Mol_Feturizer/New_Systems/rnas/2be0

>  <Rbt.Executable>
rbdock ($Id: //depot/dev/client3/rdock/2013.1/src/exe/rbdock.cxx#4 $)

>  <Rbt.Library>
libRbt.so (2013.1, Build901 2013/11/27)

>  <Rbt.Parameter_File>
/export/apps/rDock/src/rDock_2013.1_src/data/scripts/dock_solv.prm

>  <Rbt.Receptor>
prm/pocket_docking_8.prm

>  <SCORE>
-10.4232

>  <SCORE.INTER>
0.992396

>  <SCORE.INTER.CONST>
1

>  <SCORE.INTER.POLAR>
-0.870865

>  <SCORE.INTER.ROT>
15

>  <SCORE.INTER.SOLV>
18.5294

>  <SCORE.INTER.VDW>
-16.212

>  <SCORE.INTER.norm>
0.0190845

>  <SCORE.INTRA>
-11.478

>  <SCORE.INTRA.DIHEDRAL>
-30.4579

>  <SCORE.INTRA.DIHEDRAL.0>
47.8724

>  <SCORE.INTRA.POLAR>
0

>  <SCORE.INTRA.POLAR.0>
0

>  <SCORE.INTRA.REPUL>
0

>  <SCORE.INTRA.REPUL.0>
0

>  <SCORE.INTRA.SOLV>
-0.863628

>  <SCORE.INTRA.SOLV.lig_0>
-115.677

>  <SCORE.INTRA.VDW>
4.18278

>  <SCORE.INTRA.VDW.0>
-7.4833

>  <SCORE.INTRA.norm>
-0.220731

>  <SCORE.RESTR>
0.0623639

>  <SCORE.RESTR.CAVITY>
0.0623639

>  <SCORE.RESTR.norm>
0.00119931

>  <SCORE.SYSTEM>
0

>  <SCORE.SYSTEM.CONST>
0

>  <SCORE.SYSTEM.DIHEDRAL>
0

>  <SCORE.SYSTEM.SOLV>
0

>  <SCORE.SYSTEM.norm>
0

>  <SCORE.heavy>
52

>  <SCORE.norm>
-0.200447

>  <RMSD>
7.787

$$$$
2be0_lig
 OpenBabel11021811423D
libRbt.so/2013.1/901 2013/11/27
 52 56  0  0  0  0  0  0  0  0999 V2000
   45.3081    4.9045   -7.1906 C   0  0  2  0  0  0  0  0  0  0  0  0
   45.2077    3.5405   -6.8556 O   0  0  0  0  0  0  0  0  0  0  0  0
   41.0350    2.7921   -8.0386 C   0  0  2  0  0  0  0  0  0  0  0  0
   39.7991    2.0419   -8.3979 N   0  0  0  0  0  0  0  0  0  0  0  0
   42.4920    3.2775   -3.7827 C   0  0  2  0  0  0  0  0  0  0  0  0
   43.3072    3.5987   -2.6370 O   0  0  0  0  0  0  0  0  0  0  0  0
   41.4046   -0.8181   -2.2083 C   0  0  1  0  0  0  0  0  0  0  0  0
   39.6160    6.3903    0.2933 C   0  0  0  0  0  0  0  0  0  0  0  0
   46.6228    5.5476   -6.5876 C   0  0  2  0  0  0  0  0  0  0  0  0
   47.7914    4.7705   -7.0060 N   0  0  0  0  0  0  0  0  0  0  0  0
   42.2161    2.3538   -9.0191 C   0  0  0  0  0  0  0  0  0  0  0  0
   41.6114    2.0841   -3.3792 C   0  0  2  0  0  0  0  0  0  0  0  0
   40.4409    2.7258   -2.7043 O   0  0  0  0  0  0  0  0  0  0  0  0
   42.4627   -1.7557   -3.0100 C   0  0  2  0  0  0  0  0  0  0  0  0
   43.0981   -0.9424   -4.0965 N   0  0  0  0  0  0  0  0  0  0  0  0
   40.5440    7.1434    1.0849 C   0  0  0  0  0  0  0  0  0  0  0  0
   41.1008    6.5654    2.2557 N   0  0  0  0  0  0  0  0  0  0  0  0
   46.4988    5.6315   -4.9959 C   0  0  1  0  0  0  0  0  0  0  0  0
   47.6888    6.2030   -4.4751 O   0  0  0  0  0  0  0  0  0  0  0  0
   43.5966    3.1454   -8.6484 C   0  0  2  0  0  0  0  0  0  0  0  0
   44.6669    2.7615   -9.5250 N   0  0  0  0  0  0  0  0  0  0  0  0
   42.6427    1.3023   -2.5438 C   0  0  2  0  0  0  0  0  0  0  0  0
   42.1405    0.2975   -1.6750 O   0  0  0  0  0  0  0  0  0  0  0  0
   41.6766   -2.9626   -3.6055 C   0  0  1  0  0  0  0  0  0  0  0  0
   41.1141   -3.6927   -2.4576 O   0  0  0  0  0  0  0  0  0  0  0  0
   40.7806    5.2504    2.6987 C   0  0  0  0  0  0  0  0  0  0  0  0
   45.2443    6.4815   -4.6411 C   0  0  2  0  0  0  0  0  0  0  0  0
   45.0737    6.5921   -3.1721 O   0  0  0  0  0  0  0  0  0  0  0  0
   44.0043    2.8409   -7.1481 C   0  0  2  0  0  0  0  0  0  0  0  0
   43.4355    2.4167   -1.8203 C   0  0  1  0  0  0  0  0  0  0  0  0
   40.5016   -2.4275   -4.5949 C   0  0  2  0  0  0  0  0  0  0  0  0
   41.0565   -1.6963   -5.7446 O   0  0  0  0  0  0  0  0  0  0  0  0
   39.8705    4.4580    1.9566 C   0  0  0  0  0  0  0  0  0  0  0  0
   43.9459    5.8256   -5.2505 C   0  0  2  0  0  0  0  0  0  0  0  0
   44.1755    5.7416   -6.6840 O   0  0  0  0  0  0  0  0  0  0  0  0
   42.8100    3.2783   -6.2308 C   0  0  2  0  0  0  0  0  0  0  0  0
   43.2861    2.9749   -4.9252 O   0  0  0  0  0  0  0  0  0  0  0  0
   44.9273    2.1017   -1.7234 C   0  0  0  0  0  0  0  0  0  0  0  0
   45.5882    1.9160   -2.9522 O   0  0  0  0  0  0  0  0  0  0  0  0
   39.5139   -1.4728   -3.7790 C   0  0  1  0  0  0  0  0  0  0  0  0
   40.3247   -0.3423   -3.1795 O   0  0  0  0  0  0  0  0  0  0  0  0
   39.2609    5.0160    0.7271 C   0  0  0  0  0  0  0  0  0  0  0  0
   42.8007    6.6817   -4.9016 C   0  0  0  0  0  0  0  0  0  0  0  0
   41.6762    6.1437   -5.3900 O   0  0  0  0  0  0  0  0  0  0  0  0
   41.4953    2.4691   -6.5974 C   0  0  1  0  0  0  0  0  0  0  0  0
   40.4446    2.8752   -5.7834 O   0  0  0  0  0  0  0  0  0  0  0  0
   39.7249    3.9650   -3.0891 C   0  0  0  0  0  0  0  0  0  0  0  0
   38.4245   -0.9859   -4.7728 C   0  0  0  0  0  0  0  0  0  0  0  0
   37.4610   -0.1504   -4.1002 N   0  0  0  0  0  0  0  0  0  0  0  0
   40.2022    5.0752   -2.1472 C   0  0  0  0  0  0  0  0  0  0  0  0
   39.3375    6.2865   -2.3255 N   0  0  0  0  0  0  0  0  0  0  0  0
   39.0028    7.0690   -1.0271 C   0  0  0  0  0  0  0  0  0  0  0  0
  1  2  1  1  0  0  0
  1  9  1  0  0  0  0
  1 35  1  0  0  0  0
  3  4  1  6  0  0  0
  3 11  1  0  0  0  0
  3 45  1  0  0  0  0
  5  6  1  0  0  0  0
  5 12  1  0  0  0  0
  5 37  1  6  0  0  0
  6 30  1  0  0  0  0
  7 14  1  0  0  0  0
  7 41  1  0  0  0  0
  7 23  1  6  0  0  0
  8 16  2  0  0  0  0
  8 42  1  0  0  0  0
  9 10  1  1  0  0  0
  9 18  1  0  0  0  0
 11 20  1  0  0  0  0
 12 13  1  1  0  0  0
 12 22  1  0  0  0  0
 13 47  1  0  0  0  0
 14 15  1  6  0  0  0
 14 24  1  0  0  0  0
 16 17  1  0  0  0  0
 17 26  2  0  0  0  0
 18 19  1  1  0  0  0
 18 27  1  0  0  0  0
 20 21  1  6  0  0  0
 20 29  1  0  0  0  0
 22 23  1  1  0  0  0
 22 30  1  0  0  0  0
 24 25  1  1  0  0  0
 24 31  1  0  0  0  0
 26 33  1  0  0  0  0
 27 28  1  1  0  0  0
 27 34  1  0  0  0  0
 29  2  1  1  0  0  0
 29 36  1  0  0  0  0
 30 38  1  6  0  0  0
 31 32  1  6  0  0  0
 31 40  1  0  0  0  0
 33 42  2  0  0  0  0
 34 35  1  0  0  0  0
 34 43  1  6  0  0  0
 36 37  1  1  0  0  0
 36 45  1  0  0  0  0
 38 39  1  0  0  0  0
 40 41  1  0  0  0  0
 40 48  1  6  0  0  0
 43 44  1  0  0  0  0
 45 46  1  1  0  0  0
 47 50  1  0  0  0  0
 48 49  1  0  0  0  0
 50 51  1  0  0  0  0
 51 52  1  0  0  0  0
 52  8  1  0  0  0  0
M  END
>  <CHROM.1>
171.23969217,-148.54106555,70.66916148,39.91028525,-102.41728801,60.59128504
48.51408749,-57.01850968,-179.20501418,177.73590117,178.02214303,-169.90942589
141.81378094,-2.04591836,119.63045477,42.30529900,2.96951789,-3.98277238
-0.03512188,-0.88585975,-2.49522812

>  <Name>
2be0_lig

>  <RI>
0

>  <Rbt.Current_Directory>
/home/itssahil/PROJECTS/Mol_Feturizer/New_Systems/rnas/2be0

>  <Rbt.Executable>
rbdock ($Id: //depot/dev/client3/rdock/2013.1/src/exe/rbdock.cxx#4 $)

>  <Rbt.Library>
libRbt.so (2013.1, Build901 2013/11/27)

>  <Rbt.Parameter_File>
/export/apps/rDock/src/rDock_2013.1_src/data/scripts/dock_solv.prm

>  <Rbt.Receptor>
prm/pocket_docking_4.prm

>  <SCORE>
-8.75245

>  <SCORE.INTER>
3.95262

>  <SCORE.INTER.CONST>
1

>  <SCORE.INTER.POLAR>
-0.0535822

>  <SCORE.INTER.ROT>
15

>  <SCORE.INTER.SOLV>
8.43514

>  <SCORE.INTER.VDW>
-13.598

>  <SCORE.INTER.norm>
0.076012

>  <SCORE.INTRA>
-12.7073

>  <SCORE.INTRA.DIHEDRAL>
-31.3573

>  <SCORE.INTRA.DIHEDRAL.0>
47.8724

>  <SCORE.INTRA.POLAR>
0

>  <SCORE.INTRA.POLAR.0>
0

>  <SCORE.INTRA.REPUL>
0.0324191

>  <SCORE.INTRA.REPUL.0>
0

>  <SCORE.INTRA.SOLV>
1.15506

>  <SCORE.INTRA.SOLV.lig_0>
-115.677

>  <SCORE.INTRA.VDW>
2.23167

>  <SCORE.INTRA.VDW.0>
-7.4833

>  <SCORE.INTRA.norm>
-0.244372

>  <SCORE.RESTR>
0.00226724

>  <SCORE.RESTR.CAVITY>
0.00226724

>  <SCORE.RESTR.norm>
4.36007e-05

>  <SCORE.SYSTEM>
0

>  <SCORE.SYSTEM.CONST>
0

>  <SCORE.SYSTEM.DIHEDRAL>
0

>  <SCORE.SYSTEM.SOLV>
0

>  <SCORE.SYSTEM.norm>
0

>  <SCORE.heavy>
52

>  <SCORE.norm>
-0.168316

>  <RMSD>
7.810

$$$$
2be0_lig
 OpenBabel11021811423D
libRbt.so/2013.1/901 2013/11/27
 52 56  0  0  0  0  0  0  0  0999 V2000
   42.8525    4.4599   -0.9291 C   0  0  2  0  0  0  0  0  0  0  0  0
   41.4963    4.4425   -0.5506 O   0  0  0  0  0  0  0  0  0  0  0  0
   38.2788    1.5224   -1.2522 C   0  0  2  0  0  0  0  0  0  0  0  0
   37.3021    0.6715   -1.9879 N   0  0  0  0  0  0  0  0  0  0  0  0
   42.4128    0.9504   -2.2814 C   0  0  2  0  0  0  0  0  0  0  0  0
   43.8242    0.6656   -2.3668 O   0  0  0  0  0  0  0  0  0  0  0  0
   42.5736    3.9256   -5.7245 C   0  0  1  0  0  0  0  0  0  0  0  0
   38.1572    0.2891   -7.6515 C   0  0  0  0  0  0  0  0  0  0  0  0
   43.6930    5.4327   -0.0056 C   0  0  2  0  0  0  0  0  0  0  0  0
   43.4983    5.0723    1.4004 N   0  0  0  0  0  0  0  0  0  0  0  0
   38.0503    3.0497   -1.6568 C   0  0  0  0  0  0  0  0  0  0  0  0
   42.0090    1.5935   -3.6178 C   0  0  2  0  0  0  0  0  0  0  0  0
   41.7362    0.4188   -4.5027 O   0  0  0  0  0  0  0  0  0  0  0  0
   41.2617    3.1297   -6.2598 C   0  0  2  0  0  0  0  0  0  0  0  0
   41.6933    2.1293   -7.2886 N   0  0  0  0  0  0  0  0  0  0  0  0
   38.0089    1.3588   -6.7089 C   0  0  0  0  0  0  0  0  0  0  0  0
   37.0495    2.3777   -6.9468 N   0  0  0  0  0  0  0  0  0  0  0  0
   43.2739    6.9474   -0.2985 C   0  0  1  0  0  0  0  0  0  0  0  0
   44.0323    7.8015    0.5437 O   0  0  0  0  0  0  0  0  0  0  0  0
   39.1139    4.0170   -0.8803 C   0  0  2  0  0  0  0  0  0  0  0  0
   38.9172    5.3945   -1.2341 N   0  0  0  0  0  0  0  0  0  0  0  0
   43.2645    2.4543   -3.8538 C   0  0  2  0  0  0  0  0  0  0  0  0
   43.4707    2.9469   -5.1696 O   0  0  0  0  0  0  0  0  0  0  0  0
   40.2858    4.1767   -6.8766 C   0  0  1  0  0  0  0  0  0  0  0  0
   39.9184    5.0901   -5.7820 O   0  0  0  0  0  0  0  0  0  0  0  0
   36.2088    2.3980   -8.0960 C   0  0  0  0  0  0  0  0  0  0  0  0
   43.5239    7.2480   -1.8049 C   0  0  2  0  0  0  0  0  0  0  0  0
   43.1485    8.6431   -2.1394 O   0  0  0  0  0  0  0  0  0  0  0  0
   40.5949    3.5834   -1.2381 C   0  0  2  0  0  0  0  0  0  0  0  0
   44.4144    1.5600   -3.3323 C   0  0  1  0  0  0  0  0  0  0  0  0
   41.0205    4.9762   -8.0878 C   0  0  2  0  0  0  0  0  0  0  0  0
   41.3909    4.0693   -9.1854 O   0  0  0  0  0  0  0  0  0  0  0  0
   36.3093    1.3665   -9.0618 C   0  0  0  0  0  0  0  0  0  0  0  0
   42.6790    6.2692   -2.7081 C   0  0  2  0  0  0  0  0  0  0  0  0
   43.0879    4.9252   -2.3321 O   0  0  0  0  0  0  0  0  0  0  0  0
   40.7628    2.0780   -0.8322 C   0  0  2  0  0  0  0  0  0  0  0  0
   42.1142    1.8047   -1.1821 O   0  0  0  0  0  0  0  0  0  0  0  0
   45.4891    2.3610   -2.5992 C   0  0  0  0  0  0  0  0  0  0  0  0
   46.5663    1.6088   -2.0943 O   0  0  0  0  0  0  0  0  0  0  0  0
   42.3290    5.7024   -7.5282 C   0  0  1  0  0  0  0  0  0  0  0  0
   43.2257    4.6573   -6.8971 O   0  0  0  0  0  0  0  0  0  0  0  0
   37.2959    0.2801   -8.8602 C   0  0  0  0  0  0  0  0  0  0  0  0
   42.9724    6.5862   -4.1151 C   0  0  0  0  0  0  0  0  0  0  0  0
   42.3667    7.7324   -4.4499 O   0  0  0  0  0  0  0  0  0  0  0  0
   39.7367    1.1649   -1.6265 C   0  0  1  0  0  0  0  0  0  0  0  0
   39.8910   -0.1635   -1.2483 O   0  0  0  0  0  0  0  0  0  0  0  0
   41.1881   -0.9059   -4.1272 C   0  0  0  0  0  0  0  0  0  0  0  0
   42.9915    6.4364   -8.7256 C   0  0  0  0  0  0  0  0  0  0  0  0
   44.2150    7.0782   -8.3133 N   0  0  0  0  0  0  0  0  0  0  0  0
   40.7850   -1.6139   -5.4248 C   0  0  0  0  0  0  0  0  0  0  0  0
   39.4218   -1.1515   -5.8426 N   0  0  0  0  0  0  0  0  0  0  0  0
   39.2496   -0.8509   -7.3559 C   0  0  0  0  0  0  0  0  0  0  0  0
  1  2  1  1  0  0  0
  1  9  1  0  0  0  0
  1 35  1  0  0  0  0
  3  4  1  6  0  0  0
  3 11  1  0  0  0  0
  3 45  1  0  0  0  0
  5  6  1  0  0  0  0
  5 12  1  0  0  0  0
  5 37  1  1  0  0  0
  6 30  1  0  0  0  0
  7 14  1  0  0  0  0
  7 41  1  0  0  0  0
  7 23  1  6  0  0  0
  8 16  2  0  0  0  0
  8 42  1  0  0  0  0
  9 10  1  1  0  0  0
  9 18  1  0  0  0  0
 11 20  1  0  0  0  0
 12 13  1  6  0  0  0
 12 22  1  0  0  0  0
 13 47  1  0  0  0  0
 14 15  1  6  0  0  0
 14 24  1  0  0  0  0
 16 17  1  0  0  0  0
 17 26  2  0  0  0  0
 18 19  1  1  0  0  0
 18 27  1  0  0  0  0
 20 21  1  6  0  0  0
 20 29  1  0  0  0  0
 22 23  1  6  0  0  0
 22 30  1  0  0  0  0
 24 25  1  1  0  0  0
 24 31  1  0  0  0  0
 26 33  1  0  0  0  0
 27 28  1  1  0  0  0
 27 34  1  0  0  0  0
 29  2  1  1  0  0  0
 29 36  1  0  0  0  0
 30 38  1  1  0  0  0
 31 32  1  6  0  0  0
 31 40  1  0  0  0  0
 33 42  2  0  0  0  0
 34 35  1  0  0  0  0
 34 43  1  6  0  0  0
 36 37  1  6  0  0  0
 36 45  1  0  0  0  0
 38 39  1  0  0  0  0
 40 41  1  0  0  0  0
 40 48  1  6  0  0  0
 43 44  1  0  0  0  0
 45 46  1  1  0  0  0
 47 50  1  0  0  0  0
 48 49  1  0  0  0  0
 50 51  1  0  0  0  0
 51 52  1  0  0  0  0
 52  8  1  0  0  0  0
M  END
>  <CHROM.1>
-177.64294680,-172.65889155,-80.84801199,32.74664620,166.35166316,67.29902839
-165.88954601,63.60049786,-73.95134912,-109.88388464,-177.75316926,-83.08508171
136.95543851,-150.11380464,33.56122286,41.39836338,3.26423259,-4.02599756
0.47376966,0.94509377,1.95366919

>  <Name>
2be0_lig

>  <RI>
2.75444e+07

>  <Rbt.Current_Directory>
/home/itssahil/PROJECTS/Mol_Feturizer/New_Systems/rnas/2be0

>  <Rbt.Executable>
rbdock ($Id: //depot/dev/client3/rdock/2013.1/src/exe/rbdock.cxx#4 $)

>  <Rbt.Library>
libRbt.so (2013.1, Build901 2013/11/27)

>  <Rbt.Parameter_File>
/export/apps/rDock/src/rDock_2013.1_src/data/scripts/dock_solv.prm

>  <Rbt.Receptor>
prm/pocket_docking_5.prm

>  <SCORE>
-14.9642

>  <SCORE.INTER>
-1.19181

>  <SCORE.INTER.CONST>
1

>  <SCORE.INTER.POLAR>
0

>  <SCORE.INTER.ROT>
15

>  <SCORE.INTER.SOLV>
13.5929

>  <SCORE.INTER.VDW>
-18.9255

>  <SCORE.INTER.norm>
-0.0229195

>  <SCORE.INTRA>
-13.7723

>  <SCORE.INTRA.DIHEDRAL>
-28.8206

>  <SCORE.INTRA.DIHEDRAL.0>
47.8724

>  <SCORE.INTRA.POLAR>
0

>  <SCORE.INTRA.POLAR.0>
0

>  <SCORE.INTRA.REPUL>
0

>  <SCORE.INTRA.REPUL.0>
0

>  <SCORE.INTRA.SOLV>
0.513051

>  <SCORE.INTRA.SOLV.lig_0>
-115.677

>  <SCORE.INTRA.VDW>
0.381416

>  <SCORE.INTRA.VDW.0>
-7.4833

>  <SCORE.INTRA.norm>
-0.264853

>  <SCORE.RESTR>
0

>  <SCORE.RESTR.CAVITY>
0

>  <SCORE.RESTR.norm>
0

>  <SCORE.SYSTEM>
0

>  <SCORE.SYSTEM.CONST>
0

>  <SCORE.SYSTEM.DIHEDRAL>
0

>  <SCORE.SYSTEM.SOLV>
0

>  <SCORE.SYSTEM.norm>
0

>  <SCORE.heavy>
52

>  <SCORE.norm>
-0.287772

>  <RMSD>
7.815

$$$$
2be0_lig
 OpenBabel11021811423D
libRbt.so/2013.1/901 2013/11/27
 52 56  0  0  0  0  0  0  0  0999 V2000
   41.1369   -0.4589   -2.8635 C   0  0  2  0  0  0  0  0  0  0  0  0
   41.3467   -1.5160   -3.7697 O   0  0  0  0  0  0  0  0  0  0  0  0
   44.7035   -2.4028   -6.4747 C   0  0  2  0  0  0  0  0  0  0  0  0
   45.6648   -2.2512   -7.6027 N   0  0  0  0  0  0  0  0  0  0  0  0
   44.5427    0.8676   -3.6872 C   0  0  2  0  0  0  0  0  0  0  0  0
   44.7652    1.6900   -2.5233 O   0  0  0  0  0  0  0  0  0  0  0  0
   41.5559    4.5440   -3.2799 C   0  0  1  0  0  0  0  0  0  0  0  0
   43.0759    2.9383  -10.5024 C   0  0  0  0  0  0  0  0  0  0  0  0
   40.0683   -0.8505   -1.7633 C   0  0  2  0  0  0  0  0  0  0  0  0
   40.4693   -2.0952   -1.1040 N   0  0  0  0  0  0  0  0  0  0  0  0
   43.2152   -2.3960   -7.0520 C   0  0  0  0  0  0  0  0  0  0  0  0
   43.7728    1.7312   -4.6991 C   0  0  2  0  0  0  0  0  0  0  0  0
   44.8532    2.4799   -5.4131 O   0  0  0  0  0  0  0  0  0  0  0  0
   40.7299    5.6276   -4.1659 C   0  0  2  0  0  0  0  0  0  0  0  0
   41.6919    6.3519   -5.0580 N   0  0  0  0  0  0  0  0  0  0  0  0
   42.2606    3.8502   -9.7550 C   0  0  0  0  0  0  0  0  0  0  0  0
   40.8507    3.8294   -9.9189 N   0  0  0  0  0  0  0  0  0  0  0  0
   38.6229   -0.9687   -2.4361 C   0  0  1  0  0  0  0  0  0  0  0  0
   37.6821   -1.3274   -1.4359 O   0  0  0  0  0  0  0  0  0  0  0  0
   42.1271   -2.5463   -5.8423 C   0  0  2  0  0  0  0  0  0  0  0  0
   40.7837   -2.5438   -6.3488 N   0  0  0  0  0  0  0  0  0  0  0  0
   42.8465    2.4743   -3.7180 C   0  0  2  0  0  0  0  0  0  0  0  0
   42.2063    3.6474   -4.1983 O   0  0  0  0  0  0  0  0  0  0  0  0
   40.0303    6.6148   -3.1836 C   0  0  1  0  0  0  0  0  0  0  0  0
   39.1051    5.8033   -2.3757 O   0  0  0  0  0  0  0  0  0  0  0  0
   40.1863    2.9345  -10.8054 C   0  0  0  0  0  0  0  0  0  0  0  0
   38.2722    0.3951   -3.0990 C   0  0  2  0  0  0  0  0  0  0  0  0
   36.9386    0.3458   -3.7458 O   0  0  0  0  0  0  0  0  0  0  0  0
   42.3064   -1.3598   -4.8080 C   0  0  2  0  0  0  0  0  0  0  0  0
   43.7501    2.7140   -2.4851 C   0  0  1  0  0  0  0  0  0  0  0  0
   41.1402    7.3481   -2.2474 C   0  0  2  0  0  0  0  0  0  0  0  0
   42.0688    8.1608   -3.0483 O   0  0  0  0  0  0  0  0  0  0  0  0
   40.9397    2.0096  -11.5695 C   0  0  0  0  0  0  0  0  0  0  0  0
   39.3475    0.7679   -4.1908 C   0  0  2  0  0  0  0  0  0  0  0  0
   40.6264    0.7964   -3.4989 O   0  0  0  0  0  0  0  0  0  0  0  0
   43.7827   -1.4048   -4.2812 C   0  0  2  0  0  0  0  0  0  0  0  0
   43.8247   -0.3187   -3.3637 O   0  0  0  0  0  0  0  0  0  0  0  0
   42.9954    2.5444   -1.1676 C   0  0  0  0  0  0  0  0  0  0  0  0
   42.5763    1.2332   -0.8741 O   0  0  0  0  0  0  0  0  0  0  0  0
   41.9598    6.2451   -1.4323 C   0  0  1  0  0  0  0  0  0  0  0  0
   42.5828    5.2814   -2.4211 O   0  0  0  0  0  0  0  0  0  0  0  0
   42.4148    1.9919  -11.4352 C   0  0  0  0  0  0  0  0  0  0  0  0
   38.9759    2.0713   -4.7645 C   0  0  0  0  0  0  0  0  0  0  0  0
   39.8198    2.3786   -5.7576 O   0  0  0  0  0  0  0  0  0  0  0  0
   44.8107   -1.2257   -5.4765 C   0  0  1  0  0  0  0  0  0  0  0  0
   46.1134   -1.2782   -4.9952 O   0  0  0  0  0  0  0  0  0  0  0  0
   45.5256    2.1298   -6.6865 C   0  0  0  0  0  0  0  0  0  0  0  0
   43.0070    6.9996   -0.5688 C   0  0  0  0  0  0  0  0  0  0  0  0
   44.0760    7.5047   -1.3941 N   0  0  0  0  0  0  0  0  0  0  0  0
   44.4977    2.3142   -7.8075 C   0  0  0  0  0  0  0  0  0  0  0  0
   45.1571    2.0786   -9.1327 N   0  0  0  0  0  0  0  0  0  0  0  0
   44.6683    2.9833  -10.2958 C   0  0  0  0  0  0  0  0  0  0  0  0
  1  2  1  6  0  0  0
  1  9  1  0  0  0  0
  1 35  1  0  0  0  0
  3  4  1  6  0  0  0
  3 11  1  0  0  0  0
  3 45  1  0  0  0  0
  5  6  1  0  0  0  0
  5 12  1  0  0  0  0
  5 37  1  1  0  0  0
  6 30  1  0  0  0  0
  7 14  1  0  0  0  0
  7 41  1  0  0  0  0
  7 23  1  6  0  0  0
  8 16  2  0  0  0  0
  8 42  1  0  0  0  0
  9 10  1  6  0  0  0
  9 18  1  0  0  0  0
 11 20  1  0  0  0  0
 12 13  1  1  0  0  0
 12 22  1  0  0  0  0
 13 47  1  0  0  0  0
 14 15  1  6  0  0  0
 14 24  1  0  0  0  0
 16 17  1  0  0  0  0
 17 26  2  0  0  0  0
 18 19  1  1  0  0  0
 18 27  1  0  0  0  0
 20 21  1  6  0  0  0
 20 29  1  0  0  0  0
 22 23  1  6  0  0  0
 22 30  1  0  0  0  0
 24 25  1  1  0  0  0
 24 31  1  0  0  0  0
 26 33  1  0  0  0  0
 27 28  1  6  0  0  0
 27 34  1  0  0  0  0
 29  2  1  1  0  0  0
 29 36  1  0  0  0  0
 30 38  1  1  0  0  0
 31 32  1  6  0  0  0
 31 40  1  0  0  0  0
 33 42  2  0  0  0  0
 34 35  1  0  0  0  0
 34 43  1  1  0  0  0
 36 37  1  1  0  0  0
 36 45  1  0  0  0  0
 38 39  1  0  0  0  0
 40 41  1  0  0  0  0
 40 48  1  6  0  0  0
 43 44  1  0  0  0  0
 45 46  1  1  0  0  0
 47 50  1  0  0  0  0
 48 49  1  0  0  0  0
 50 51  1  0  0  0  0
 51 52  1  0  0  0  0
 52  8  1  0  0  0  0
M  END
>  <CHROM.1>
-178.14775867,-164.73094015,-170.81738809,94.57553680,69.84170901,-167.07163935
-168.31036247,-48.52268697,-175.99421217,-108.15349140,-73.30687175,175.50454695
-143.74605462,-53.99990649,87.96666719,42.11802792,1.90459285,-4.74393379
0.81843347,-1.21975950,-3.06496688

>  <Name>
2be0_lig

>  <RI>
0

>  <Rbt.Current_Directory>
/home/itssahil/PROJECTS/Mol_Feturizer/New_Systems/rnas/2be0

>  <Rbt.Executable>
rbdock ($Id: //depot/dev/client3/rdock/2013.1/src/exe/rbdock.cxx#4 $)

>  <Rbt.Library>
libRbt.so (2013.1, Build901 2013/11/27)

>  <Rbt.Parameter_File>
/export/apps/rDock/src/rDock_2013.1_src/data/scripts/dock_solv.prm

>  <Rbt.Receptor>
prm/pocket_docking_7.prm

>  <SCORE>
-15.0922

>  <SCORE.INTER>
-0.147598

>  <SCORE.INTER.CONST>
1

>  <SCORE.INTER.POLAR>
-0.881119

>  <SCORE.INTER.ROT>
15

>  <SCORE.INTER.SOLV>
10.8508

>  <SCORE.INTER.VDW>
-14.3783

>  <SCORE.INTER.norm>
-0.00283842

>  <SCORE.INTRA>
-14.9446

>  <SCORE.INTRA.DIHEDRAL>
-30.7366

>  <SCORE.INTRA.DIHEDRAL.0>
47.8724

>  <SCORE.INTRA.POLAR>
0

>  <SCORE.INTRA.POLAR.0>
0

>  <SCORE.INTRA.REPUL>
0

>  <SCORE.INTRA.REPUL.0>
0

>  <SCORE.INTRA.SOLV>
-0.233078

>  <SCORE.INTRA.SOLV.lig_0>
-115.677

>  <SCORE.INTRA.VDW>
0.54026

>  <SCORE.INTRA.VDW.0>
-7.4833

>  <SCORE.INTRA.norm>
-0.287395

>  <SCORE.RESTR>
0

>  <SCORE.RESTR.CAVITY>
0

>  <SCORE.RESTR.norm>
0

>  <SCORE.SYSTEM>
0

>  <SCORE.SYSTEM.CONST>
0

>  <SCORE.SYSTEM.DIHEDRAL>
0

>  <SCORE.SYSTEM.SOLV>
0

>  <SCORE.SYSTEM.norm>
0

>  <SCORE.heavy>
52

>  <SCORE.norm>
-0.290234

>  <RMSD>
7.831

$$$$
2be0_lig
 OpenBabel11021811423D
libRbt.so/2013.1/901 2013/11/27
 52 56  0  0  0  0  0  0  0  0999 V2000
   42.3802   -0.8922   -4.8240 C   0  0  2  0  0  0  0  0  0  0  0  0
   43.5807   -1.4915   -5.2512 O   0  0  0  0  0  0  0  0  0  0  0  0
   46.8420   -0.0763   -7.8459 C   0  0  2  0  0  0  0  0  0  0  0  0
   47.5406    0.4228   -9.0633 N   0  0  0  0  0  0  0  0  0  0  0  0
   44.2757    2.5800   -5.2696 C   0  0  2  0  0  0  0  0  0  0  0  0
   45.2553    2.6457   -4.2130 O   0  0  0  0  0  0  0  0  0  0  0  0
   42.6746    4.8765   -1.9453 C   0  0  1  0  0  0  0  0  0  0  0  0
   43.7469    6.3121   -9.1694 C   0  0  0  0  0  0  0  0  0  0  0  0
   41.7096   -1.7220   -3.6547 C   0  0  2  0  0  0  0  0  0  0  0  0
   42.6711   -1.9106   -2.5664 N   0  0  0  0  0  0  0  0  0  0  0  0
   46.1099   -1.4524   -8.1906 C   0  0  0  0  0  0  0  0  0  0  0  0
   43.0229    3.3090   -4.7581 C   0  0  2  0  0  0  0  0  0  0  0  0
   43.2981    4.7439   -5.0786 O   0  0  0  0  0  0  0  0  0  0  0  0
   43.6798    4.6950   -0.6812 C   0  0  2  0  0  0  0  0  0  0  0  0
   42.9529    3.9699    0.4103 N   0  0  0  0  0  0  0  0  0  0  0  0
   43.8143    6.5665  -10.5785 C   0  0  0  0  0  0  0  0  0  0  0  0
   44.2198    5.5316  -11.4614 N   0  0  0  0  0  0  0  0  0  0  0  0
   41.1706   -3.1150   -4.2248 C   0  0  1  0  0  0  0  0  0  0  0  0
   40.5808   -3.8458   -3.1608 O   0  0  0  0  0  0  0  0  0  0  0  0
   45.3180   -2.0275   -6.8821 C   0  0  2  0  0  0  0  0  0  0  0  0
   44.6567   -3.2670   -7.1786 N   0  0  0  0  0  0  0  0  0  0  0  0
   43.0544    2.8322   -3.2937 C   0  0  2  0  0  0  0  0  0  0  0  0
   42.2687    3.5601   -2.3613 O   0  0  0  0  0  0  0  0  0  0  0  0
   44.1175    6.1149   -0.2107 C   0  0  1  0  0  0  0  0  0  0  0  0
   44.8295    6.7226   -1.3470 O   0  0  0  0  0  0  0  0  0  0  0  0
   44.5731    4.2261  -11.0154 C   0  0  0  0  0  0  0  0  0  0  0  0
   40.1498   -2.8227   -5.3627 C   0  0  2  0  0  0  0  0  0  0  0  0
   39.6158   -4.0818   -5.9360 O   0  0  0  0  0  0  0  0  0  0  0  0
   44.2539   -0.9633   -6.3875 C   0  0  2  0  0  0  0  0  0  0  0  0
   44.5645    2.8096   -2.9574 C   0  0  1  0  0  0  0  0  0  0  0  0
   42.8110    6.9919    0.2013 C   0  0  2  0  0  0  0  0  0  0  0  0
   42.0940    6.3902    1.3363 O   0  0  0  0  0  0  0  0  0  0  0  0
   44.5246    3.9154   -9.6341 C   0  0  0  0  0  0  0  0  0  0  0  0
   40.8358   -1.9954   -6.5171 C   0  0  2  0  0  0  0  0  0  0  0  0
   41.3395   -0.7817   -5.8941 O   0  0  0  0  0  0  0  0  0  0  0  0
   45.0206    0.3681   -6.0738 C   0  0  2  0  0  0  0  0  0  0  0  0
   43.9826    1.2347   -5.6324 O   0  0  0  0  0  0  0  0  0  0  0  0
   44.9483    1.6200   -2.0790 C   0  0  0  0  0  0  0  0  0  0  0  0
   46.3182    1.5085   -1.7751 O   0  0  0  0  0  0  0  0  0  0  0  0
   41.8289    7.1037   -1.0541 C   0  0  1  0  0  0  0  0  0  0  0  0
   41.4670    5.7043   -1.5071 O   0  0  0  0  0  0  0  0  0  0  0  0
   44.1084    4.9615   -8.6713 C   0  0  0  0  0  0  0  0  0  0  0  0
   39.8203   -1.7322   -7.5493 C   0  0  0  0  0  0  0  0  0  0  0  0
   39.5745   -2.8582   -8.2307 O   0  0  0  0  0  0  0  0  0  0  0  0
   45.7518    0.9137   -7.3719 C   0  0  1  0  0  0  0  0  0  0  0  0
   46.4346    2.0873   -7.0752 O   0  0  0  0  0  0  0  0  0  0  0  0
   42.4424    5.9244   -4.8131 C   0  0  0  0  0  0  0  0  0  0  0  0
   40.6004    7.9381   -0.6001 C   0  0  0  0  0  0  0  0  0  0  0  0
   39.7564    7.1633    0.2752 N   0  0  0  0  0  0  0  0  0  0  0  0
   42.9843    7.0774   -5.6643 C   0  0  0  0  0  0  0  0  0  0  0  0
   42.3747    7.0167   -7.0324 N   0  0  0  0  0  0  0  0  0  0  0  0
   43.2835    7.5013   -8.1941 C   0  0  0  0  0  0  0  0  0  0  0  0
  1  2  1  6  0  0  0
  1  9  1  0  0  0  0
  1 35  1  0  0  0  0
  3  4  1  6  0  0  0
  3 11  1  0  0  0  0
  3 45  1  0  0  0  0
  5  6  1  0  0  0  0
  5 12  1  0  0  0  0
  5 37  1  1  0  0  0
  6 30  1  0  0  0  0
  7 14  1  0  0  0  0
  7 41  1  0  0  0  0
  7 23  1  1  0  0  0
  8 16  2  0  0  0  0
  8 42  1  0  0  0  0
  9 10  1  1  0  0  0
  9 18  1  0  0  0  0
 11 20  1  0  0  0  0
 12 13  1  1  0  0  0
 12 22  1  0  0  0  0
 13 47  1  0  0  0  0
 14 15  1  1  0  0  0
 14 24  1  0  0  0  0
 16 17  1  0  0  0  0
 17 26  2  0  0  0  0
 18 19  1  1  0  0  0
 18 27  1  0  0  0  0
 20 21  1  6  0  0  0
 20 29  1  0  0  0  0
 22 23  1  1  0  0  0
 22 30  1  0  0  0  0
 24 25  1  6  0  0  0
 24 31  1  0  0  0  0
 26 33  1  0  0  0  0
 27 28  1  6  0  0  0
 27 34  1  0  0  0  0
 29  2  1  1  0  0  0
 29 36  1  0  0  0  0
 30 38  1  1  0  0  0
 31 32  1  1  0  0  0
 31 40  1  0  0  0  0
 33 42  2  0  0  0  0
 34 35  1  0  0  0  0
 34 43  1  6  0  0  0
 36 37  1  6  0  0  0
 36 45  1  0  0  0  0
 38 39  1  0  0  0  0
 40 41  1  0  0  0  0
 40 48  1  1  0  0  0
 43 44  1  0  0  0  0
 45 46  1  1  0  0  0
 47 50  1  0  0  0  0
 48 49  1  0  0  0  0
 50 51  1  0  0  0  0
 51 52  1  0  0  0  0
 52  8  1  0  0  0  0
M  END
>  <CHROM.1>
173.58814053,-57.84761741,-87.35186043,-179.77218728,-164.55539883,-72.55527883
-164.67466116,61.45115792,-73.77033613,-178.74728149,-73.21687823,86.22093915
-147.07317576,111.00112636,141.34728386,43.23199025,2.31779808,-4.90747648
1.49119096,-1.22882606,-2.66460386

>  <Name>
2be0_lig

>  <RI>
3.37048e+07

>  <Rbt.Current_Directory>
/home/itssahil/PROJECTS/Mol_Feturizer/New_Systems/rnas/2be0

>  <Rbt.Executable>
rbdock ($Id: //depot/dev/client3/rdock/2013.1/src/exe/rbdock.cxx#4 $)

>  <Rbt.Library>
libRbt.so (2013.1, Build901 2013/11/27)

>  <Rbt.Parameter_File>
/export/apps/rDock/src/rDock_2013.1_src/data/scripts/dock_solv.prm

>  <Rbt.Receptor>
prm/pocket_docking_8.prm

>  <SCORE>
-20.9661

>  <SCORE.INTER>
-4.08077

>  <SCORE.INTER.CONST>
1

>  <SCORE.INTER.POLAR>
-0.894427

>  <SCORE.INTER.ROT>
15

>  <SCORE.INTER.SOLV>
16.1976

>  <SCORE.INTER.VDW>
-18.7383

>  <SCORE.INTER.norm>
-0.0784763

>  <SCORE.INTRA>
-16.8871

>  <SCORE.INTRA.DIHEDRAL>
-35.0489

>  <SCORE.INTRA.DIHEDRAL.0>
47.8724

>  <SCORE.INTRA.POLAR>
0

>  <SCORE.INTRA.POLAR.0>
0

>  <SCORE.INTRA.REPUL>
0

>  <SCORE.INTRA.REPUL.0>
0

>  <SCORE.INTRA.SOLV>
-0.668617

>  <SCORE.INTRA.SOLV.lig_0>
-115.677

>  <SCORE.INTRA.VDW>
0.97167

>  <SCORE.INTRA.VDW.0>
-7.4833

>  <SCORE.INTRA.norm>
-0.324752

>  <SCORE.RESTR>
0.00179165

>  <SCORE.RESTR.CAVITY>
0.00179165

>  <SCORE.RESTR.norm>
3.44548e-05

>  <SCORE.SYSTEM>
0

>  <SCORE.SYSTEM.CONST>
0

>  <SCORE.SYSTEM.DIHEDRAL>
0

>  <SCORE.SYSTEM.SOLV>
0

>  <SCORE.SYSTEM.norm>
0

>  <SCORE.heavy>
52

>  <SCORE.norm>
-0.403194

>  <RMSD>
7.838

$$$$
2be0_lig
 OpenBabel11021811423D
libRbt.so/2013.1/901 2013/11/27
 52 56  0  0  0  0  0  0  0  0999 V2000
   40.8143    1.1083   -8.7254 C   0  0  2  0  0  0  0  0  0  0  0  0
   41.7551    0.3999   -7.9534 O   0  0  0  0  0  0  0  0  0  0  0  0
   39.2375   -2.8856   -6.4573 C   0  0  2  0  0  0  0  0  0  0  0  0
   38.8180   -4.0688   -5.6551 N   0  0  0  0  0  0  0  0  0  0  0  0
   41.0749    0.5875   -4.4618 C   0  0  2  0  0  0  0  0  0  0  0  0
   40.3073    0.1233   -3.3323 O   0  0  0  0  0  0  0  0  0  0  0  0
   39.7210    4.3118   -1.7512 C   0  0  1  0  0  0  0  0  0  0  0  0
   49.0753    2.0230   -3.4735 C   0  0  0  0  0  0  0  0  0  0  0  0
   41.5290    2.0400   -9.7870 C   0  0  2  0  0  0  0  0  0  0  0  0
   42.4522    1.2463  -10.6008 N   0  0  0  0  0  0  0  0  0  0  0  0
   40.5962   -3.2279   -7.2223 C   0  0  0  0  0  0  0  0  0  0  0  0
   41.7010    1.9296   -4.0504 C   0  0  2  0  0  0  0  0  0  0  0  0
   42.9551    1.5275   -3.3412 O   0  0  0  0  0  0  0  0  0  0  0  0
   38.9047    5.0811   -2.9273 C   0  0  2  0  0  0  0  0  0  0  0  0
   39.8454    6.0046   -3.6400 N   0  0  0  0  0  0  0  0  0  0  0  0
   50.0432    1.1912   -4.1262 C   0  0  0  0  0  0  0  0  0  0  0  0
   51.1447    1.7861   -4.7953 N   0  0  0  0  0  0  0  0  0  0  0  0
   42.2733    3.2386   -9.0353 C   0  0  1  0  0  0  0  0  0  0  0  0
   42.9130    4.0565  -10.0027 O   0  0  0  0  0  0  0  0  0  0  0  0
   41.0990   -1.9480   -8.1047 C   0  0  2  0  0  0  0  0  0  0  0  0
   42.3198   -2.2439   -8.7999 N   0  0  0  0  0  0  0  0  0  0  0  0
   40.5187    2.5050   -3.2479 C   0  0  2  0  0  0  0  0  0  0  0  0
   40.7978    3.5923   -2.3783 O   0  0  0  0  0  0  0  0  0  0  0  0
   37.7420    5.8767   -2.2608 C   0  0  1  0  0  0  0  0  0  0  0  0
   36.8799    4.8761   -1.6104 O   0  0  0  0  0  0  0  0  0  0  0  0
   51.3454    3.1947   -4.8574 C   0  0  0  0  0  0  0  0  0  0  0  0
   41.2215    4.0338   -8.2085 C   0  0  2  0  0  0  0  0  0  0  0  0
   41.8556    5.1608   -7.4826 O   0  0  0  0  0  0  0  0  0  0  0  0
   41.3169   -0.6958   -7.1592 C   0  0  2  0  0  0  0  0  0  0  0  0
   39.9352    1.2639   -2.5315 C   0  0  1  0  0  0  0  0  0  0  0  0
   38.3397    6.9316   -1.1764 C   0  0  2  0  0  0  0  0  0  0  0  0
   39.2027    7.9346   -1.8193 O   0  0  0  0  0  0  0  0  0  0  0  0
   50.4222    4.0670   -4.2299 C   0  0  0  0  0  0  0  0  0  0  0  0
   40.5206    3.0893   -7.1577 C   0  0  2  0  0  0  0  0  0  0  0  0
   39.9244    2.0085   -7.9267 O   0  0  0  0  0  0  0  0  0  0  0  0
   39.9605   -0.4095   -6.4261 C   0  0  2  0  0  0  0  0  0  0  0  0
   40.2667    0.7260   -5.6259 O   0  0  0  0  0  0  0  0  0  0  0  0
   38.4087    1.2886   -2.4733 C   0  0  0  0  0  0  0  0  0  0  0  0
   37.7565    1.3786   -3.7173 O   0  0  0  0  0  0  0  0  0  0  0  0
   39.1737    6.1387   -0.0679 C   0  0  1  0  0  0  0  0  0  0  0  0
   40.2608    5.3440   -0.7618 O   0  0  0  0  0  0  0  0  0  0  0  0
   49.2550    3.4956   -3.5190 C   0  0  0  0  0  0  0  0  0  0  0  0
   39.5259    3.8887   -6.4243 C   0  0  0  0  0  0  0  0  0  0  0  0
   38.8156    3.0883   -5.6197 O   0  0  0  0  0  0  0  0  0  0  0  0
   39.5182   -1.6602   -5.5557 C   0  0  1  0  0  0  0  0  0  0  0  0
   38.3105   -1.3947   -4.9213 O   0  0  0  0  0  0  0  0  0  0  0  0
   44.0995    2.3813   -2.9440 C   0  0  0  0  0  0  0  0  0  0  0  0
   39.7266    7.1932    0.9289 C   0  0  0  0  0  0  0  0  0  0  0  0
   40.7514    7.9928    0.3050 N   0  0  0  0  0  0  0  0  0  0  0  0
   45.2635    1.4469   -2.5985 C   0  0  0  0  0  0  0  0  0  0  0  0
   46.5564    2.1959   -2.7172 N   0  0  0  0  0  0  0  0  0  0  0  0
   47.8399    1.3224   -2.7230 C   0  0  0  0  0  0  0  0  0  0  0  0
  1  2  1  1  0  0  0
  1  9  1  0  0  0  0
  1 35  1  0  0  0  0
  3  4  1  1  0  0  0
  3 11  1  0  0  0  0
  3 45  1  0  0  0  0
  5  6  1  0  0  0  0
  5 12  1  0  0  0  0
  5 37  1  6  0  0  0
  6 30  1  0  0  0  0
  7 14  1  0  0  0  0
  7 41  1  0  0  0  0
  7 23  1  6  0  0  0
  8 16  2  0  0  0  0
  8 42  1  0  0  0  0
  9 10  1  1  0  0  0
  9 18  1  0  0  0  0
 11 20  1  0  0  0  0
 12 13  1  1  0  0  0
 12 22  1  0  0  0  0
 13 47  1  0  0  0  0
 14 15  1  1  0  0  0
 14 24  1  0  0  0  0
 16 17  1  0  0  0  0
 17 26  2  0  0  0  0
 18 19  1  6  0  0  0
 18 27  1  0  0  0  0
 20 21  1  1  0  0  0
 20 29  1  0  0  0  0
 22 23  1  1  0  0  0
 22 30  1  0  0  0  0
 24 25  1  1  0  0  0
 24 31  1  0  0  0  0
 26 33  1  0  0  0  0
 27 28  1  1  0  0  0
 27 34  1  0  0  0  0
 29  2  1  6  0  0  0
 29 36  1  0  0  0  0
 30 38  1  6  0  0  0
 31 32  1  6  0  0  0
 31 40  1  0  0  0  0
 33 42  2  0  0  0  0
 34 35  1  0  0  0  0
 34 43  1  6  0  0  0
 36 37  1  1  0  0  0
 36 45  1  0  0  0  0
 38 39  1  0  0  0  0
 40 41  1  0  0  0  0
 40 48  1  1  0  0  0
 43 44  1  0  0  0  0
 45 46  1  6  0  0  0
 47 50  1  0  0  0  0
 48 49  1  0  0  0  0
 50 51  1  0  0  0  0
 51 52  1  0  0  0  0
 52  8  1  0  0  0  0
M  END
>  <CHROM.1>
-166.21227379,-81.59284661,-66.52679671,167.30753963,-165.10348632,170.62418486
77.68508500,-58.88757532,173.67616659,-73.52104582,-69.86983128,157.84109765
-166.40010293,154.51423393,-149.89556980,41.72069758,2.33722252,-4.70892805
0.45996515,-0.00922701,-2.35806617

>  <Name>
2be0_lig

>  <RI>
0

>  <Rbt.Current_Directory>
/home/itssahil/PROJECTS/Mol_Feturizer/New_Systems/rnas/2be0

>  <Rbt.Executable>
rbdock ($Id: //depot/dev/client3/rdock/2013.1/src/exe/rbdock.cxx#4 $)

>  <Rbt.Library>
libRbt.so (2013.1, Build901 2013/11/27)

>  <Rbt.Parameter_File>
/export/apps/rDock/src/rDock_2013.1_src/data/scripts/dock_solv.prm

>  <Rbt.Receptor>
prm/pocket_docking_6.prm

>  <SCORE>
-16.6972

>  <SCORE.INTER>
-0.069505

>  <SCORE.INTER.CONST>
1

>  <SCORE.INTER.POLAR>
0

>  <SCORE.INTER.ROT>
15

>  <SCORE.INTER.SOLV>
8.6726

>  <SCORE.INTER.VDW>
-16.5372

>  <SCORE.INTER.norm>
-0.00133663

>  <SCORE.INTRA>
-16.6277

>  <SCORE.INTRA.DIHEDRAL>
-36.2891

>  <SCORE.INTRA.DIHEDRAL.0>
47.8724

>  <SCORE.INTRA.POLAR>
0

>  <SCORE.INTRA.POLAR.0>
0

>  <SCORE.INTRA.REPUL>
0

>  <SCORE.INTRA.REPUL.0>
0

>  <SCORE.INTRA.SOLV>
2.51511

>  <SCORE.INTRA.SOLV.lig_0>
-115.677

>  <SCORE.INTRA.VDW>
0.259262

>  <SCORE.INTRA.VDW.0>
-7.4833

>  <SCORE.INTRA.norm>
-0.319764

>  <SCORE.RESTR>
0

>  <SCORE.RESTR.CAVITY>
0

>  <SCORE.RESTR.norm>
0

>  <SCORE.SYSTEM>
0

>  <SCORE.SYSTEM.CONST>
0

>  <SCORE.SYSTEM.DIHEDRAL>
0

>  <SCORE.SYSTEM.SOLV>
0

>  <SCORE.SYSTEM.norm>
0

>  <SCORE.heavy>
52

>  <SCORE.norm>
-0.321101

>  <RMSD>
7.864

$$$$
2be0_lig
 OpenBabel11021811423D
libRbt.so/2013.1/901 2013/11/27
 52 56  0  0  0  0  0  0  0  0999 V2000
   44.5605   10.6404   -9.9582 C   0  0  2  0  0  0  0  0  0  0  0  0
   44.8596    9.4570   -9.2562 O   0  0  0  0  0  0  0  0  0  0  0  0
   41.9569    6.1510   -9.3818 C   0  0  2  0  0  0  0  0  0  0  0  0
   41.2777    4.9063   -9.8390 N   0  0  0  0  0  0  0  0  0  0  0  0
   45.9367    7.3255   -6.7961 C   0  0  2  0  0  0  0  0  0  0  0  0
   47.3303    7.6974   -6.7896 O   0  0  0  0  0  0  0  0  0  0  0  0
   48.5048    3.4144   -5.6830 C   0  0  1  0  0  0  0  0  0  0  0  0
   40.2180    6.6452   -2.2686 C   0  0  0  0  0  0  0  0  0  0  0  0
   45.2246   10.6380  -11.3951 C   0  0  2  0  0  0  0  0  0  0  0  0
   44.8297    9.4293  -12.1214 N   0  0  0  0  0  0  0  0  0  0  0  0
   42.0081    7.1926  -10.5903 C   0  0  0  0  0  0  0  0  0  0  0  0
   45.7930    6.1294   -5.8417 C   0  0  2  0  0  0  0  0  0  0  0  0
   45.6338    6.7702   -4.4995 O   0  0  0  0  0  0  0  0  0  0  0  0
   49.2918    2.9172   -4.3508 C   0  0  2  0  0  0  0  0  0  0  0  0
   49.9610    4.0998   -3.7187 N   0  0  0  0  0  0  0  0  0  0  0  0
   38.8447    6.9030   -1.9487 C   0  0  0  0  0  0  0  0  0  0  0  0
   38.0018    5.8317   -1.5527 N   0  0  0  0  0  0  0  0  0  0  0  0
   46.8125   10.7589  -11.2534 C   0  0  1  0  0  0  0  0  0  0  0  0
   47.3883   10.7473  -12.5505 O   0  0  0  0  0  0  0  0  0  0  0  0
   42.7599    8.5694  -10.1332 C   0  0  2  0  0  0  0  0  0  0  0  0
   42.8105    9.5162  -11.2114 N   0  0  0  0  0  0  0  0  0  0  0  0
   47.1010    5.3932   -6.1880 C   0  0  2  0  0  0  0  0  0  0  0  0
   47.5488    4.4071   -5.2694 O   0  0  0  0  0  0  0  0  0  0  0  0
   50.3414    1.8503   -4.7855 C   0  0  1  0  0  0  0  0  0  0  0  0
   49.5767    0.7377   -5.3728 O   0  0  0  0  0  0  0  0  0  0  0  0
   38.4538    4.4848   -1.4552 C   0  0  0  0  0  0  0  0  0  0  0  0
   47.1426   12.0712  -10.4846 C   0  0  2  0  0  0  0  0  0  0  0  0
   48.6068   12.2371  -10.3180 O   0  0  0  0  0  0  0  0  0  0  0  0
   44.2309    8.2417   -9.6452 C   0  0  2  0  0  0  0  0  0  0  0  0
   48.1104    6.5442   -6.4126 C   0  0  1  0  0  0  0  0  0  0  0  0
   51.3713    2.4921   -5.8688 C   0  0  2  0  0  0  0  0  0  0  0  0
   52.1389    3.6051   -5.2888 O   0  0  0  0  0  0  0  0  0  0  0  0
   39.8013    4.1693   -1.7580 C   0  0  0  0  0  0  0  0  0  0  0  0
   46.4724   12.0549   -9.0570 C   0  0  2  0  0  0  0  0  0  0  0  0
   45.0463   11.8868   -9.2867 O   0  0  0  0  0  0  0  0  0  0  0  0
   44.1249    7.2100   -8.4690 C   0  0  2  0  0  0  0  0  0  0  0  0
   45.4847    7.0019   -8.1070 O   0  0  0  0  0  0  0  0  0  0  0  0
   49.0714    6.2598   -7.5658 C   0  0  0  0  0  0  0  0  0  0  0  0
   50.4156    6.0606   -7.1989 O   0  0  0  0  0  0  0  0  0  0  0  0
   50.5516    3.0108   -7.1384 C   0  0  1  0  0  0  0  0  0  0  0  0
   49.5138    4.0078   -6.6656 O   0  0  0  0  0  0  0  0  0  0  0  0
   40.7214    5.2519   -2.1769 C   0  0  0  0  0  0  0  0  0  0  0  0
   46.8007   13.3248   -8.3892 C   0  0  0  0  0  0  0  0  0  0  0  0
   47.7455   13.9655   -9.0888 O   0  0  0  0  0  0  0  0  0  0  0  0
   43.4183    5.8753   -8.9553 C   0  0  1  0  0  0  0  0  0  0  0  0
   43.3227    4.9761   -7.9000 O   0  0  0  0  0  0  0  0  0  0  0  0
   44.6148    7.7560   -4.0678 C   0  0  0  0  0  0  0  0  0  0  0  0
   51.5808    3.6203   -8.1287 C   0  0  0  0  0  0  0  0  0  0  0  0
   52.5887    4.3667   -7.4175 N   0  0  0  0  0  0  0  0  0  0  0  0
   43.3352    6.9755   -3.7502 C   0  0  0  0  0  0  0  0  0  0  0  0
   42.6650    7.5816   -2.5543 N   0  0  0  0  0  0  0  0  0  0  0  0
   41.1491    7.8767   -2.7123 C   0  0  0  0  0  0  0  0  0  0  0  0
  1  2  1  1  0  0  0
  1  9  1  0  0  0  0
  1 35  1  0  0  0  0
  3  4  1  6  0  0  0
  3 11  1  0  0  0  0
  3 45  1  0  0  0  0
  5  6  1  0  0  0  0
  5 12  1  0  0  0  0
  5 37  1  6  0  0  0
  6 30  1  0  0  0  0
  7 14  1  0  0  0  0
  7 41  1  0  0  0  0
  7 23  1  1  0  0  0
  8 16  2  0  0  0  0
  8 42  1  0  0  0  0
  9 10  1  1  0  0  0
  9 18  1  0  0  0  0
 11 20  1  0  0  0  0
 12 13  1  1  0  0  0
 12 22  1  0  0  0  0
 13 47  1  0  0  0  0
 14 15  1  6  0  0  0
 14 24  1  0  0  0  0
 16 17  1  0  0  0  0
 17 26  2  0  0  0  0
 18 19  1  6  0  0  0
 18 27  1  0  0  0  0
 20 21  1  6  0  0  0
 20 29  1  0  0  0  0
 22 23  1  1  0  0  0
 22 30  1  0  0  0  0
 24 25  1  6  0  0  0
 24 31  1  0  0  0  0
 26 33  1  0  0  0  0
 27 28  1  1  0  0  0
 27 34  1  0  0  0  0
 29  2  1  1  0  0  0
 29 36  1  0  0  0  0
 30 38  1  6  0  0  0
 31 32  1  1  0  0  0
 31 40  1  0  0  0  0
 33 42  2  0  0  0  0
 34 35  1  0  0  0  0
 34 43  1  6  0  0  0
 36 37  1  6  0  0  0
 36 45  1  0  0  0  0
 38 39  1  0  0  0  0
 40 41  1  0  0  0  0
 40 48  1  6  0  0  0
 43 44  1  0  0  0  0
 45 46  1  1  0  0  0
 47 50  1  0  0  0  0
 48 49  1  0  0  0  0
 50 51  1  0  0  0  0
 51 52  1  0  0  0  0
 52  8  1  0  0  0  0
M  END
>  <CHROM.1>
-72.78990673,-150.83994685,154.64866435,56.86062677,80.27694558,161.46053916
-34.78182926,131.51135384,-11.26156592,118.93446592,-39.92470393,142.05883838
130.63493630,89.99429330,160.06874681,45.80789308,6.97151203,-7.01495306
0.87548436,0.31607513,-0.75310959

>  <Name>
2be0_lig

>  <RI>
224

>  <Rbt.Current_Directory>
/home/itssahil/PROJECTS/Mol_Feturizer/New_Systems/rnas/2be0

>  <Rbt.Executable>
rbdock ($Id: //depot/dev/client3/rdock/2013.1/src/exe/rbdock.cxx#4 $)

>  <Rbt.Library>
libRbt.so (2013.1, Build901 2013/11/27)

>  <Rbt.Parameter_File>
/export/apps/rDock/src/rDock_2013.1_src/data/scripts/dock_solv.prm

>  <Rbt.Receptor>
prm/blind_docking_100.prm

>  <SCORE>
72.2567

>  <SCORE.INTER>
23.9227

>  <SCORE.INTER.CONST>
1

>  <SCORE.INTER.POLAR>
0

>  <SCORE.INTER.ROT>
15

>  <SCORE.INTER.SOLV>
33.6812

>  <SCORE.INTER.VDW>
-8.87858

>  <SCORE.INTER.norm>
0.460052

>  <SCORE.INTRA>
25.0634

>  <SCORE.INTRA.DIHEDRAL>
-9.93684

>  <SCORE.INTRA.DIHEDRAL.0>
47.8724

>  <SCORE.INTRA.POLAR>
0

>  <SCORE.INTRA.POLAR.0>
0

>  <SCORE.INTRA.REPUL>
0

>  <SCORE.INTRA.REPUL.0>
0

>  <SCORE.INTRA.SOLV>
7.88513

>  <SCORE.INTRA.SOLV.lig_0>
-115.677

>  <SCORE.INTRA.VDW>
26.0893

>  <SCORE.INTRA.VDW.0>
-7.4833

>  <SCORE.INTRA.norm>
0.481989

>  <SCORE.RESTR>
23.2706

>  <SCORE.RESTR.CAVITY>
23.2706

>  <SCORE.RESTR.norm>
0.447512

>  <SCORE.SYSTEM>
0

>  <SCORE.SYSTEM.CONST>
0

>  <SCORE.SYSTEM.DIHEDRAL>
0

>  <SCORE.SYSTEM.SOLV>
0

>  <SCORE.SYSTEM.norm>
0

>  <SCORE.heavy>
52

>  <SCORE.norm>
1.38955

>  <RMSD>
7.875

$$$$
2be0_lig
 OpenBabel11021811423D
libRbt.so/2013.1/901 2013/11/27
 52 56  0  0  0  0  0  0  0  0999 V2000
   44.0709    5.8338   -3.5668 C   0  0  2  0  0  0  0  0  0  0  0  0
   42.6901    5.6177   -3.7382 O   0  0  0  0  0  0  0  0  0  0  0  0
   42.1793    2.0693   -1.1850 C   0  0  2  0  0  0  0  0  0  0  0  0
   41.5010    1.0087   -0.3884 N   0  0  0  0  0  0  0  0  0  0  0  0
   42.5865    2.1338   -5.7590 C   0  0  2  0  0  0  0  0  0  0  0  0
   42.8202    2.6495   -7.0856 O   0  0  0  0  0  0  0  0  0  0  0  0
   38.5426    1.2205   -8.1996 C   0  0  1  0  0  0  0  0  0  0  0  0
   40.6793   -3.7178   -3.0135 C   0  0  0  0  0  0  0  0  0  0  0  0
   44.5358    7.1668   -4.2830 C   0  0  2  0  0  0  0  0  0  0  0  0
   43.7208    8.2903   -3.8161 N   0  0  0  0  0  0  0  0  0  0  0  0
   41.7398    3.5005   -0.6313 C   0  0  0  0  0  0  0  0  0  0  0  0
   41.5680    0.9914   -5.9010 C   0  0  2  0  0  0  0  0  0  0  0  0
   42.4171   -0.1948   -6.2315 O   0  0  0  0  0  0  0  0  0  0  0  0
   37.3966    0.8867   -7.0965 C   0  0  2  0  0  0  0  0  0  0  0  0
   37.3634   -0.5945   -6.8714 N   0  0  0  0  0  0  0  0  0  0  0  0
   41.2394   -4.6368   -2.0666 C   0  0  0  0  0  0  0  0  0  0  0  0
   40.9303   -4.5014   -0.6878 N   0  0  0  0  0  0  0  0  0  0  0  0
   44.4491    6.9831   -5.8688 C   0  0  1  0  0  0  0  0  0  0  0  0
   44.8621    8.1899   -6.4910 O   0  0  0  0  0  0  0  0  0  0  0  0
   42.4526    4.6943   -1.4895 C   0  0  2  0  0  0  0  0  0  0  0  0
   42.0670    5.9877   -0.9996 N   0  0  0  0  0  0  0  0  0  0  0  0
   40.6663    1.6129   -6.9842 C   0  0  2  0  0  0  0  0  0  0  0  0
   39.7926    0.7345   -7.6781 O   0  0  0  0  0  0  0  0  0  0  0  0
   36.0333    1.3958   -7.6543 C   0  0  1  0  0  0  0  0  0  0  0  0
   36.1753    2.8518   -7.8195 O   0  0  0  0  0  0  0  0  0  0  0  0
   40.0772   -3.4798   -0.1812 C   0  0  0  0  0  0  0  0  0  0  0  0
   45.3502    5.7821   -6.2783 C   0  0  2  0  0  0  0  0  0  0  0  0
   45.3075    5.5592   -7.7437 O   0  0  0  0  0  0  0  0  0  0  0  0
   42.0576    4.5665   -3.0183 C   0  0  2  0  0  0  0  0  0  0  0  0
   41.6682    2.3536   -7.9017 C   0  0  1  0  0  0  0  0  0  0  0  0
   35.7079    0.6719   -9.0741 C   0  0  2  0  0  0  0  0  0  0  0  0
   35.5649   -0.7838   -8.9167 O   0  0  0  0  0  0  0  0  0  0  0  0
   39.4936   -2.5433   -1.0696 C   0  0  0  0  0  0  0  0  0  0  0  0
   44.8721    4.4647   -5.5548 C   0  0  2  0  0  0  0  0  0  0  0  0
   44.9325    4.7470   -4.1295 O   0  0  0  0  0  0  0  0  0  0  0  0
   42.4999    3.1440   -3.5082 C   0  0  2  0  0  0  0  0  0  0  0  0
   42.1127    3.1461   -4.8769 O   0  0  0  0  0  0  0  0  0  0  0  0
   41.1219    3.6895   -8.4027 C   0  0  0  0  0  0  0  0  0  0  0  0
   41.9722    4.4063   -9.2656 O   0  0  0  0  0  0  0  0  0  0  0  0
   36.8816    0.9858  -10.1117 C   0  0  1  0  0  0  0  0  0  0  0  0
   38.1915    0.5188   -9.5111 O   0  0  0  0  0  0  0  0  0  0  0  0
   39.7856   -2.6411   -2.5185 C   0  0  0  0  0  0  0  0  0  0  0  0
   45.7714    3.3734   -5.9626 C   0  0  0  0  0  0  0  0  0  0  0  0
   46.9791    3.5626   -5.4164 O   0  0  0  0  0  0  0  0  0  0  0  0
   41.7665    2.0104   -2.6748 C   0  0  1  0  0  0  0  0  0  0  0  0
   42.1764    0.7571   -3.1136 O   0  0  0  0  0  0  0  0  0  0  0  0
   43.3750   -0.9109   -5.3564 C   0  0  0  0  0  0  0  0  0  0  0  0
   36.5236    0.2632  -11.4388 C   0  0  0  0  0  0  0  0  0  0  0  0
   37.5554    0.4712  -12.4242 N   0  0  0  0  0  0  0  0  0  0  0  0
   42.5538   -1.8049   -4.4216 C   0  0  0  0  0  0  0  0  0  0  0  0
   41.5596   -2.5871   -5.2256 N   0  0  0  0  0  0  0  0  0  0  0  0
   41.0452   -3.8958   -4.5675 C   0  0  0  0  0  0  0  0  0  0  0  0
  1  2  1  6  0  0  0
  1  9  1  0  0  0  0
  1 35  1  0  0  0  0
  3  4  1  1  0  0  0
  3 11  1  0  0  0  0
  3 45  1  0  0  0  0
  5  6  1  0  0  0  0
  5 12  1  0  0  0  0
  5 37  1  1  0  0  0
  6 30  1  0  0  0  0
  7 14  1  0  0  0  0
  7 41  1  0  0  0  0
  7 23  1  1  0  0  0
  8 16  2  0  0  0  0
  8 42  1  0  0  0  0
  9 10  1  1  0  0  0
  9 18  1  0  0  0  0
 11 20  1  0  0  0  0
 12 13  1  6  0  0  0
 12 22  1  0  0  0  0
 13 47  1  0  0  0  0
 14 15  1  6  0  0  0
 14 24  1  0  0  0  0
 16 17  1  0  0  0  0
 17 26  2  0  0  0  0
 18 19  1  6  0  0  0
 18 27  1  0  0  0  0
 20 21  1  1  0  0  0
 20 29  1  0  0  0  0
 22 23  1  6  0  0  0
 22 30  1  0  0  0  0
 24 25  1  6  0  0  0
 24 31  1  0  0  0  0
 26 33  1  0  0  0  0
 27 28  1  6  0  0  0
 27 34  1  0  0  0  0
 29  2  1  6  0  0  0
 29 36  1  0  0  0  0
 30 38  1  1  0  0  0
 31 32  1  1  0  0  0
 31 40  1  0  0  0  0
 33 42  2  0  0  0  0
 34 35  1  0  0  0  0
 34 43  1  1  0  0  0
 36 37  1  6  0  0  0
 36 45  1  0  0  0  0
 38 39  1  0  0  0  0
 40 41  1  0  0  0  0
 40 48  1  6  0  0  0
 43 44  1  0  0  0  0
 45 46  1  6  0  0  0
 47 50  1  0  0  0  0
 48 49  1  0  0  0  0
 50 51  1  0  0  0  0
 51 52  1  0  0  0  0
 52  8  1  0  0  0  0
M  END
>  <CHROM.1>
-171.71428201,-144.72651014,-95.55083675,69.40235434,77.70830940,150.65077115
50.22677704,64.94666003,70.01272219,166.95887113,-178.61702401,48.93342502
157.25192115,44.15924376,-128.53641447,41.36255751,1.90012712,-5.41751561
-0.30509140,0.81757524,2.34293278

>  <Name>
2be0_lig

>  <RI>
0

>  <Rbt.Current_Directory>
/home/itssahil/PROJECTS/Mol_Feturizer/New_Systems/rnas/2be0

>  <Rbt.Executable>
rbdock ($Id: //depot/dev/client3/rdock/2013.1/src/exe/rbdock.cxx#4 $)

>  <Rbt.Library>
libRbt.so (2013.1, Build901 2013/11/27)

>  <Rbt.Parameter_File>
/export/apps/rDock/src/rDock_2013.1_src/data/scripts/dock_solv.prm

>  <Rbt.Receptor>
prm/pocket_docking_6.prm

>  <SCORE>
-16.1491

>  <SCORE.INTER>
-1.78185

>  <SCORE.INTER.CONST>
1

>  <SCORE.INTER.POLAR>
-1.21665

>  <SCORE.INTER.ROT>
15

>  <SCORE.INTER.SOLV>
14.807

>  <SCORE.INTER.VDW>
-15.6681

>  <SCORE.INTER.norm>
-0.0342663

>  <SCORE.INTRA>
-14.3673

>  <SCORE.INTRA.DIHEDRAL>
-29.0995

>  <SCORE.INTRA.DIHEDRAL.0>
47.8724

>  <SCORE.INTRA.POLAR>
0

>  <SCORE.INTRA.POLAR.0>
0

>  <SCORE.INTRA.REPUL>
0

>  <SCORE.INTRA.REPUL.0>
0

>  <SCORE.INTRA.SOLV>
-1.48342

>  <SCORE.INTRA.SOLV.lig_0>
-115.677

>  <SCORE.INTRA.VDW>
0.924171

>  <SCORE.INTRA.VDW.0>
-7.4833

>  <SCORE.INTRA.norm>
-0.276294

>  <SCORE.RESTR>
0

>  <SCORE.RESTR.CAVITY>
0

>  <SCORE.RESTR.norm>
0

>  <SCORE.SYSTEM>
0

>  <SCORE.SYSTEM.CONST>
0

>  <SCORE.SYSTEM.DIHEDRAL>
0

>  <SCORE.SYSTEM.SOLV>
0

>  <SCORE.SYSTEM.norm>
0

>  <SCORE.heavy>
52

>  <SCORE.norm>
-0.310561

>  <RMSD>
7.877

$$$$
2be0_lig
 OpenBabel11021811423D
libRbt.so/2013.1/901 2013/11/27
 52 56  0  0  0  0  0  0  0  0999 V2000
   47.5221    3.2150   -6.0265 C   0  0  2  0  0  0  0  0  0  0  0  0
   46.7863    2.9382   -7.1947 O   0  0  0  0  0  0  0  0  0  0  0  0
   42.6259    1.8657   -8.1498 C   0  0  2  0  0  0  0  0  0  0  0  0
   41.2963    1.2018   -8.0453 N   0  0  0  0  0  0  0  0  0  0  0  0
   44.5158    5.6052   -5.8828 C   0  0  2  0  0  0  0  0  0  0  0  0
   45.0138    6.2047   -4.6691 O   0  0  0  0  0  0  0  0  0  0  0  0
   40.8190    6.1599   -2.8578 C   0  0  1  0  0  0  0  0  0  0  0  0
   45.4964   10.2930   -9.9464 C   0  0  0  0  0  0  0  0  0  0  0  0
   48.8869    3.9409   -6.3672 C   0  0  2  0  0  0  0  0  0  0  0  0
   48.6251    5.1359   -7.1722 N   0  0  0  0  0  0  0  0  0  0  0  0
   43.7622    0.7483   -8.2424 C   0  0  0  0  0  0  0  0  0  0  0  0
   43.0337    5.9969   -5.9946 C   0  0  2  0  0  0  0  0  0  0  0  0
   43.0757    7.3389   -6.6540 O   0  0  0  0  0  0  0  0  0  0  0  0
   39.9692    4.7982   -3.1125 C   0  0  2  0  0  0  0  0  0  0  0  0
   38.9521    5.0596   -4.1816 N   0  0  0  0  0  0  0  0  0  0  0  0
   46.2764   10.7744  -11.0485 C   0  0  0  0  0  0  0  0  0  0  0  0
   45.6707   10.9333  -12.3225 N   0  0  0  0  0  0  0  0  0  0  0  0
   49.8669    2.9208   -7.1120 C   0  0  1  0  0  0  0  0  0  0  0  0
   51.0799    3.5923   -7.4149 O   0  0  0  0  0  0  0  0  0  0  0  0
   45.2406    1.4367   -8.3444 C   0  0  2  0  0  0  0  0  0  0  0  0
   46.2720    0.4416   -8.4306 N   0  0  0  0  0  0  0  0  0  0  0  0
   42.6480    5.8866   -4.5074 C   0  0  2  0  0  0  0  0  0  0  0  0
   41.4402    6.5162   -4.1059 O   0  0  0  0  0  0  0  0  0  0  0  0
   39.2789    4.4073   -1.7710 C   0  0  1  0  0  0  0  0  0  0  0  0
   40.3643    4.1599   -0.8077 O   0  0  0  0  0  0  0  0  0  0  0  0
   44.3013   10.6326  -12.5728 C   0  0  0  0  0  0  0  0  0  0  0  0
   50.1005    1.6924   -6.1852 C   0  0  2  0  0  0  0  0  0  0  0  0
   51.0024    0.7051   -6.8263 O   0  0  0  0  0  0  0  0  0  0  0  0
   45.4939    2.3554   -7.0790 C   0  0  2  0  0  0  0  0  0  0  0  0
   43.9034    6.4137   -3.7724 C   0  0  1  0  0  0  0  0  0  0  0  0
   38.3122    5.6157   -1.2700 C   0  0  2  0  0  0  0  0  0  0  0  0
   37.2250    5.8688   -2.2283 O   0  0  0  0  0  0  0  0  0  0  0  0
   43.4806   10.1544  -11.5217 C   0  0  0  0  0  0  0  0  0  0  0  0
   48.7304    0.9835   -5.8570 C   0  0  2  0  0  0  0  0  0  0  0  0
   47.8934    1.9986   -5.2374 O   0  0  0  0  0  0  0  0  0  0  0  0
   44.3483    3.4250   -7.0287 C   0  0  2  0  0  0  0  0  0  0  0  0
   44.6807    4.1909   -5.8770 O   0  0  0  0  0  0  0  0  0  0  0  0
   44.2057    5.6273   -2.4978 C   0  0  0  0  0  0  0  0  0  0  0  0
   44.3258    4.2343   -2.6598 O   0  0  0  0  0  0  0  0  0  0  0  0
   39.1784    6.9447   -1.0793 C   0  0  1  0  0  0  0  0  0  0  0  0
   39.8677    7.2611   -2.3906 O   0  0  0  0  0  0  0  0  0  0  0  0
   44.0655    9.9705  -10.1733 C   0  0  0  0  0  0  0  0  0  0  0  0
   49.0118   -0.1521   -4.9641 C   0  0  0  0  0  0  0  0  0  0  0  0
   49.5933    0.2946   -3.8438 O   0  0  0  0  0  0  0  0  0  0  0  0
   42.9310    2.7236   -6.8991 C   0  0  1  0  0  0  0  0  0  0  0  0
   41.9266    3.6836   -6.8662 O   0  0  0  0  0  0  0  0  0  0  0  0
   43.5587    7.6795   -8.0130 C   0  0  0  0  0  0  0  0  0  0  0  0
   38.2051    8.0614   -0.6133 C   0  0  0  0  0  0  0  0  0  0  0  0
   38.9239    9.2827   -0.3480 N   0  0  0  0  0  0  0  0  0  0  0  0
   45.0744    7.8824   -7.9176 C   0  0  0  0  0  0  0  0  0  0  0  0
   45.3638    9.2956   -7.5104 N   0  0  0  0  0  0  0  0  0  0  0  0
   46.2077   10.1244   -8.5160 C   0  0  0  0  0  0  0  0  0  0  0  0
  1  2  1  6  0  0  0
  1  9  1  0  0  0  0
  1 35  1  0  0  0  0
  3  4  1  1  0  0  0
  3 11  1  0  0  0  0
  3 45  1  0  0  0  0
  5  6  1  0  0  0  0
  5 12  1  0  0  0  0
  5 37  1  1  0  0  0
  6 30  1  0  0  0  0
  7 14  1  0  0  0  0
  7 41  1  0  0  0  0
  7 23  1  6  0  0  0
  8 16  2  0  0  0  0
  8 42  1  0  0  0  0
  9 10  1  6  0  0  0
  9 18  1  0  0  0  0
 11 20  1  0  0  0  0
 12 13  1  1  0  0  0
 12 22  1  0  0  0  0
 13 47  1  0  0  0  0
 14 15  1  6  0  0  0
 14 24  1  0  0  0  0
 16 17  1  0  0  0  0
 17 26  2  0  0  0  0
 18 19  1  1  0  0  0
 18 27  1  0  0  0  0
 20 21  1  1  0  0  0
 20 29  1  0  0  0  0
 22 23  1  6  0  0  0
 22 30  1  0  0  0  0
 24 25  1  1  0  0  0
 24 31  1  0  0  0  0
 26 33  1  0  0  0  0
 27 28  1  6  0  0  0
 27 34  1  0  0  0  0
 29  2  1  6  0  0  0
 29 36  1  0  0  0  0
 30 38  1  1  0  0  0
 31 32  1  6  0  0  0
 31 40  1  0  0  0  0
 33 42  2  0  0  0  0
 34 35  1  0  0  0  0
 34 43  1  1  0  0  0
 36 37  1  1  0  0  0
 36 45  1  0  0  0  0
 38 39  1  0  0  0  0
 40 41  1  0  0  0  0
 40 48  1  6  0  0  0
 43 44  1  0  0  0  0
 45 46  1  6  0  0  0
 47 50  1  0  0  0  0
 48 49  1  0  0  0  0
 50 51  1  0  0  0  0
 51 52  1  0  0  0  0
 52  8  1  0  0  0  0
M  END
>  <CHROM.1>
-176.43318895,-175.05356904,-81.60811924,64.06656625,-85.09162594,162.60895309
-148.43160939,-61.94305364,59.49972673,140.51985335,176.91813102,-85.67495449
-119.92549497,61.32674825,-166.50771118,44.25169886,5.11487442,-5.89717605
-0.01935614,-0.59747082,2.48171619

>  <Name>
2be0_lig

>  <RI>
0

>  <Rbt.Current_Directory>
/home/itssahil/PROJECTS/Mol_Feturizer/New_Systems/rnas/2be0

>  <Rbt.Executable>
rbdock ($Id: //depot/dev/client3/rdock/2013.1/src/exe/rbdock.cxx#4 $)

>  <Rbt.Library>
libRbt.so (2013.1, Build901 2013/11/27)

>  <Rbt.Parameter_File>
/export/apps/rDock/src/rDock_2013.1_src/data/scripts/dock_solv.prm

>  <Rbt.Receptor>
prm/pocket_docking_6.prm

>  <SCORE>
-28.5679

>  <SCORE.INTER>
-15.5153

>  <SCORE.INTER.CONST>
1

>  <SCORE.INTER.POLAR>
-1.72992

>  <SCORE.INTER.ROT>
15

>  <SCORE.INTER.SOLV>
13.3479

>  <SCORE.INTER.VDW>
-22.6264

>  <SCORE.INTER.norm>
-0.298371

>  <SCORE.INTRA>
-13.0526

>  <SCORE.INTRA.DIHEDRAL>
-27.6751

>  <SCORE.INTRA.DIHEDRAL.0>
47.8724

>  <SCORE.INTRA.POLAR>
0

>  <SCORE.INTRA.POLAR.0>
0

>  <SCORE.INTRA.REPUL>
0

>  <SCORE.INTRA.REPUL.0>
0

>  <SCORE.INTRA.SOLV>
-2.08084

>  <SCORE.INTRA.SOLV.lig_0>
-115.677

>  <SCORE.INTRA.VDW>
1.82538

>  <SCORE.INTRA.VDW.0>
-7.4833

>  <SCORE.INTRA.norm>
-0.251011

>  <SCORE.RESTR>
0

>  <SCORE.RESTR.CAVITY>
0

>  <SCORE.RESTR.norm>
0

>  <SCORE.SYSTEM>
0

>  <SCORE.SYSTEM.CONST>
0

>  <SCORE.SYSTEM.DIHEDRAL>
0

>  <SCORE.SYSTEM.SOLV>
0

>  <SCORE.SYSTEM.norm>
0

>  <SCORE.heavy>
52

>  <SCORE.norm>
-0.549382

>  <RMSD>
7.878

$$$$
2be0_lig
 OpenBabel11021811423D
libRbt.so/2013.1/901 2013/11/27
 52 56  0  0  0  0  0  0  0  0999 V2000
   42.4445   -0.6244   -4.5592 C   0  0  2  0  0  0  0  0  0  0  0  0
   43.6122   -1.2625   -5.0198 O   0  0  0  0  0  0  0  0  0  0  0  0
   47.1480    0.4758   -6.9813 C   0  0  2  0  0  0  0  0  0  0  0  0
   47.9916    1.1032   -8.0369 N   0  0  0  0  0  0  0  0  0  0  0  0
   44.1160    2.8721   -4.7718 C   0  0  2  0  0  0  0  0  0  0  0  0
   45.0667    3.0508   -3.7020 O   0  0  0  0  0  0  0  0  0  0  0  0
   40.5714    3.8434   -2.2084 C   0  0  1  0  0  0  0  0  0  0  0  0
   44.2526    6.7412   -7.7226 C   0  0  0  0  0  0  0  0  0  0  0  0
   41.5055   -1.6367   -3.7851 C   0  0  2  0  0  0  0  0  0  0  0  0
   42.2587   -2.2901   -2.7126 N   0  0  0  0  0  0  0  0  0  0  0  0
   46.5307   -0.8841   -7.5452 C   0  0  0  0  0  0  0  0  0  0  0  0
   42.7944    3.4986   -4.2992 C   0  0  2  0  0  0  0  0  0  0  0  0
   42.9467    4.9441   -4.6525 O   0  0  0  0  0  0  0  0  0  0  0  0
   39.9407    4.9074   -1.1541 C   0  0  2  0  0  0  0  0  0  0  0  0
   40.1863    4.4079    0.2373 N   0  0  0  0  0  0  0  0  0  0  0  0
   44.5295    5.5998   -8.5445 C   0  0  0  0  0  0  0  0  0  0  0  0
   44.1373    5.6037   -9.9087 N   0  0  0  0  0  0  0  0  0  0  0  0
   40.8909   -2.6941   -4.8145 C   0  0  1  0  0  0  0  0  0  0  0  0
   40.0594   -3.5957   -4.1005 O   0  0  0  0  0  0  0  0  0  0  0  0
   45.5852   -1.5981   -6.4200 C   0  0  2  0  0  0  0  0  0  0  0  0
   45.0252   -2.8242   -6.9144 N   0  0  0  0  0  0  0  0  0  0  0  0
   42.8417    3.0625   -2.8226 C   0  0  2  0  0  0  0  0  0  0  0  0
   41.9778    3.7400   -1.9220 O   0  0  0  0  0  0  0  0  0  0  0  0
   38.4134    5.0196   -1.4437 C   0  0  1  0  0  0  0  0  0  0  0  0
   38.2930    5.5303   -2.8192 O   0  0  0  0  0  0  0  0  0  0  0  0
   43.4675    6.7020  -10.5197 C   0  0  0  0  0  0  0  0  0  0  0  0
   40.1000   -1.9187   -5.9080 C   0  0  2  0  0  0  0  0  0  0  0  0
   39.5074   -2.8500   -6.8982 O   0  0  0  0  0  0  0  0  0  0  0  0
   44.4179   -0.6143   -5.9966 C   0  0  2  0  0  0  0  0  0  0  0  0
   44.3415    3.1830   -2.4621 C   0  0  1  0  0  0  0  0  0  0  0  0
   37.7102    3.5605   -1.2947 C   0  0  2  0  0  0  0  0  0  0  0  0
   37.8270    3.0435    0.0778 O   0  0  0  0  0  0  0  0  0  0  0  0
   43.1682    7.8581   -9.7576 C   0  0  0  0  0  0  0  0  0  0  0  0
   41.0516   -0.9159   -6.6671 C   0  0  2  0  0  0  0  0  0  0  0  0
   41.6013   -0.0369   -5.6472 O   0  0  0  0  0  0  0  0  0  0  0  0
   45.0758    0.7049   -5.4620 C   0  0  2  0  0  0  0  0  0  0  0  0
   43.9501    1.4975   -5.1041 O   0  0  0  0  0  0  0  0  0  0  0  0
   44.8136    2.0543   -1.5471 C   0  0  0  0  0  0  0  0  0  0  0  0
   44.6122    0.7511   -2.0395 O   0  0  0  0  0  0  0  0  0  0  0  0
   38.3923    2.5355   -2.3131 C   0  0  1  0  0  0  0  0  0  0  0  0
   39.8794    2.4928   -2.0278 O   0  0  0  0  0  0  0  0  0  0  0  0
   43.5560    7.9033   -8.3287 C   0  0  0  0  0  0  0  0  0  0  0  0
   40.2462   -0.1996   -7.6692 C   0  0  0  0  0  0  0  0  0  0  0  0
   41.0291    0.6495   -8.3467 O   0  0  0  0  0  0  0  0  0  0  0  0
   45.9611    1.3868   -6.5883 C   0  0  1  0  0  0  0  0  0  0  0  0
   46.5449    2.5480   -6.0962 O   0  0  0  0  0  0  0  0  0  0  0  0
   42.0599    6.0756   -4.2929 C   0  0  0  0  0  0  0  0  0  0  0  0
   37.6911    1.1636   -2.1186 C   0  0  0  0  0  0  0  0  0  0  0  0
   38.1343    0.5357   -0.8987 N   0  0  0  0  0  0  0  0  0  0  0  0
   42.3357    7.2031   -5.2930 C   0  0  0  0  0  0  0  0  0  0  0  0
   43.7922    7.5552   -5.2585 N   0  0  0  0  0  0  0  0  0  0  0  0
   44.7091    6.7096   -6.1829 C   0  0  0  0  0  0  0  0  0  0  0  0
  1  2  1  6  0  0  0
  1  9  1  0  0  0  0
  1 35  1  0  0  0  0
  3  4  1  6  0  0  0
  3 11  1  0  0  0  0
  3 45  1  0  0  0  0
  5  6  1  0  0  0  0
  5 12  1  0  0  0  0
  5 37  1  1  0  0  0
  6 30  1  0  0  0  0
  7 14  1  0  0  0  0
  7 41  1  0  0  0  0
  7 23  1  1  0  0  0
  8 16  2  0  0  0  0
  8 42  1  0  0  0  0
  9 10  1  1  0  0  0
  9 18  1  0  0  0  0
 11 20  1  0  0  0  0
 12 13  1  1  0  0  0
 12 22  1  0  0  0  0
 13 47  1  0  0  0  0
 14 15  1  1  0  0  0
 14 24  1  0  0  0  0
 16 17  1  0  0  0  0
 17 26  2  0  0  0  0
 18 19  1  1  0  0  0
 18 27  1  0  0  0  0
 20 21  1  6  0  0  0
 20 29  1  0  0  0  0
 22 23  1  1  0  0  0
 22 30  1  0  0  0  0
 24 25  1  6  0  0  0
 24 31  1  0  0  0  0
 26 33  1  0  0  0  0
 27 28  1  6  0  0  0
 27 34  1  0  0  0  0
 29  2  1  1  0  0  0
 29 36  1  0  0  0  0
 30 38  1  1  0  0  0
 31 32  1  1  0  0  0
 31 40  1  0  0  0  0
 33 42  2  0  0  0  0
 34 35  1  0  0  0  0
 34 43  1  6  0  0  0
 36 37  1  6  0  0  0
 36 45  1  0  0  0  0
 38 39  1  0  0  0  0
 40 41  1  0  0  0  0
 40 48  1  1  0  0  0
 43 44  1  0  0  0  0
 45 46  1  1  0  0  0
 47 50  1  0  0  0  0
 48 49  1  0  0  0  0
 50 51  1  0  0  0  0
 51 52  1  0  0  0  0
 52  8  1  0  0  0  0
M  END
>  <CHROM.1>
165.15956570,-55.68233647,-169.07868785,-171.90868065,-159.08068113,52.43954816
-175.21482346,-59.42398319,-179.14813690,-169.74070551,-74.95722643,-56.66542992
86.64674973,56.06218804,-150.27903586,42.45517172,2.19787742,-4.79060955
-2.79772263,0.78023244,-0.00626830

>  <Name>
2be0_lig

>  <RI>
0

>  <Rbt.Current_Directory>
/home/itssahil/PROJECTS/Mol_Feturizer/New_Systems/rnas/2be0

>  <Rbt.Executable>
rbdock ($Id: //depot/dev/client3/rdock/2013.1/src/exe/rbdock.cxx#4 $)

>  <Rbt.Library>
libRbt.so (2013.1, Build901 2013/11/27)

>  <Rbt.Parameter_File>
/export/apps/rDock/src/rDock_2013.1_src/data/scripts/dock_solv.prm

>  <Rbt.Receptor>
prm/pocket_docking_6.prm

>  <SCORE>
-21.5202

>  <SCORE.INTER>
-1.98645

>  <SCORE.INTER.CONST>
1

>  <SCORE.INTER.POLAR>
0

>  <SCORE.INTER.ROT>
15

>  <SCORE.INTER.SOLV>
11.6076

>  <SCORE.INTER.VDW>
-18.7935

>  <SCORE.INTER.norm>
-0.038201

>  <SCORE.INTRA>
-19.5338

>  <SCORE.INTRA.DIHEDRAL>
-40.5166

>  <SCORE.INTRA.DIHEDRAL.0>
47.8724

>  <SCORE.INTRA.POLAR>
0

>  <SCORE.INTRA.POLAR.0>
0

>  <SCORE.INTRA.REPUL>
0

>  <SCORE.INTRA.REPUL.0>
0

>  <SCORE.INTRA.SOLV>
-1.27201

>  <SCORE.INTRA.SOLV.lig_0>
-115.677

>  <SCORE.INTRA.VDW>
1.36056

>  <SCORE.INTRA.VDW.0>
-7.4833

>  <SCORE.INTRA.norm>
-0.375649

>  <SCORE.RESTR>
0

>  <SCORE.RESTR.CAVITY>
0

>  <SCORE.RESTR.norm>
0

>  <SCORE.SYSTEM>
0

>  <SCORE.SYSTEM.CONST>
0

>  <SCORE.SYSTEM.DIHEDRAL>
0

>  <SCORE.SYSTEM.SOLV>
0

>  <SCORE.SYSTEM.norm>
0

>  <SCORE.heavy>
52

>  <SCORE.norm>
-0.41385

>  <RMSD>
7.909

$$$$
2be0_lig
 OpenBabel11021811423D
libRbt.so/2013.1/901 2013/11/27
 52 56  0  0  0  0  0  0  0  0999 V2000
   44.0369    3.3818  -10.5843 C   0  0  2  0  0  0  0  0  0  0  0  0
   43.7249    3.3181   -9.2126 O   0  0  0  0  0  0  0  0  0  0  0  0
   44.9377    7.3730   -8.0050 C   0  0  2  0  0  0  0  0  0  0  0  0
   45.1595    8.5632   -7.1369 N   0  0  0  0  0  0  0  0  0  0  0  0
   46.1596    3.3752   -6.6113 C   0  0  2  0  0  0  0  0  0  0  0  0
   46.8754    4.3264   -5.7969 O   0  0  0  0  0  0  0  0  0  0  0  0
   50.6147    1.6464   -6.0536 C   0  0  1  0  0  0  0  0  0  0  0  0
   42.8772   -1.8029   -3.4960 C   0  0  0  0  0  0  0  0  0  0  0  0
   43.5163    2.0984  -11.3508 C   0  0  2  0  0  0  0  0  0  0  0  0
   42.0849    1.9179  -11.0997 N   0  0  0  0  0  0  0  0  0  0  0  0
   43.3931    6.9726   -7.9582 C   0  0  0  0  0  0  0  0  0  0  0  0
   46.8178    2.0064   -6.3757 C   0  0  2  0  0  0  0  0  0  0  0  0
   46.1333    1.4962   -5.1474 O   0  0  0  0  0  0  0  0  0  0  0  0
   51.3912    0.5181   -5.1788 C   0  0  2  0  0  0  0  0  0  0  0  0
   51.1415    0.7816   -3.7248 N   0  0  0  0  0  0  0  0  0  0  0  0
   41.8383   -1.7131   -2.5124 C   0  0  0  0  0  0  0  0  0  0  0  0
   40.5737   -2.3046   -2.7693 N   0  0  0  0  0  0  0  0  0  0  0  0
   44.3679    0.8220  -10.9019 C   0  0  1  0  0  0  0  0  0  0  0  0
   43.8811   -0.3175  -11.5937 O   0  0  0  0  0  0  0  0  0  0  0  0
   43.1096    5.6595   -8.8885 C   0  0  2  0  0  0  0  0  0  0  0  0
   41.7225    5.2902   -8.8568 N   0  0  0  0  0  0  0  0  0  0  0  0
   48.2874    2.4616   -6.2997 C   0  0  2  0  0  0  0  0  0  0  0  0
   49.2160    1.5511   -5.7294 O   0  0  0  0  0  0  0  0  0  0  0  0
   52.9109    0.6186   -5.5097 C   0  0  1  0  0  0  0  0  0  0  0  0
   53.0380    0.3279   -6.9473 O   0  0  0  0  0  0  0  0  0  0  0  0
   40.2722   -2.9961   -3.9772 C   0  0  0  0  0  0  0  0  0  0  0  0
   45.8682    1.0927  -11.2148 C   0  0  2  0  0  0  0  0  0  0  0  0
   46.7122   -0.0592  -10.8150 O   0  0  0  0  0  0  0  0  0  0  0  0
   43.9938    4.4446   -8.3868 C   0  0  2  0  0  0  0  0  0  0  0  0
   48.2039    3.8174   -5.5589 C   0  0  1  0  0  0  0  0  0  0  0  0
   53.4589    2.1098   -5.1607 C   0  0  2  0  0  0  0  0  0  0  0  0
   53.3345    2.4075   -3.7253 O   0  0  0  0  0  0  0  0  0  0  0  0
   41.2599   -3.1181   -4.9855 C   0  0  0  0  0  0  0  0  0  0  0  0
   46.3679    2.3743  -10.4432 C   0  0  2  0  0  0  0  0  0  0  0  0
   45.5034    3.4619  -10.8728 O   0  0  0  0  0  0  0  0  0  0  0  0
   45.4957    4.8925   -8.4420 C   0  0  2  0  0  0  0  0  0  0  0  0
   46.1879    3.7355   -7.9886 O   0  0  0  0  0  0  0  0  0  0  0  0
   49.1830    4.8484   -6.1180 C   0  0  0  0  0  0  0  0  0  0  0  0
   49.1694    4.9998   -7.5174 O   0  0  0  0  0  0  0  0  0  0  0  0
   52.6367    3.1889   -6.0047 C   0  0  1  0  0  0  0  0  0  0  0  0
   51.1642    3.0252   -5.6891 O   0  0  0  0  0  0  0  0  0  0  0  0
   42.5960   -2.5173   -4.7662 C   0  0  0  0  0  0  0  0  0  0  0  0
   47.7807    2.5909  -10.7941 C   0  0  0  0  0  0  0  0  0  0  0  0
   48.0776    3.8904  -10.6679 O   0  0  0  0  0  0  0  0  0  0  0  0
   45.7412    6.1492   -7.5050 C   0  0  1  0  0  0  0  0  0  0  0  0
   47.0732    6.5398   -7.5729 O   0  0  0  0  0  0  0  0  0  0  0  0
   45.9297    2.1906   -3.8541 C   0  0  0  0  0  0  0  0  0  0  0  0
   53.1934    4.5876   -5.6236 C   0  0  0  0  0  0  0  0  0  0  0  0
   53.0667    4.8149   -4.2055 N   0  0  0  0  0  0  0  0  0  0  0  0
   45.5069    1.1305   -2.8321 C   0  0  0  0  0  0  0  0  0  0  0  0
   44.2838    0.4197   -3.3277 N   0  0  0  0  0  0  0  0  0  0  0  0
   44.2986   -1.1255   -3.1778 C   0  0  0  0  0  0  0  0  0  0  0  0
  1  2  1  1  0  0  0
  1  9  1  0  0  0  0
  1 35  1  0  0  0  0
  3  4  1  1  0  0  0
  3 11  1  0  0  0  0
  3 45  1  0  0  0  0
  5  6  1  0  0  0  0
  5 12  1  0  0  0  0
  5 37  1  6  0  0  0
  6 30  1  0  0  0  0
  7 14  1  0  0  0  0
  7 41  1  0  0  0  0
  7 23  1  1  0  0  0
  8 16  2  0  0  0  0
  8 42  1  0  0  0  0
  9 10  1  1  0  0  0
  9 18  1  0  0  0  0
 11 20  1  0  0  0  0
 12 13  1  1  0  0  0
 12 22  1  0  0  0  0
 13 47  1  0  0  0  0
 14 15  1  1  0  0  0
 14 24  1  0  0  0  0
 16 17  1  0  0  0  0
 17 26  2  0  0  0  0
 18 19  1  6  0  0  0
 18 27  1  0  0  0  0
 20 21  1  1  0  0  0
 20 29  1  0  0  0  0
 22 23  1  1  0  0  0
 22 30  1  0  0  0  0
 24 25  1  6  0  0  0
 24 31  1  0  0  0  0
 26 33  1  0  0  0  0
 27 28  1  1  0  0  0
 27 34  1  0  0  0  0
 29  2  1  6  0  0  0
 29 36  1  0  0  0  0
 30 38  1  6  0  0  0
 31 32  1  1  0  0  0
 31 40  1  0  0  0  0
 33 42  2  0  0  0  0
 34 35  1  0  0  0  0
 34 43  1  6  0  0  0
 36 37  1  1  0  0  0
 36 45  1  0  0  0  0
 38 39  1  0  0  0  0
 40 41  1  0  0  0  0
 40 48  1  1  0  0  0
 43 44  1  0  0  0  0
 45 46  1  6  0  0  0
 47 50  1  0  0  0  0
 48 49  1  0  0  0  0
 50 51  1  0  0  0  0
 51 52  1  0  0  0  0
 52  8  1  0  0  0  0
M  END
>  <CHROM.1>
-173.68273130,-67.94776140,177.10011361,-50.33421179,-165.77708920,156.73278191
63.08995535,-67.07022655,153.45187967,-73.60528703,-58.20301298,-56.50518414
135.51309480,170.42061167,-76.32900396,46.68766001,2.44452128,-6.93867654
3.11976883,0.28244170,2.34295610

>  <Name>
2be0_lig

>  <RI>
3.37048e+07

>  <Rbt.Current_Directory>
/home/itssahil/PROJECTS/Mol_Feturizer/New_Systems/rnas/2be0

>  <Rbt.Executable>
rbdock ($Id: //depot/dev/client3/rdock/2013.1/src/exe/rbdock.cxx#4 $)

>  <Rbt.Library>
libRbt.so (2013.1, Build901 2013/11/27)

>  <Rbt.Parameter_File>
/export/apps/rDock/src/rDock_2013.1_src/data/scripts/dock_solv.prm

>  <Rbt.Receptor>
prm/pocket_docking_8.prm

>  <SCORE>
-25.5446

>  <SCORE.INTER>
-10.7801

>  <SCORE.INTER.CONST>
1

>  <SCORE.INTER.POLAR>
-2.88936

>  <SCORE.INTER.ROT>
15

>  <SCORE.INTER.SOLV>
16.1973

>  <SCORE.INTER.VDW>
-16.5546

>  <SCORE.INTER.norm>
-0.20731

>  <SCORE.INTRA>
-14.7645

>  <SCORE.INTRA.DIHEDRAL>
-38.0136

>  <SCORE.INTRA.DIHEDRAL.0>
47.8724

>  <SCORE.INTRA.POLAR>
0

>  <SCORE.INTRA.POLAR.0>
0

>  <SCORE.INTRA.REPUL>
0

>  <SCORE.INTRA.REPUL.0>
0

>  <SCORE.INTRA.SOLV>
1.32052

>  <SCORE.INTRA.SOLV.lig_0>
-115.677

>  <SCORE.INTRA.VDW>
3.58206

>  <SCORE.INTRA.VDW.0>
-7.4833

>  <SCORE.INTRA.norm>
-0.283932

>  <SCORE.RESTR>
0

>  <SCORE.RESTR.CAVITY>
0

>  <SCORE.RESTR.norm>
0

>  <SCORE.SYSTEM>
0

>  <SCORE.SYSTEM.CONST>
0

>  <SCORE.SYSTEM.DIHEDRAL>
0

>  <SCORE.SYSTEM.SOLV>
0

>  <SCORE.SYSTEM.norm>
0

>  <SCORE.heavy>
52

>  <SCORE.norm>
-0.491242

>  <RMSD>
7.911

$$$$
2be0_lig
 OpenBabel11021811423D
libRbt.so/2013.1/901 2013/11/27
 52 56  0  0  0  0  0  0  0  0999 V2000
   42.9773    6.9052   -9.7410 C   0  0  2  0  0  0  0  0  0  0  0  0
   42.2745    7.3059   -8.5885 O   0  0  0  0  0  0  0  0  0  0  0  0
   40.0412    5.2026   -5.4327 C   0  0  2  0  0  0  0  0  0  0  0  0
   39.6774    4.1457   -4.4477 N   0  0  0  0  0  0  0  0  0  0  0  0
   43.7729    7.2281   -4.7243 C   0  0  2  0  0  0  0  0  0  0  0  0
   44.9583    8.0388   -4.5895 O   0  0  0  0  0  0  0  0  0  0  0  0
   47.8851    5.1079   -5.3945 C   0  0  1  0  0  0  0  0  0  0  0  0
   42.0261    6.8353    1.4664 C   0  0  0  0  0  0  0  0  0  0  0  0
   44.5068    6.6523   -9.4209 C   0  0  2  0  0  0  0  0  0  0  0  0
   44.6307    5.6978   -8.3172 N   0  0  0  0  0  0  0  0  0  0  0  0
   40.1426    4.5500   -6.8860 C   0  0  0  0  0  0  0  0  0  0  0  0
   44.2310    5.7618   -4.6735 C   0  0  2  0  0  0  0  0  0  0  0  0
   44.2890    5.4644   -3.2087 O   0  0  0  0  0  0  0  0  0  0  0  0
   48.2591    5.5858   -6.9021 C   0  0  2  0  0  0  0  0  0  0  0  0
   47.8934    4.4910   -7.8578 N   0  0  0  0  0  0  0  0  0  0  0  0
   40.9778    6.6187    0.5130 C   0  0  0  0  0  0  0  0  0  0  0  0
   39.6996    6.1911    0.9582 N   0  0  0  0  0  0  0  0  0  0  0  0
   45.2241    8.0428   -9.0927 C   0  0  1  0  0  0  0  0  0  0  0  0
   46.5906    7.7936   -8.8015 O   0  0  0  0  0  0  0  0  0  0  0  0
   40.5545    5.6761   -7.9960 C   0  0  2  0  0  0  0  0  0  0  0  0
   40.6469    5.1020   -9.3087 N   0  0  0  0  0  0  0  0  0  0  0  0
   45.5367    5.8948   -5.4798 C   0  0  2  0  0  0  0  0  0  0  0  0
   46.4729    4.8326   -5.3711 O   0  0  0  0  0  0  0  0  0  0  0  0
   49.7900    5.8748   -6.9463 C   0  0  1  0  0  0  0  0  0  0  0  0
   50.0292    6.9676   -5.9893 O   0  0  0  0  0  0  0  0  0  0  0  0
   39.3941    5.9582    2.3295 C   0  0  0  0  0  0  0  0  0  0  0  0
   45.0558    8.9881  -10.3175 C   0  0  2  0  0  0  0  0  0  0  0  0
   45.7000   10.3007  -10.0701 O   0  0  0  0  0  0  0  0  0  0  0  0
   41.9420    6.3332   -7.6053 C   0  0  2  0  0  0  0  0  0  0  0  0
   46.0934    7.2682   -5.0349 C   0  0  1  0  0  0  0  0  0  0  0  0
   50.6205    4.5387   -6.5325 C   0  0  2  0  0  0  0  0  0  0  0  0
   50.3860    3.4419   -7.4845 O   0  0  0  0  0  0  0  0  0  0  0  0
   40.3898    6.1566    3.3175 C   0  0  0  0  0  0  0  0  0  0  0  0
   43.5267    9.2274  -10.6208 C   0  0  2  0  0  0  0  0  0  0  0  0
   42.9537    7.9105  -10.8497 O   0  0  0  0  0  0  0  0  0  0  0  0
   41.7919    6.9478   -6.1704 C   0  0  2  0  0  0  0  0  0  0  0  0
   43.0752    7.5132   -5.9324 O   0  0  0  0  0  0  0  0  0  0  0  0
   46.7310    8.0402   -6.1889 C   0  0  0  0  0  0  0  0  0  0  0  0
   45.9967    9.1463   -6.6566 O   0  0  0  0  0  0  0  0  0  0  0  0
   50.1871    4.0768   -5.0656 C   0  0  1  0  0  0  0  0  0  0  0  0
   48.6889    3.8530   -5.0555 O   0  0  0  0  0  0  0  0  0  0  0  0
   41.7408    6.6019    2.9042 C   0  0  0  0  0  0  0  0  0  0  0  0
   43.4315   10.1072  -11.7968 C   0  0  0  0  0  0  0  0  0  0  0  0
   43.9348   11.3108  -11.4955 O   0  0  0  0  0  0  0  0  0  0  0  0
   41.4221    5.8231   -5.1142 C   0  0  1  0  0  0  0  0  0  0  0  0
   41.2826    6.3848   -3.8506 O   0  0  0  0  0  0  0  0  0  0  0  0
   43.9449    6.3562   -2.0763 C   0  0  0  0  0  0  0  0  0  0  0  0
   51.0004    2.7970   -4.7307 C   0  0  0  0  0  0  0  0  0  0  0  0
   50.6443    1.7217   -5.6227 N   0  0  0  0  0  0  0  0  0  0  0  0
   43.7571    5.4689   -0.8414 C   0  0  0  0  0  0  0  0  0  0  0  0
   44.3222    6.1621    0.3615 N   0  0  0  0  0  0  0  0  0  0  0  0
   43.4620    7.3205    0.9343 C   0  0  0  0  0  0  0  0  0  0  0  0
  1  2  1  1  0  0  0
  1  9  1  0  0  0  0
  1 35  1  0  0  0  0
  3  4  1  1  0  0  0
  3 11  1  0  0  0  0
  3 45  1  0  0  0  0
  5  6  1  0  0  0  0
  5 12  1  0  0  0  0
  5 37  1  6  0  0  0
  6 30  1  0  0  0  0
  7 14  1  0  0  0  0
  7 41  1  0  0  0  0
  7 23  1  6  0  0  0
  8 16  2  0  0  0  0
  8 42  1  0  0  0  0
  9 10  1  1  0  0  0
  9 18  1  0  0  0  0
 11 20  1  0  0  0  0
 12 13  1  1  0  0  0
 12 22  1  0  0  0  0
 13 47  1  0  0  0  0
 14 15  1  6  0  0  0
 14 24  1  0  0  0  0
 16 17  1  0  0  0  0
 17 26  2  0  0  0  0
 18 19  1  6  0  0  0
 18 27  1  0  0  0  0
 20 21  1  6  0  0  0
 20 29  1  0  0  0  0
 22 23  1  1  0  0  0
 22 30  1  0  0  0  0
 24 25  1  1  0  0  0
 24 31  1  0  0  0  0
 26 33  1  0  0  0  0
 27 28  1  1  0  0  0
 27 34  1  0  0  0  0
 29  2  1  6  0  0  0
 29 36  1  0  0  0  0
 30 38  1  6  0  0  0
 31 32  1  6  0  0  0
 31 40  1  0  0  0  0
 33 42  2  0  0  0  0
 34 35  1  0  0  0  0
 34 43  1  6  0  0  0
 36 37  1  1  0  0  0
 36 45  1  0  0  0  0
 38 39  1  0  0  0  0
 40 41  1  0  0  0  0
 40 48  1  6  0  0  0
 43 44  1  0  0  0  0
 45 46  1  1  0  0  0
 47 50  1  0  0  0  0
 48 49  1  0  0  0  0
 50 51  1  0  0  0  0
 51 52  1  0  0  0  0
 52  8  1  0  0  0  0
M  END
>  <CHROM.1>
-75.78509205,-171.78984037,-69.53118211,1.76816231,162.83449645,-144.70708788
-87.37660595,-8.80897366,-65.38847713,-129.78860830,-64.23601477,141.55700611
75.65279813,62.70540961,-79.95661382,44.56493076,6.40820087,-5.57070343,1.05478651
0.28770815,-1.30288577

>  <Name>
2be0_lig

>  <RI>
224

>  <Rbt.Current_Directory>
/home/itssahil/PROJECTS/Mol_Feturizer/New_Systems/rnas/2be0

>  <Rbt.Executable>
rbdock ($Id: //depot/dev/client3/rdock/2013.1/src/exe/rbdock.cxx#4 $)

>  <Rbt.Library>
libRbt.so (2013.1, Build901 2013/11/27)

>  <Rbt.Parameter_File>
/export/apps/rDock/src/rDock_2013.1_src/data/scripts/dock_solv.prm

>  <Rbt.Receptor>
prm/blind_docking_100.prm

>  <SCORE>
39.5914

>  <SCORE.INTER>
18.3539

>  <SCORE.INTER.CONST>
1

>  <SCORE.INTER.POLAR>
-0.133567

>  <SCORE.INTER.ROT>
15

>  <SCORE.INTER.SOLV>
22.2173

>  <SCORE.INTER.VDW>
-8.32465

>  <SCORE.INTER.norm>
0.352959

>  <SCORE.INTRA>
6.68736

>  <SCORE.INTRA.DIHEDRAL>
-13.3423

>  <SCORE.INTRA.DIHEDRAL.0>
47.8724

>  <SCORE.INTRA.POLAR>
0

>  <SCORE.INTRA.POLAR.0>
0

>  <SCORE.INTRA.REPUL>
0

>  <SCORE.INTRA.REPUL.0>
0

>  <SCORE.INTRA.SOLV>
8.70493

>  <SCORE.INTRA.SOLV.lig_0>
-115.677

>  <SCORE.INTRA.VDW>
9.00603

>  <SCORE.INTRA.VDW.0>
-7.4833

>  <SCORE.INTRA.norm>
0.128603

>  <SCORE.RESTR>
14.5502

>  <SCORE.RESTR.CAVITY>
14.5502

>  <SCORE.RESTR.norm>
0.279812

>  <SCORE.SYSTEM>
0

>  <SCORE.SYSTEM.CONST>
0

>  <SCORE.SYSTEM.DIHEDRAL>
0

>  <SCORE.SYSTEM.SOLV>
0

>  <SCORE.SYSTEM.norm>
0

>  <SCORE.heavy>
52

>  <SCORE.norm>
0.761374

>  <RMSD>
7.929

$$$$
2be0_lig
 OpenBabel11021811423D
libRbt.so/2013.1/901 2013/11/27
 52 56  0  0  0  0  0  0  0  0999 V2000
   43.5573    8.9268   -8.7117 C   0  0  2  0  0  0  0  0  0  0  0  0
   44.1029    7.6762   -8.3638 O   0  0  0  0  0  0  0  0  0  0  0  0
   40.6446    5.8485   -6.3463 C   0  0  2  0  0  0  0  0  0  0  0  0
   39.8485    4.8745   -5.5481 N   0  0  0  0  0  0  0  0  0  0  0  0
   44.1495    7.4660   -4.4341 C   0  0  2  0  0  0  0  0  0  0  0  0
   45.5310    7.7784   -4.1617 O   0  0  0  0  0  0  0  0  0  0  0  0
   46.2201    3.6273   -6.3985 C   0  0  1  0  0  0  0  0  0  0  0  0
   41.6145    7.3280    1.8843 C   0  0  0  0  0  0  0  0  0  0  0  0
   43.3691    9.0543  -10.2783 C   0  0  2  0  0  0  0  0  0  0  0  0
   42.5756    7.9282  -10.7752 N   0  0  0  0  0  0  0  0  0  0  0  0
   41.3282    5.0857   -7.5707 C   0  0  0  0  0  0  0  0  0  0  0  0
   44.0478    5.9341   -4.5073 C   0  0  2  0  0  0  0  0  0  0  0  0
   43.8765    5.5265   -3.0784 O   0  0  0  0  0  0  0  0  0  0  0  0
   47.8403    3.6763   -6.5163 C   0  0  2  0  0  0  0  0  0  0  0  0
   48.2774    5.1096   -6.5365 N   0  0  0  0  0  0  0  0  0  0  0  0
   42.3476    6.4629    2.7612 C   0  0  0  0  0  0  0  0  0  0  0  0
   41.7751    6.0664    3.9982 N   0  0  0  0  0  0  0  0  0  0  0  0
   44.7999    9.1366  -10.9865 C   0  0  1  0  0  0  0  0  0  0  0  0
   44.6094    9.2426  -12.3889 O   0  0  0  0  0  0  0  0  0  0  0  0
   42.2243    6.1186   -8.4652 C   0  0  2  0  0  0  0  0  0  0  0  0
   42.8432    5.4449   -9.5718 N   0  0  0  0  0  0  0  0  0  0  0  0
   45.3759    5.6443   -5.2319 C   0  0  2  0  0  0  0  0  0  0  0  0
   45.8588    4.3097   -5.1842 O   0  0  0  0  0  0  0  0  0  0  0  0
   48.2460    2.9520   -7.8353 C   0  0  1  0  0  0  0  0  0  0  0  0
   47.7852    1.5606   -7.6980 O   0  0  0  0  0  0  0  0  0  0  0  0
   40.4852    6.4910    4.4271 C   0  0  0  0  0  0  0  0  0  0  0  0
   45.5672   10.3626  -10.4117 C   0  0  2  0  0  0  0  0  0  0  0  0
   46.9090   10.4893  -11.0303 O   0  0  0  0  0  0  0  0  0  0  0  0
   43.3395    6.7857   -7.5591 C   0  0  2  0  0  0  0  0  0  0  0  0
   46.3482    6.6842   -4.6260 C   0  0  1  0  0  0  0  0  0  0  0  0
   47.5439    3.6809   -9.1088 C   0  0  2  0  0  0  0  0  0  0  0  0
   47.9996    5.0724   -9.2521 O   0  0  0  0  0  0  0  0  0  0  0  0
   39.7134    7.3457    3.6020 C   0  0  0  0  0  0  0  0  0  0  0  0
   45.7443   10.2176   -8.8512 C   0  0  2  0  0  0  0  0  0  0  0  0
   44.4016   10.0943   -8.3064 O   0  0  0  0  0  0  0  0  0  0  0  0
   42.6181    7.5097   -6.3699 C   0  0  2  0  0  0  0  0  0  0  0  0
   43.7004    8.0751   -5.6403 O   0  0  0  0  0  0  0  0  0  0  0  0
   47.3111    7.2565   -5.6649 C   0  0  0  0  0  0  0  0  0  0  0  0
   46.7083    7.7987   -6.8155 O   0  0  0  0  0  0  0  0  0  0  0  0
   45.9566    3.6529   -8.9283 C   0  0  1  0  0  0  0  0  0  0  0  0
   45.6106    4.3235   -7.6149 O   0  0  0  0  0  0  0  0  0  0  0  0
   40.2665    7.7888    2.3012 C   0  0  0  0  0  0  0  0  0  0  0  0
   46.4542   11.4112   -8.3642 C   0  0  0  0  0  0  0  0  0  0  0  0
   47.7434   11.3391   -8.7185 O   0  0  0  0  0  0  0  0  0  0  0  0
   41.7830    6.4737   -5.5058 C   0  0  1  0  0  0  0  0  0  0  0  0
   41.1421    7.1319   -4.4629 O   0  0  0  0  0  0  0  0  0  0  0  0
   43.7495    6.3953   -1.8845 C   0  0  0  0  0  0  0  0  0  0  0  0
   45.3439    4.3691  -10.1625 C   0  0  0  0  0  0  0  0  0  0  0  0
   45.5490    3.5873  -11.3564 N   0  0  0  0  0  0  0  0  0  0  0  0
   42.4266    7.1568   -2.0168 C   0  0  0  0  0  0  0  0  0  0  0  0
   41.6565    7.0450   -0.7358 N   0  0  0  0  0  0  0  0  0  0  0  0
   42.2862    7.7593    0.4904 C   0  0  0  0  0  0  0  0  0  0  0  0
  1  2  1  6  0  0  0
  1  9  1  0  0  0  0
  1 35  1  0  0  0  0
  3  4  1  1  0  0  0
  3 11  1  0  0  0  0
  3 45  1  0  0  0  0
  5  6  1  0  0  0  0
  5 12  1  0  0  0  0
  5 37  1  6  0  0  0
  6 30  1  0  0  0  0
  7 14  1  0  0  0  0
  7 41  1  0  0  0  0
  7 23  1  1  0  0  0
  8 16  2  0  0  0  0
  8 42  1  0  0  0  0
  9 10  1  6  0  0  0
  9 18  1  0  0  0  0
 11 20  1  0  0  0  0
 12 13  1  1  0  0  0
 12 22  1  0  0  0  0
 13 47  1  0  0  0  0
 14 15  1  6  0  0  0
 14 24  1  0  0  0  0
 16 17  1  0  0  0  0
 17 26  2  0  0  0  0
 18 19  1  6  0  0  0
 18 27  1  0  0  0  0
 20 21  1  6  0  0  0
 20 29  1  0  0  0  0
 22 23  1  1  0  0  0
 22 30  1  0  0  0  0
 24 25  1  1  0  0  0
 24 31  1  0  0  0  0
 26 33  1  0  0  0  0
 27 28  1  6  0  0  0
 27 34  1  0  0  0  0
 29  2  1  6  0  0  0
 29 36  1  0  0  0  0
 30 38  1  6  0  0  0
 31 32  1  1  0  0  0
 31 40  1  0  0  0  0
 33 42  2  0  0  0  0
 34 35  1  0  0  0  0
 34 43  1  1  0  0  0
 36 37  1  1  0  0  0
 36 45  1  0  0  0  0
 38 39  1  0  0  0  0
 40 41  1  0  0  0  0
 40 48  1  6  0  0  0
 43 44  1  0  0  0  0
 45 46  1  1  0  0  0
 47 50  1  0  0  0  0
 48 49  1  0  0  0  0
 50 51  1  0  0  0  0
 51 52  1  0  0  0  0
 52  8  1  0  0  0  0
M  END
>  <CHROM.1>
-117.02498691,154.69427349,101.09477262,3.41403053,66.22682794,128.01826491
76.35982646,-62.60393285,-73.74898106,-102.87503906,68.43140159,130.94820581
66.89984139,-166.62706577,106.18360506,44.31351935,6.73238749,-5.94247276
0.86579766,0.97777400,-0.92115670

>  <Name>
2be0_lig

>  <RI>
224

>  <Rbt.Current_Directory>
/home/itssahil/PROJECTS/Mol_Feturizer/New_Systems/rnas/2be0

>  <Rbt.Executable>
rbdock ($Id: //depot/dev/client3/rdock/2013.1/src/exe/rbdock.cxx#4 $)

>  <Rbt.Library>
libRbt.so (2013.1, Build901 2013/11/27)

>  <Rbt.Parameter_File>
/export/apps/rDock/src/rDock_2013.1_src/data/scripts/dock_solv.prm

>  <Rbt.Receptor>
prm/blind_docking_100.prm

>  <SCORE>
59.694

>  <SCORE.INTER>
23.6655

>  <SCORE.INTER.CONST>
1

>  <SCORE.INTER.POLAR>
-0.0997464

>  <SCORE.INTER.ROT>
15

>  <SCORE.INTER.SOLV>
25.7541

>  <SCORE.INTER.VDW>
-6.07521

>  <SCORE.INTER.norm>
0.455106

>  <SCORE.INTRA>
17.0563

>  <SCORE.INTRA.DIHEDRAL>
-4.54398

>  <SCORE.INTRA.DIHEDRAL.0>
47.8724

>  <SCORE.INTRA.POLAR>
0

>  <SCORE.INTRA.POLAR.0>
0

>  <SCORE.INTRA.REPUL>
0.222751

>  <SCORE.INTRA.REPUL.0>
0

>  <SCORE.INTRA.SOLV>
9.00821

>  <SCORE.INTRA.SOLV.lig_0>
-115.677

>  <SCORE.INTRA.VDW>
13.7104

>  <SCORE.INTRA.VDW.0>
-7.4833

>  <SCORE.INTRA.norm>
0.328006

>  <SCORE.RESTR>
18.9721

>  <SCORE.RESTR.CAVITY>
18.9721

>  <SCORE.RESTR.norm>
0.364849

>  <SCORE.SYSTEM>
0

>  <SCORE.SYSTEM.CONST>
0

>  <SCORE.SYSTEM.DIHEDRAL>
0

>  <SCORE.SYSTEM.SOLV>
0

>  <SCORE.SYSTEM.norm>
0

>  <SCORE.heavy>
52

>  <SCORE.norm>
1.14796

>  <RMSD>
7.940

$$$$
2be0_lig
 OpenBabel11021811423D
libRbt.so/2013.1/901 2013/11/27
 52 56  0  0  0  0  0  0  0  0999 V2000
   41.1577    1.4030   -3.6979 C   0  0  2  0  0  0  0  0  0  0  0  0
   41.4809    0.0331   -3.6559 O   0  0  0  0  0  0  0  0  0  0  0  0
   44.2132   -2.2166   -6.2721 C   0  0  2  0  0  0  0  0  0  0  0  0
   44.7259   -2.9163   -7.4833 N   0  0  0  0  0  0  0  0  0  0  0  0
   44.1099    2.2919   -5.8546 C   0  0  2  0  0  0  0  0  0  0  0  0
   45.2798    2.1345   -5.0258 O   0  0  0  0  0  0  0  0  0  0  0  0
   42.7577    5.9794   -3.4557 C   0  0  1  0  0  0  0  0  0  0  0  0
   44.3749    4.5449  -10.4478 C   0  0  0  0  0  0  0  0  0  0  0  0
   40.5045    1.8799   -2.3371 C   0  0  2  0  0  0  0  0  0  0  0  0
   41.3841    1.5359   -1.2179 N   0  0  0  0  0  0  0  0  0  0  0  0
   42.8296   -2.8799   -5.8317 C   0  0  0  0  0  0  0  0  0  0  0  0
   43.6460    3.7485   -5.6940 C   0  0  2  0  0  0  0  0  0  0  0  0
   44.4751    4.4915   -6.6930 O   0  0  0  0  0  0  0  0  0  0  0  0
   43.1715    7.5205   -3.1473 C   0  0  2  0  0  0  0  0  0  0  0  0
   44.0705    7.5458   -1.9485 N   0  0  0  0  0  0  0  0  0  0  0  0
   44.4792    4.5394  -11.8775 C   0  0  0  0  0  0  0  0  0  0  0  0
   45.5967    3.9229  -12.4988 N   0  0  0  0  0  0  0  0  0  0  0  0
   39.0535    1.2275   -2.1799 C   0  0  1  0  0  0  0  0  0  0  0  0
   38.4891    1.6609   -0.9520 O   0  0  0  0  0  0  0  0  0  0  0  0
   42.2252   -2.1300   -4.5117 C   0  0  2  0  0  0  0  0  0  0  0  0
   40.9810   -2.7191   -4.1038 N   0  0  0  0  0  0  0  0  0  0  0  0
   43.9250    3.9200   -4.1889 C   0  0  2  0  0  0  0  0  0  0  0  0
   43.9749    5.2483   -3.6894 O   0  0  0  0  0  0  0  0  0  0  0  0
   41.8625    8.3226   -2.8784 C   0  0  1  0  0  0  0  0  0  0  0  0
   41.0711    8.2438   -4.1173 O   0  0  0  0  0  0  0  0  0  0  0  0
   46.6444    3.2971  -11.7647 C   0  0  0  0  0  0  0  0  0  0  0  0
   38.1846    1.6527   -3.3991 C   0  0  2  0  0  0  0  0  0  0  0  0
   36.8227    1.0725   -3.3111 O   0  0  0  0  0  0  0  0  0  0  0  0
   42.0082   -0.5914   -4.8201 C   0  0  2  0  0  0  0  0  0  0  0  0
   45.2322    3.1206   -3.9741 C   0  0  1  0  0  0  0  0  0  0  0  0
   41.0579    7.6701   -1.6243 C   0  0  2  0  0  0  0  0  0  0  0  0
   41.8432    7.7449   -0.3825 O   0  0  0  0  0  0  0  0  0  0  0  0
   46.5954    3.2703  -10.3491 C   0  0  0  0  0  0  0  0  0  0  0  0
   38.8514    1.1696   -4.7442 C   0  0  2  0  0  0  0  0  0  0  0  0
   40.1777    1.7655   -4.7695 O   0  0  0  0  0  0  0  0  0  0  0  0
   43.3901    0.0075   -5.2567 C   0  0  2  0  0  0  0  0  0  0  0  0
   43.0816    1.3759   -5.4926 O   0  0  0  0  0  0  0  0  0  0  0  0
   45.2392    2.3598   -2.6492 C   0  0  0  0  0  0  0  0  0  0  0  0
   46.3654    1.5461   -2.4240 O   0  0  0  0  0  0  0  0  0  0  0  0
   40.7143    6.1440   -1.9498 C   0  0  1  0  0  0  0  0  0  0  0  0
   42.0072    5.4140   -2.2504 O   0  0  0  0  0  0  0  0  0  0  0  0
   45.4501    3.9008   -9.6527 C   0  0  0  0  0  0  0  0  0  0  0  0
   37.9993    1.6176   -5.8574 C   0  0  0  0  0  0  0  0  0  0  0  0
   36.9600    0.7835   -5.9875 O   0  0  0  0  0  0  0  0  0  0  0  0
   43.9321   -0.7223   -6.5571 C   0  0  1  0  0  0  0  0  0  0  0  0
   45.1611   -0.1877   -6.9250 O   0  0  0  0  0  0  0  0  0  0  0  0
   44.6047    5.9572   -6.8702 C   0  0  0  0  0  0  0  0  0  0  0  0
   39.9600    5.5729   -0.7184 C   0  0  0  0  0  0  0  0  0  0  0  0
   38.6608    6.1850   -0.5905 N   0  0  0  0  0  0  0  0  0  0  0  0
   43.2986    6.4550   -7.4976 C   0  0  0  0  0  0  0  0  0  0  0  0
   43.4596    6.5374   -8.9855 N   0  0  0  0  0  0  0  0  0  0  0  0
   43.0988    5.2485   -9.7721 C   0  0  0  0  0  0  0  0  0  0  0  0
  1  2  1  1  0  0  0
  1  9  1  0  0  0  0
  1 35  1  0  0  0  0
  3  4  1  6  0  0  0
  3 11  1  0  0  0  0
  3 45  1  0  0  0  0
  5  6  1  0  0  0  0
  5 12  1  0  0  0  0
  5 37  1  1  0  0  0
  6 30  1  0  0  0  0
  7 14  1  0  0  0  0
  7 41  1  0  0  0  0
  7 23  1  1  0  0  0
  8 16  2  0  0  0  0
  8 42  1  0  0  0  0
  9 10  1  1  0  0  0
  9 18  1  0  0  0  0
 11 20  1  0  0  0  0
 12 13  1  6  0  0  0
 12 22  1  0  0  0  0
 13 47  1  0  0  0  0
 14 15  1  1  0  0  0
 14 24  1  0  0  0  0
 16 17  1  0  0  0  0
 17 26  2  0  0  0  0
 18 19  1  1  0  0  0
 18 27  1  0  0  0  0
 20 21  1  6  0  0  0
 20 29  1  0  0  0  0
 22 23  1  6  0  0  0
 22 30  1  0  0  0  0
 24 25  1  6  0  0  0
 24 31  1  0  0  0  0
 26 33  1  0  0  0  0
 27 28  1  1  0  0  0
 27 34  1  0  0  0  0
 29  2  1  1  0  0  0
 29 36  1  0  0  0  0
 30 38  1  1  0  0  0
 31 32  1  1  0  0  0
 31 40  1  0  0  0  0
 33 42  2  0  0  0  0
 34 35  1  0  0  0  0
 34 43  1  6  0  0  0
 36 37  1  6  0  0  0
 36 45  1  0  0  0  0
 38 39  1  0  0  0  0
 40 41  1  0  0  0  0
 40 48  1  1  0  0  0
 43 44  1  0  0  0  0
 45 46  1  1  0  0  0
 47 50  1  0  0  0  0
 48 49  1  0  0  0  0
 50 51  1  0  0  0  0
 51 52  1  0  0  0  0
 52  8  1  0  0  0  0
M  END
>  <CHROM.1>
176.42765701,-45.48756747,-170.18041972,-170.86200754,-72.86551447,77.53555274
-177.80423543,60.09129511,-79.93714436,177.00621926,68.12618180,-95.35415883
89.45770878,-111.89609832,-112.09103606,42.47820885,2.99314366,-4.98394732
2.71915628,0.91498235,0.28102818

>  <Name>
2be0_lig

>  <RI>
0

>  <Rbt.Current_Directory>
/home/itssahil/PROJECTS/Mol_Feturizer/New_Systems/rnas/2be0

>  <Rbt.Executable>
rbdock ($Id: //depot/dev/client3/rdock/2013.1/src/exe/rbdock.cxx#4 $)

>  <Rbt.Library>
libRbt.so (2013.1, Build901 2013/11/27)

>  <Rbt.Parameter_File>
/export/apps/rDock/src/rDock_2013.1_src/data/scripts/dock_solv.prm

>  <Rbt.Receptor>
prm/pocket_docking_6.prm

>  <SCORE>
-22.6492

>  <SCORE.INTER>
-3.69365

>  <SCORE.INTER.CONST>
1

>  <SCORE.INTER.POLAR>
-0.894427

>  <SCORE.INTER.ROT>
15

>  <SCORE.INTER.SOLV>
14.9899

>  <SCORE.INTER.VDW>
-18.0776

>  <SCORE.INTER.norm>
-0.0710316

>  <SCORE.INTRA>
-18.9556

>  <SCORE.INTRA.DIHEDRAL>
-35.7145

>  <SCORE.INTRA.DIHEDRAL.0>
47.8724

>  <SCORE.INTRA.POLAR>
0

>  <SCORE.INTRA.POLAR.0>
0

>  <SCORE.INTRA.REPUL>
0

>  <SCORE.INTRA.REPUL.0>
0

>  <SCORE.INTRA.SOLV>
-3.02492

>  <SCORE.INTRA.SOLV.lig_0>
-115.677

>  <SCORE.INTRA.VDW>
0.414113

>  <SCORE.INTRA.VDW.0>
-7.4833

>  <SCORE.INTRA.norm>
-0.36453

>  <SCORE.RESTR>
0

>  <SCORE.RESTR.CAVITY>
0

>  <SCORE.RESTR.norm>
0

>  <SCORE.SYSTEM>
0

>  <SCORE.SYSTEM.CONST>
0

>  <SCORE.SYSTEM.DIHEDRAL>
0

>  <SCORE.SYSTEM.SOLV>
0

>  <SCORE.SYSTEM.norm>
0

>  <SCORE.heavy>
52

>  <SCORE.norm>
-0.435562

>  <RMSD>
7.958

$$$$
2be0_lig
 OpenBabel11021811423D
libRbt.so/2013.1/901 2013/11/27
 52 56  0  0  0  0  0  0  0  0999 V2000
   46.8871    4.0719   -5.1539 C   0  0  2  0  0  0  0  0  0  0  0  0
   46.4799    5.2241   -4.4541 O   0  0  0  0  0  0  0  0  0  0  0  0
   42.7000    6.8606   -2.9033 C   0  0  2  0  0  0  0  0  0  0  0  0
   41.2528    7.2075   -2.8352 N   0  0  0  0  0  0  0  0  0  0  0  0
   43.9825    2.6792   -2.2531 C   0  0  2  0  0  0  0  0  0  0  0  0
   44.7246    1.4644   -2.0215 O   0  0  0  0  0  0  0  0  0  0  0  0
   41.2147   -0.3788   -3.3847 C   0  0  1  0  0  0  0  0  0  0  0  0
   39.1516    6.6573    1.3357 C   0  0  0  0  0  0  0  0  0  0  0  0
   48.4524    4.0680   -5.3900 C   0  0  2  0  0  0  0  0  0  0  0  0
   49.1468    4.2334   -4.1114 N   0  0  0  0  0  0  0  0  0  0  0  0
   43.3186    7.4605   -4.2471 C   0  0  0  0  0  0  0  0  0  0  0  0
   42.6399    2.2661   -2.8770 C   0  0  2  0  0  0  0  0  0  0  0  0
   41.7857    1.9498   -1.6905 O   0  0  0  0  0  0  0  0  0  0  0  0
   42.0026   -1.5149   -2.5303 C   0  0  2  0  0  0  0  0  0  0  0  0
   42.5752   -2.5208   -3.4820 N   0  0  0  0  0  0  0  0  0  0  0  0
   38.9506    7.3571    0.1010 C   0  0  0  0  0  0  0  0  0  0  0  0
   38.1359    8.5193    0.0759 N   0  0  0  0  0  0  0  0  0  0  0  0
   48.8411    5.2142   -6.4346 C   0  0  1  0  0  0  0  0  0  0  0  0
   50.2472    5.1988   -6.6263 O   0  0  0  0  0  0  0  0  0  0  0  0
   44.9052    7.0892   -4.3672 C   0  0  2  0  0  0  0  0  0  0  0  0
   45.4744    7.6253   -5.5713 N   0  0  0  0  0  0  0  0  0  0  0  0
   43.1422    1.1268   -3.7839 C   0  0  2  0  0  0  0  0  0  0  0  0
   42.1682    0.2205   -4.2804 O   0  0  0  0  0  0  0  0  0  0  0  0
   40.9781   -2.1829   -1.5642 C   0  0  1  0  0  0  0  0  0  0  0  0
   40.4976   -1.1143   -0.6728 O   0  0  0  0  0  0  0  0  0  0  0  0
   37.4914    9.0395    1.2344 C   0  0  0  0  0  0  0  0  0  0  0  0
   48.0723    4.9553   -7.7628 C   0  0  2  0  0  0  0  0  0  0  0  0
   48.3905    5.9927   -8.7735 O   0  0  0  0  0  0  0  0  0  0  0  0
   45.0919    5.5162   -4.3465 C   0  0  2  0  0  0  0  0  0  0  0  0
   44.2477    0.4550   -2.9351 C   0  0  1  0  0  0  0  0  0  0  0  0
   39.7540   -2.8338   -2.4148 C   0  0  2  0  0  0  0  0  0  0  0  0
   40.2270   -3.9025   -3.3084 O   0  0  0  0  0  0  0  0  0  0  0  0
   37.6543    8.3909    2.4833 C   0  0  0  0  0  0  0  0  0  0  0  0
   46.5160    4.9624   -7.5071 C   0  0  2  0  0  0  0  0  0  0  0  0
   46.2699    3.9326   -6.5103 O   0  0  0  0  0  0  0  0  0  0  0  0
   44.4601    4.9780   -3.0160 C   0  0  2  0  0  0  0  0  0  0  0  0
   44.6940    3.5773   -3.0985 O   0  0  0  0  0  0  0  0  0  0  0  0
   45.4438    0.0159   -3.7780 C   0  0  0  0  0  0  0  0  0  0  0  0
   46.2056    1.0586   -4.3381 O   0  0  0  0  0  0  0  0  0  0  0  0
   39.0396   -1.6929   -3.2755 C   0  0  1  0  0  0  0  0  0  0  0  0
   40.0783   -1.0399   -4.1639 O   0  0  0  0  0  0  0  0  0  0  0  0
   38.4942    7.1733    2.5623 C   0  0  0  0  0  0  0  0  0  0  0  0
   45.8462    4.6921   -8.7894 C   0  0  0  0  0  0  0  0  0  0  0  0
   46.1747    3.4657   -9.2146 O   0  0  0  0  0  0  0  0  0  0  0  0
   42.9144    5.3291   -2.9467 C   0  0  1  0  0  0  0  0  0  0  0  0
   42.3719    4.8549   -1.7583 O   0  0  0  0  0  0  0  0  0  0  0  0
   40.4763    2.5362   -1.3192 C   0  0  0  0  0  0  0  0  0  0  0  0
   37.8920   -2.3721   -4.0713 C   0  0  0  0  0  0  0  0  0  0  0  0
   37.2577   -1.4255   -4.9547 N   0  0  0  0  0  0  0  0  0  0  0  0
   40.6389    3.1664    0.0678 C   0  0  0  0  0  0  0  0  0  0  0  0
   39.7452    4.3646    0.1792 N   0  0  0  0  0  0  0  0  0  0  0  0
   40.0795    5.3460    1.3347 C   0  0  0  0  0  0  0  0  0  0  0  0
  1  2  1  6  0  0  0
  1  9  1  0  0  0  0
  1 35  1  0  0  0  0
  3  4  1  6  0  0  0
  3 11  1  0  0  0  0
  3 45  1  0  0  0  0
  5  6  1  0  0  0  0
  5 12  1  0  0  0  0
  5 37  1  6  0  0  0
  6 30  1  0  0  0  0
  7 14  1  0  0  0  0
  7 41  1  0  0  0  0
  7 23  1  6  0  0  0
  8 16  2  0  0  0  0
  8 42  1  0  0  0  0
  9 10  1  1  0  0  0
  9 18  1  0  0  0  0
 11 20  1  0  0  0  0
 12 13  1  1  0  0  0
 12 22  1  0  0  0  0
 13 47  1  0  0  0  0
 14 15  1  6  0  0  0
 14 24  1  0  0  0  0
 16 17  1  0  0  0  0
 17 26  2  0  0  0  0
 18 19  1  6  0  0  0
 18 27  1  0  0  0  0
 20 21  1  6  0  0  0
 20 29  1  0  0  0  0
 22 23  1  1  0  0  0
 22 30  1  0  0  0  0
 24 25  1  1  0  0  0
 24 31  1  0  0  0  0
 26 33  1  0  0  0  0
 27 28  1  6  0  0  0
 27 34  1  0  0  0  0
 29  2  1  1  0  0  0
 29 36  1  0  0  0  0
 30 38  1  6  0  0  0
 31 32  1  6  0  0  0
 31 40  1  0  0  0  0
 33 42  2  0  0  0  0
 34 35  1  0  0  0  0
 34 43  1  6  0  0  0
 36 37  1  6  0  0  0
 36 45  1  0  0  0  0
 38 39  1  0  0  0  0
 40 41  1  0  0  0  0
 40 48  1  6  0  0  0
 43 44  1  0  0  0  0
 45 46  1  1  0  0  0
 47 50  1  0  0  0  0
 48 49  1  0  0  0  0
 50 51  1  0  0  0  0
 51 52  1  0  0  0  0
 52  8  1  0  0  0  0
M  END
>  <CHROM.1>
169.46344838,-153.54534220,-74.57352412,123.29436566,-121.09618071,-49.23946791
-145.84715465,-48.61423920,63.52266488,-164.02556065,-175.66825491,147.92457751
-162.91914886,175.95759563,-47.01652389,43.04530259,3.19588517,-3.32330898
-0.09318363,-0.64097581,-2.88081217

>  <Name>
2be0_lig

>  <RI>
0

>  <Rbt.Current_Directory>
/home/itssahil/PROJECTS/Mol_Feturizer/New_Systems/rnas/2be0

>  <Rbt.Executable>
rbdock ($Id: //depot/dev/client3/rdock/2013.1/src/exe/rbdock.cxx#4 $)

>  <Rbt.Library>
libRbt.so (2013.1, Build901 2013/11/27)

>  <Rbt.Parameter_File>
/export/apps/rDock/src/rDock_2013.1_src/data/scripts/dock_solv.prm

>  <Rbt.Receptor>
prm/pocket_docking_4.prm

>  <SCORE>
-10.7083

>  <SCORE.INTER>
-2.92899

>  <SCORE.INTER.CONST>
1

>  <SCORE.INTER.POLAR>
-0.268777

>  <SCORE.INTER.ROT>
15

>  <SCORE.INTER.SOLV>
16.4353

>  <SCORE.INTER.VDW>
-20.1352

>  <SCORE.INTER.norm>
-0.0563267

>  <SCORE.INTRA>
-7.77929

>  <SCORE.INTRA.DIHEDRAL>
-18.6975

>  <SCORE.INTRA.DIHEDRAL.0>
47.8724

>  <SCORE.INTRA.POLAR>
0

>  <SCORE.INTRA.POLAR.0>
0

>  <SCORE.INTRA.REPUL>
0

>  <SCORE.INTRA.REPUL.0>
0

>  <SCORE.INTRA.SOLV>
0.966911

>  <SCORE.INTRA.SOLV.lig_0>
-115.677

>  <SCORE.INTRA.VDW>
1.08602

>  <SCORE.INTRA.VDW.0>
-7.4833

>  <SCORE.INTRA.norm>
-0.149602

>  <SCORE.RESTR>
0

>  <SCORE.RESTR.CAVITY>
0

>  <SCORE.RESTR.norm>
0

>  <SCORE.SYSTEM>
0

>  <SCORE.SYSTEM.CONST>
0

>  <SCORE.SYSTEM.DIHEDRAL>
0

>  <SCORE.SYSTEM.SOLV>
0

>  <SCORE.SYSTEM.norm>
0

>  <SCORE.heavy>
52

>  <SCORE.norm>
-0.205928

>  <RMSD>
7.972

$$$$
2be0_lig
 OpenBabel11021811423D
libRbt.so/2013.1/901 2013/11/27
 52 56  0  0  0  0  0  0  0  0999 V2000
   40.9000    6.5968   -2.0091 C   0  0  2  0  0  0  0  0  0  0  0  0
   42.1628    5.9747   -2.0436 O   0  0  0  0  0  0  0  0  0  0  0  0
   43.5369    1.8011   -2.2965 C   0  0  2  0  0  0  0  0  0  0  0  0
   43.5858    0.3701   -2.7081 N   0  0  0  0  0  0  0  0  0  0  0  0
   43.5364    4.7187   -5.4740 C   0  0  2  0  0  0  0  0  0  0  0  0
   44.7569    4.5325   -6.2197 O   0  0  0  0  0  0  0  0  0  0  0  0
   44.4034    8.6813   -8.0526 C   0  0  1  0  0  0  0  0  0  0  0  0
   39.6598   -0.0055   -6.0228 C   0  0  0  0  0  0  0  0  0  0  0  0
   41.0340    8.1714   -2.1010 C   0  0  2  0  0  0  0  0  0  0  0  0
   41.8158    8.5339   -3.2850 N   0  0  0  0  0  0  0  0  0  0  0  0
   42.1035    2.1154   -1.6680 C   0  0  0  0  0  0  0  0  0  0  0  0
   42.6921    5.7391   -6.2540 C   0  0  2  0  0  0  0  0  0  0  0  0
   41.9701    4.8995   -7.2596 O   0  0  0  0  0  0  0  0  0  0  0  0
   43.6389    9.6483   -9.1118 C   0  0  2  0  0  0  0  0  0  0  0  0
   43.3336    8.8594  -10.3488 N   0  0  0  0  0  0  0  0  0  0  0  0
   39.2918   -0.7772   -7.1735 C   0  0  0  0  0  0  0  0  0  0  0  0
   39.6063   -2.1606   -7.2223 N   0  0  0  0  0  0  0  0  0  0  0  0
   41.6895    8.7343   -0.7559 C   0  0  1  0  0  0  0  0  0  0  0  0
   41.8076   10.1446   -0.8615 O   0  0  0  0  0  0  0  0  0  0  0  0
   42.0036    3.6824   -1.2156 C   0  0  2  0  0  0  0  0  0  0  0  0
   40.7191    3.9777   -0.6463 N   0  0  0  0  0  0  0  0  0  0  0  0
   43.8229    6.6793   -6.7123 C   0  0  2  0  0  0  0  0  0  0  0  0
   43.5267    7.5749   -7.7738 O   0  0  0  0  0  0  0  0  0  0  0  0
   44.5832   10.8456   -9.4341 C   0  0  1  0  0  0  0  0  0  0  0  0
   44.7996   11.5520   -8.1607 O   0  0  0  0  0  0  0  0  0  0  0  0
   40.2835   -2.8394   -6.1694 C   0  0  0  0  0  0  0  0  0  0  0  0
   40.7921    8.3164    0.4450 C   0  0  2  0  0  0  0  0  0  0  0  0
   41.3534    8.8086    1.7263 O   0  0  0  0  0  0  0  0  0  0  0  0
   42.2577    4.6200   -2.4669 C   0  0  2  0  0  0  0  0  0  0  0  0
   44.9911    5.7116   -7.0168 C   0  0  1  0  0  0  0  0  0  0  0  0
   45.9863   10.2978  -10.0483 C   0  0  2  0  0  0  0  0  0  0  0  0
   45.7777    9.5902  -11.3212 O   0  0  0  0  0  0  0  0  0  0  0  0
   40.6711   -2.1290   -5.0066 C   0  0  0  0  0  0  0  0  0  0  0  0
   40.6705    6.7456    0.5194 C   0  0  2  0  0  0  0  0  0  0  0  0
   40.1211    6.3262   -0.7601 O   0  0  0  0  0  0  0  0  0  0  0  0
   43.6689    4.2645   -3.0511 C   0  0  2  0  0  0  0  0  0  0  0  0
   43.7939    5.1637   -4.1461 O   0  0  0  0  0  0  0  0  0  0  0  0
   46.3438    6.2779   -6.5883 C   0  0  0  0  0  0  0  0  0  0  0  0
   46.6533    6.1388   -5.2223 O   0  0  0  0  0  0  0  0  0  0  0  0
   46.6790    9.3149   -8.9962 C   0  0  1  0  0  0  0  0  0  0  0  0
   45.7111    8.1945   -8.6761 O   0  0  0  0  0  0  0  0  0  0  0  0
   40.3667   -0.6827   -4.9072 C   0  0  0  0  0  0  0  0  0  0  0  0
   39.7967    6.4134    1.6561 C   0  0  0  0  0  0  0  0  0  0  0  0
   40.4601    6.6124    2.8020 O   0  0  0  0  0  0  0  0  0  0  0  0
   43.7207    2.7458   -3.5077 C   0  0  1  0  0  0  0  0  0  0  0  0
   44.9797    2.4440   -4.0130 O   0  0  0  0  0  0  0  0  0  0  0  0
   41.1855    3.6634   -7.0302 C   0  0  0  0  0  0  0  0  0  0  0  0
   48.0022    8.8171   -9.6388 C   0  0  0  0  0  0  0  0  0  0  0  0
   48.3623    7.5212   -9.1194 N   0  0  0  0  0  0  0  0  0  0  0  0
   40.5719    3.7695   -5.6303 C   0  0  0  0  0  0  0  0  0  0  0  0
   40.2586    2.3962   -5.1176 N   0  0  0  0  0  0  0  0  0  0  0  0
   39.2900    1.5574   -5.9942 C   0  0  0  0  0  0  0  0  0  0  0  0
  1  2  1  1  0  0  0
  1  9  1  0  0  0  0
  1 35  1  0  0  0  0
  3  4  1  6  0  0  0
  3 11  1  0  0  0  0
  3 45  1  0  0  0  0
  5  6  1  0  0  0  0
  5 12  1  0  0  0  0
  5 37  1  1  0  0  0
  6 30  1  0  0  0  0
  7 14  1  0  0  0  0
  7 41  1  0  0  0  0
  7 23  1  6  0  0  0
  8 16  2  0  0  0  0
  8 42  1  0  0  0  0
  9 10  1  6  0  0  0
  9 18  1  0  0  0  0
 11 20  1  0  0  0  0
 12 13  1  6  0  0  0
 12 22  1  0  0  0  0
 13 47  1  0  0  0  0
 14 15  1  6  0  0  0
 14 24  1  0  0  0  0
 16 17  1  0  0  0  0
 17 26  2  0  0  0  0
 18 19  1  6  0  0  0
 18 27  1  0  0  0  0
 20 21  1  6  0  0  0
 20 29  1  0  0  0  0
 22 23  1  6  0  0  0
 22 30  1  0  0  0  0
 24 25  1  1  0  0  0
 24 31  1  0  0  0  0
 26 33  1  0  0  0  0
 27 28  1  1  0  0  0
 27 34  1  0  0  0  0
 29  2  1  1  0  0  0
 29 36  1  0  0  0  0
 30 38  1  1  0  0  0
 31 32  1  6  0  0  0
 31 40  1  0  0  0  0
 33 42  2  0  0  0  0
 34 35  1  0  0  0  0
 34 43  1  1  0  0  0
 36 37  1  6  0  0  0
 36 45  1  0  0  0  0
 38 39  1  0  0  0  0
 40 41  1  0  0  0  0
 40 48  1  6  0  0  0
 43 44  1  0  0  0  0
 45 46  1  1  0  0  0
 47 50  1  0  0  0  0
 48 49  1  0  0  0  0
 50 51  1  0  0  0  0
 51 52  1  0  0  0  0
 52  8  1  0  0  0  0
M  END
>  <CHROM.1>
-156.77575022,-104.75631780,-169.31918869,50.42218776,30.93945920,165.59616336
-86.06597511,-35.03967255,-73.94541161,-99.80031309,-152.69233030,-157.02186495
-58.26321216,143.60226018,-152.51915462,42.80060684,5.48283862,-4.82946955
3.05895756,-1.09148305,-2.46822922

>  <Name>
2be0_lig

>  <RI>
0

>  <Rbt.Current_Directory>
/home/itssahil/PROJECTS/Mol_Feturizer/New_Systems/rnas/2be0

>  <Rbt.Executable>
rbdock ($Id: //depot/dev/client3/rdock/2013.1/src/exe/rbdock.cxx#4 $)

>  <Rbt.Library>
libRbt.so (2013.1, Build901 2013/11/27)

>  <Rbt.Parameter_File>
/export/apps/rDock/src/rDock_2013.1_src/data/scripts/dock_solv.prm

>  <Rbt.Receptor>
prm/pocket_docking_2.prm

>  <SCORE>
21.6897

>  <SCORE.INTER>
17.4177

>  <SCORE.INTER.CONST>
1

>  <SCORE.INTER.POLAR>
0

>  <SCORE.INTER.ROT>
15

>  <SCORE.INTER.SOLV>
21.1908

>  <SCORE.INTER.VDW>
-9.05176

>  <SCORE.INTER.norm>
0.334956

>  <SCORE.INTRA>
-2.62796

>  <SCORE.INTRA.DIHEDRAL>
-17.1738

>  <SCORE.INTRA.DIHEDRAL.0>
47.8724

>  <SCORE.INTRA.POLAR>
0

>  <SCORE.INTRA.POLAR.0>
0

>  <SCORE.INTRA.REPUL>
0

>  <SCORE.INTRA.REPUL.0>
0

>  <SCORE.INTRA.SOLV>
2.99252

>  <SCORE.INTRA.SOLV.lig_0>
-115.677

>  <SCORE.INTRA.VDW>
4.4627

>  <SCORE.INTRA.VDW.0>
-7.4833

>  <SCORE.INTRA.norm>
-0.0505378

>  <SCORE.RESTR>
6.89989

>  <SCORE.RESTR.CAVITY>
6.89989

>  <SCORE.RESTR.norm>
0.13269

>  <SCORE.SYSTEM>
0

>  <SCORE.SYSTEM.CONST>
0

>  <SCORE.SYSTEM.DIHEDRAL>
0

>  <SCORE.SYSTEM.SOLV>
0

>  <SCORE.SYSTEM.norm>
0

>  <SCORE.heavy>
52

>  <SCORE.norm>
0.417109

>  <RMSD>
8.005

$$$$
2be0_lig
 OpenBabel11021811423D
libRbt.so/2013.1/901 2013/11/27
 52 56  0  0  0  0  0  0  0  0999 V2000
   46.6856    5.8622   -7.3314 C   0  0  2  0  0  0  0  0  0  0  0  0
   46.0827    4.8950   -6.5043 O   0  0  0  0  0  0  0  0  0  0  0  0
   43.8244    4.8706   -2.7267 C   0  0  2  0  0  0  0  0  0  0  0  0
   42.9545    5.3522   -1.6173 N   0  0  0  0  0  0  0  0  0  0  0  0
   42.2294    5.1939   -6.7287 C   0  0  2  0  0  0  0  0  0  0  0  0
   41.7275    5.0724   -8.0755 O   0  0  0  0  0  0  0  0  0  0  0  0
   44.4725    8.7873   -8.9911 C   0  0  1  0  0  0  0  0  0  0  0  0
   38.7572    6.8736   -0.2993 C   0  0  0  0  0  0  0  0  0  0  0  0
   47.2079    5.2182   -8.6798 C   0  0  2  0  0  0  0  0  0  0  0  0
   46.1157    4.5024   -9.3426 N   0  0  0  0  0  0  0  0  0  0  0  0
   45.0603    5.8673   -2.8921 C   0  0  0  0  0  0  0  0  0  0  0  0
   42.5889    6.6739   -6.5218 C   0  0  2  0  0  0  0  0  0  0  0  0
   41.2910    7.2950   -6.1128 O   0  0  0  0  0  0  0  0  0  0  0  0
   45.5543    9.2727   -7.8796 C   0  0  2  0  0  0  0  0  0  0  0  0
   44.9445   10.3719   -7.0637 N   0  0  0  0  0  0  0  0  0  0  0  0
   37.8349    7.9327   -0.0120 C   0  0  0  0  0  0  0  0  0  0  0  0
   37.6467    8.3567    1.3296 N   0  0  0  0  0  0  0  0  0  0  0  0
   48.4506    4.2607   -8.3720 C   0  0  1  0  0  0  0  0  0  0  0  0
   48.8984    3.6884   -9.5910 O   0  0  0  0  0  0  0  0  0  0  0  0
   46.0337    5.3812   -4.1112 C   0  0  2  0  0  0  0  0  0  0  0  0
   47.1512    6.2686   -4.2690 N   0  0  0  0  0  0  0  0  0  0  0  0
   43.1741    6.9712   -7.9153 C   0  0  2  0  0  0  0  0  0  0  0  0
   43.3040    8.3368   -8.2824 O   0  0  0  0  0  0  0  0  0  0  0  0
   46.8216    9.7768   -8.6339 C   0  0  1  0  0  0  0  0  0  0  0  0
   47.3411    8.6202   -9.3821 O   0  0  0  0  0  0  0  0  0  0  0  0
   38.3369    7.7745    2.4308 C   0  0  0  0  0  0  0  0  0  0  0  0
   49.5646    5.1013   -7.6830 C   0  0  2  0  0  0  0  0  0  0  0  0
   50.7467    4.2631   -7.3681 O   0  0  0  0  0  0  0  0  0  0  0  0
   45.2107    5.3185   -5.4634 C   0  0  2  0  0  0  0  0  0  0  0  0
   42.2698    6.1505   -8.8655 C   0  0  1  0  0  0  0  0  0  0  0  0
   46.4247   10.9951   -9.6360 C   0  0  2  0  0  0  0  0  0  0  0  0
   45.9043   12.1546   -8.8950 O   0  0  0  0  0  0  0  0  0  0  0  0
   39.2618    6.7246    2.2083 C   0  0  0  0  0  0  0  0  0  0  0  0
   49.0255    5.7345   -6.3429 C   0  0  2  0  0  0  0  0  0  0  0  0
   47.8714    6.5369   -6.7159 O   0  0  0  0  0  0  0  0  0  0  0  0
   44.0066    4.3381   -5.2443 C   0  0  2  0  0  0  0  0  0  0  0  0
   43.3548    4.3498   -6.5086 O   0  0  0  0  0  0  0  0  0  0  0  0
   43.0546    5.5129  -10.0108 C   0  0  0  0  0  0  0  0  0  0  0  0
   43.9404    6.3708  -10.6894 O   0  0  0  0  0  0  0  0  0  0  0  0
   45.3255   10.4885  -10.6790 C   0  0  1  0  0  0  0  0  0  0  0  0
   44.1336    9.9650   -9.9044 O   0  0  0  0  0  0  0  0  0  0  0  0
   39.4934    6.2452    0.8259 C   0  0  0  0  0  0  0  0  0  0  0  0
   50.1118    6.5315   -5.7506 C   0  0  0  0  0  0  0  0  0  0  0  0
   51.1051    5.7186   -5.3697 O   0  0  0  0  0  0  0  0  0  0  0  0
   43.0668    4.8560   -4.0755 C   0  0  1  0  0  0  0  0  0  0  0  0
   42.0113    3.9718   -3.8870 O   0  0  0  0  0  0  0  0  0  0  0  0
   40.9198    7.8630   -4.7953 C   0  0  0  0  0  0  0  0  0  0  0  0
   44.9790   11.6913  -11.5980 C   0  0  0  0  0  0  0  0  0  0  0  0
   44.5752   11.2324  -12.9038 N   0  0  0  0  0  0  0  0  0  0  0  0
   40.4327    6.7020   -3.9223 C   0  0  0  0  0  0  0  0  0  0  0  0
   40.0507    7.2216   -2.5692 N   0  0  0  0  0  0  0  0  0  0  0  0
   38.9512    6.4154   -1.8266 C   0  0  0  0  0  0  0  0  0  0  0  0
  1  2  1  1  0  0  0
  1  9  1  0  0  0  0
  1 35  1  0  0  0  0
  3  4  1  1  0  0  0
  3 11  1  0  0  0  0
  3 45  1  0  0  0  0
  5  6  1  0  0  0  0
  5 12  1  0  0  0  0
  5 37  1  6  0  0  0
  6 30  1  0  0  0  0
  7 14  1  0  0  0  0
  7 41  1  0  0  0  0
  7 23  1  1  0  0  0
  8 16  2  0  0  0  0
  8 42  1  0  0  0  0
  9 10  1  1  0  0  0
  9 18  1  0  0  0  0
 11 20  1  0  0  0  0
 12 13  1  6  0  0  0
 12 22  1  0  0  0  0
 13 47  1  0  0  0  0
 14 15  1  6  0  0  0
 14 24  1  0  0  0  0
 16 17  1  0  0  0  0
 17 26  2  0  0  0  0
 18 19  1  6  0  0  0
 18 27  1  0  0  0  0
 20 21  1  6  0  0  0
 20 29  1  0  0  0  0
 22 23  1  6  0  0  0
 22 30  1  0  0  0  0
 24 25  1  6  0  0  0
 24 31  1  0  0  0  0
 26 33  1  0  0  0  0
 27 28  1  1  0  0  0
 27 34  1  0  0  0  0
 29  2  1  6  0  0  0
 29 36  1  0  0  0  0
 30 38  1  6  0  0  0
 31 32  1  1  0  0  0
 31 40  1  0  0  0  0
 33 42  2  0  0  0  0
 34 35  1  0  0  0  0
 34 43  1  6  0  0  0
 36 37  1  6  0  0  0
 36 45  1  0  0  0  0
 38 39  1  0  0  0  0
 40 41  1  0  0  0  0
 40 48  1  6  0  0  0
 43 44  1  0  0  0  0
 45 46  1  1  0  0  0
 47 50  1  0  0  0  0
 48 49  1  0  0  0  0
 50 51  1  0  0  0  0
 51 52  1  0  0  0  0
 52  8  1  0  0  0  0
M  END
>  <CHROM.1>
-161.16111058,179.18480285,-91.52179552,111.95774735,-84.92962644,139.56565865
-96.70668815,-164.18097903,-66.48701405,-96.99109386,150.84866464,179.64702430
151.50454993,170.63271272,88.58296088,44.30185435,6.83701720,-6.15129443
-0.71547787,-0.47894134,2.14721371

>  <Name>
2be0_lig

>  <RI>
224

>  <Rbt.Current_Directory>
/home/itssahil/PROJECTS/Mol_Feturizer/New_Systems/rnas/2be0

>  <Rbt.Executable>
rbdock ($Id: //depot/dev/client3/rdock/2013.1/src/exe/rbdock.cxx#4 $)

>  <Rbt.Library>
libRbt.so (2013.1, Build901 2013/11/27)

>  <Rbt.Parameter_File>
/export/apps/rDock/src/rDock_2013.1_src/data/scripts/dock_solv.prm

>  <Rbt.Receptor>
prm/blind_docking_100.prm

>  <SCORE>
13.1942

>  <SCORE.INTER>
2.74236

>  <SCORE.INTER.CONST>
1

>  <SCORE.INTER.POLAR>
-0.328205

>  <SCORE.INTER.ROT>
15

>  <SCORE.INTER.SOLV>
27.9284

>  <SCORE.INTER.VDW>
-19.9872

>  <SCORE.INTER.norm>
0.0527377

>  <SCORE.INTRA>
-3.70023

>  <SCORE.INTRA.DIHEDRAL>
-13.069

>  <SCORE.INTRA.DIHEDRAL.0>
47.8724

>  <SCORE.INTRA.POLAR>
0

>  <SCORE.INTRA.POLAR.0>
0

>  <SCORE.INTRA.REPUL>
0

>  <SCORE.INTRA.REPUL.0>
0

>  <SCORE.INTRA.SOLV>
4.78852

>  <SCORE.INTRA.SOLV.lig_0>
-115.677

>  <SCORE.INTRA.VDW>
0.440025

>  <SCORE.INTRA.VDW.0>
-7.4833

>  <SCORE.INTRA.norm>
-0.0711583

>  <SCORE.RESTR>
14.1521

>  <SCORE.RESTR.CAVITY>
14.1521

>  <SCORE.RESTR.norm>
0.272155

>  <SCORE.SYSTEM>
0

>  <SCORE.SYSTEM.CONST>
0

>  <SCORE.SYSTEM.DIHEDRAL>
0

>  <SCORE.SYSTEM.SOLV>
0

>  <SCORE.SYSTEM.norm>
0

>  <SCORE.heavy>
52

>  <SCORE.norm>
0.253735

>  <RMSD>
8.014

$$$$
2be0_lig
 OpenBabel11021811423D
libRbt.so/2013.1/901 2013/11/27
 52 56  0  0  0  0  0  0  0  0999 V2000
   40.2914    5.8978   -1.5048 C   0  0  2  0  0  0  0  0  0  0  0  0
   40.8386    4.6029   -1.4231 O   0  0  0  0  0  0  0  0  0  0  0  0
   40.3032    1.4144    1.5631 C   0  0  2  0  0  0  0  0  0  0  0  0
   39.6168    0.4419    2.4590 N   0  0  0  0  0  0  0  0  0  0  0  0
   41.0693    0.9359   -2.9707 C   0  0  2  0  0  0  0  0  0  0  0  0
   42.4513    1.2489   -3.2400 O   0  0  0  0  0  0  0  0  0  0  0  0
   41.4858    2.8173   -7.3694 C   0  0  1  0  0  0  0  0  0  0  0  0
   39.2382   -4.8184   -5.3133 C   0  0  0  0  0  0  0  0  0  0  0  0
   39.1636    5.9747   -2.6129 C   0  0  2  0  0  0  0  0  0  0  0  0
   38.1536    4.9439   -2.3643 N   0  0  0  0  0  0  0  0  0  0  0  0
   39.7762    2.8859    1.8877 C   0  0  0  0  0  0  0  0  0  0  0  0
   40.3936    0.7068   -4.3321 C   0  0  2  0  0  0  0  0  0  0  0  0
   40.6800   -0.7314   -4.6269 O   0  0  0  0  0  0  0  0  0  0  0  0
   40.9694    2.5332   -8.8840 C   0  0  2  0  0  0  0  0  0  0  0  0
   41.5434    1.2299   -9.3506 N   0  0  0  0  0  0  0  0  0  0  0  0
   39.1235   -5.9516   -6.1838 C   0  0  0  0  0  0  0  0  0  0  0  0
   38.1408   -5.9549   -7.2081 N   0  0  0  0  0  0  0  0  0  0  0  0
   39.8231    5.8289   -4.0619 C   0  0  1  0  0  0  0  0  0  0  0  0
   38.7960    5.8928   -5.0391 O   0  0  0  0  0  0  0  0  0  0  0  0
   40.4959    3.9836    0.9145 C   0  0  2  0  0  0  0  0  0  0  0  0
   40.0318    5.3123    1.1981 N   0  0  0  0  0  0  0  0  0  0  0  0
   41.1062    1.8098   -5.1373 C   0  0  2  0  0  0  0  0  0  0  0  0
   41.0413    1.7189   -6.5530 O   0  0  0  0  0  0  0  0  0  0  0  0
   41.4557    3.7094   -9.7836 C   0  0  1  0  0  0  0  0  0  0  0  0
   40.8223    4.9254   -9.2472 O   0  0  0  0  0  0  0  0  0  0  0  0
   37.2412   -4.8720   -7.4229 C   0  0  0  0  0  0  0  0  0  0  0  0
   40.8698    6.9659   -4.2463 C   0  0  2  0  0  0  0  0  0  0  0  0
   41.5208    6.8804   -5.5760 O   0  0  0  0  0  0  0  0  0  0  0  0
   40.2024    3.6313   -0.6018 C   0  0  2  0  0  0  0  0  0  0  0  0
   42.5470    1.7898   -4.5737 C   0  0  1  0  0  0  0  0  0  0  0  0
   43.0777    3.8182   -9.7286 C   0  0  2  0  0  0  0  0  0  0  0  0
   43.7176    2.6060  -10.2629 O   0  0  0  0  0  0  0  0  0  0  0  0
   37.3078   -3.7246   -6.5946 C   0  0  0  0  0  0  0  0  0  0  0  0
   41.9838    6.8729   -3.1337 C   0  0  2  0  0  0  0  0  0  0  0  0
   41.2857    6.9584   -1.8609 O   0  0  0  0  0  0  0  0  0  0  0  0
   40.7278    2.1773   -0.8644 C   0  0  2  0  0  0  0  0  0  0  0  0
   40.4272    1.9757   -2.2400 O   0  0  0  0  0  0  0  0  0  0  0  0
   43.1419    3.1910   -4.4448 C   0  0  0  0  0  0  0  0  0  0  0  0
   42.2125    4.2264   -4.2315 O   0  0  0  0  0  0  0  0  0  0  0  0
   43.5437    4.0484   -8.2177 C   0  0  1  0  0  0  0  0  0  0  0  0
   43.0112    2.9100   -7.3719 O   0  0  0  0  0  0  0  0  0  0  0  0
   38.3158   -3.6725   -5.5103 C   0  0  0  0  0  0  0  0  0  0  0  0
   42.9283    7.9814   -3.3462 C   0  0  0  0  0  0  0  0  0  0  0  0
   44.0410    7.7621   -2.6345 O   0  0  0  0  0  0  0  0  0  0  0  0
   39.9869    1.1349    0.0748 C   0  0  1  0  0  0  0  0  0  0  0  0
   40.4705   -0.1463   -0.1625 O   0  0  0  0  0  0  0  0  0  0  0  0
   41.9940   -1.3784   -4.8529 C   0  0  0  0  0  0  0  0  0  0  0  0
   45.0943    4.1328   -8.2258 C   0  0  0  0  0  0  0  0  0  0  0  0
   45.5947    4.4021   -6.9007 N   0  0  0  0  0  0  0  0  0  0  0  0
   41.7289   -2.8657   -5.1081 C   0  0  0  0  0  0  0  0  0  0  0  0
   41.0182   -3.4554   -3.9275 N   0  0  0  0  0  0  0  0  0  0  0  0
   40.3602   -4.8415   -4.1640 C   0  0  0  0  0  0  0  0  0  0  0  0
  1  2  1  6  0  0  0
  1  9  1  0  0  0  0
  1 35  1  0  0  0  0
  3  4  1  1  0  0  0
  3 11  1  0  0  0  0
  3 45  1  0  0  0  0
  5  6  1  0  0  0  0
  5 12  1  0  0  0  0
  5 37  1  6  0  0  0
  6 30  1  0  0  0  0
  7 14  1  0  0  0  0
  7 41  1  0  0  0  0
  7 23  1  1  0  0  0
  8 16  2  0  0  0  0
  8 42  1  0  0  0  0
  9 10  1  1  0  0  0
  9 18  1  0  0  0  0
 11 20  1  0  0  0  0
 12 13  1  6  0  0  0
 12 22  1  0  0  0  0
 13 47  1  0  0  0  0
 14 15  1  6  0  0  0
 14 24  1  0  0  0  0
 16 17  1  0  0  0  0
 17 26  2  0  0  0  0
 18 19  1  6  0  0  0
 18 27  1  0  0  0  0
 20 21  1  1  0  0  0
 20 29  1  0  0  0  0
 22 23  1  6  0  0  0
 22 30  1  0  0  0  0
 24 25  1  1  0  0  0
 24 31  1  0  0  0  0
 26 33  1  0  0  0  0
 27 28  1  6  0  0  0
 27 34  1  0  0  0  0
 29  2  1  6  0  0  0
 29 36  1  0  0  0  0
 30 38  1  1  0  0  0
 31 32  1  1  0  0  0
 31 40  1  0  0  0  0
 33 42  2  0  0  0  0
 34 35  1  0  0  0  0
 34 43  1  6  0  0  0
 36 37  1  6  0  0  0
 36 45  1  0  0  0  0
 38 39  1  0  0  0  0
 40 41  1  0  0  0  0
 40 48  1  6  0  0  0
 43 44  1  0  0  0  0
 45 46  1  6  0  0  0
 47 50  1  0  0  0  0
 48 49  1  0  0  0  0
 50 51  1  0  0  0  0
 51 52  1  0  0  0  0
 52  8  1  0  0  0  0
M  END
>  <CHROM.1>
-85.91711427,-72.66766380,-167.34061389,-64.01049956,179.79069156,169.70050435
-73.71537770,-87.76806554,-165.64763779,162.28428676,177.38043622,-58.75569664
165.04996573,-60.57501793,142.93347245,41.02446067,2.19050354,-4.33852244
1.01515065,1.21302351,0.84022880

>  <Name>
2be0_lig

>  <RI>
0

>  <Rbt.Current_Directory>
/home/itssahil/PROJECTS/Mol_Feturizer/New_Systems/rnas/2be0

>  <Rbt.Executable>
rbdock ($Id: //depot/dev/client3/rdock/2013.1/src/exe/rbdock.cxx#4 $)

>  <Rbt.Library>
libRbt.so (2013.1, Build901 2013/11/27)

>  <Rbt.Parameter_File>
/export/apps/rDock/src/rDock_2013.1_src/data/scripts/dock_solv.prm

>  <Rbt.Receptor>
prm/pocket_docking_7.prm

>  <SCORE>
-15.4025

>  <SCORE.INTER>
1.19352

>  <SCORE.INTER.CONST>
1

>  <SCORE.INTER.POLAR>
-0.703542

>  <SCORE.INTER.ROT>
15

>  <SCORE.INTER.SOLV>
8.8711

>  <SCORE.INTER.VDW>
-13.4162

>  <SCORE.INTER.norm>
0.0229523

>  <SCORE.INTRA>
-16.5961

>  <SCORE.INTRA.DIHEDRAL>
-36.2207

>  <SCORE.INTRA.DIHEDRAL.0>
47.8724

>  <SCORE.INTRA.POLAR>
0

>  <SCORE.INTRA.POLAR.0>
0

>  <SCORE.INTRA.REPUL>
0.059992

>  <SCORE.INTRA.REPUL.0>
0

>  <SCORE.INTRA.SOLV>
1.52902

>  <SCORE.INTRA.SOLV.lig_0>
-115.677

>  <SCORE.INTRA.VDW>
0.449804

>  <SCORE.INTRA.VDW.0>
-7.4833

>  <SCORE.INTRA.norm>
-0.319155

>  <SCORE.RESTR>
0

>  <SCORE.RESTR.CAVITY>
0

>  <SCORE.RESTR.norm>
0

>  <SCORE.SYSTEM>
0

>  <SCORE.SYSTEM.CONST>
0

>  <SCORE.SYSTEM.DIHEDRAL>
0

>  <SCORE.SYSTEM.SOLV>
0

>  <SCORE.SYSTEM.norm>
0

>  <SCORE.heavy>
52

>  <SCORE.norm>
-0.296203

>  <RMSD>
8.028

$$$$
2be0_lig
 OpenBabel11021811423D
libRbt.so/2013.1/901 2013/11/27
 52 56  0  0  0  0  0  0  0  0999 V2000
   43.0423    8.0401    0.0367 C   0  0  2  0  0  0  0  0  0  0  0  0
   42.4116    7.9285    1.2908 O   0  0  0  0  0  0  0  0  0  0  0  0
   39.7140    4.8526    2.9132 C   0  0  2  0  0  0  0  0  0  0  0  0
   38.4982    4.0069    3.0752 N   0  0  0  0  0  0  0  0  0  0  0  0
   42.7488    4.1605   -0.3506 C   0  0  2  0  0  0  0  0  0  0  0  0
   44.0496    4.2746   -0.9632 O   0  0  0  0  0  0  0  0  0  0  0  0
   42.4664    4.3287   -5.1263 C   0  0  1  0  0  0  0  0  0  0  0  0
   41.4956   -1.7915   -2.8671 C   0  0  0  0  0  0  0  0  0  0  0  0
   43.4623    9.5368   -0.2625 C   0  0  2  0  0  0  0  0  0  0  0  0
   44.2834   10.0501    0.8360 N   0  0  0  0  0  0  0  0  0  0  0  0
   39.2986    6.3904    3.0176 C   0  0  0  0  0  0  0  0  0  0  0  0
   41.8178    3.5345   -1.4013 C   0  0  2  0  0  0  0  0  0  0  0  0
   42.0434    2.0650   -1.2370 O   0  0  0  0  0  0  0  0  0  0  0  0
   41.8529    5.8335   -5.1521 C   0  0  2  0  0  0  0  0  0  0  0  0
   40.3578    5.7436   -5.1032 N   0  0  0  0  0  0  0  0  0  0  0  0
   40.8962   -2.6167   -3.8744 C   0  0  0  0  0  0  0  0  0  0  0  0
   41.6325   -2.9479   -5.0420 N   0  0  0  0  0  0  0  0  0  0  0  0
   42.1541   10.4252   -0.4974 C   0  0  1  0  0  0  0  0  0  0  0  0
   42.5516   11.7628   -0.7563 O   0  0  0  0  0  0  0  0  0  0  0  0
   40.6048    7.3542    2.8306 C   0  0  2  0  0  0  0  0  0  0  0  0
   40.2447    8.7409    2.9247 N   0  0  0  0  0  0  0  0  0  0  0  0
   42.3548    4.2562   -2.6517 C   0  0  2  0  0  0  0  0  0  0  0  0
   42.0116    3.7022   -3.9134 O   0  0  0  0  0  0  0  0  0  0  0  0
   42.3265    6.5205   -6.4684 C   0  0  1  0  0  0  0  0  0  0  0  0
   43.7963    6.5687   -6.4005 O   0  0  0  0  0  0  0  0  0  0  0  0
   42.9623   -2.4946   -5.2745 C   0  0  0  0  0  0  0  0  0  0  0  0
   41.3507    9.8195   -1.6848 C   0  0  2  0  0  0  0  0  0  0  0  0
   40.1189   10.6018   -1.9489 O   0  0  0  0  0  0  0  0  0  0  0  0
   41.2812    7.0757    1.4255 C   0  0  2  0  0  0  0  0  0  0  0  0
   43.8786    4.3316   -2.3943 C   0  0  1  0  0  0  0  0  0  0  0  0
   41.8253    5.6617   -7.7557 C   0  0  2  0  0  0  0  0  0  0  0  0
   40.3569    5.6089   -7.8299 O   0  0  0  0  0  0  0  0  0  0  0  0
   43.6070   -1.6770   -4.3139 C   0  0  0  0  0  0  0  0  0  0  0  0
   40.9422    8.3294   -1.3683 C   0  0  2  0  0  0  0  0  0  0  0  0
   42.1857    7.6189   -1.1161 O   0  0  0  0  0  0  0  0  0  0  0  0
   41.6588    5.5547    1.3706 C   0  0  2  0  0  0  0  0  0  0  0  0
   42.2615    5.4242    0.0888 O   0  0  0  0  0  0  0  0  0  0  0  0
   44.4843    5.6534   -2.8633 C   0  0  0  0  0  0  0  0  0  0  0  0
   44.8758    6.5372   -1.8401 O   0  0  0  0  0  0  0  0  0  0  0  0
   42.4108    4.1778   -7.6649 C   0  0  1  0  0  0  0  0  0  0  0  0
   41.9666    3.5656   -6.3525 O   0  0  0  0  0  0  0  0  0  0  0  0
   42.8809   -1.3023   -3.0783 C   0  0  0  0  0  0  0  0  0  0  0  0
   40.2072    7.8056   -2.5309 C   0  0  0  0  0  0  0  0  0  0  0  0
   39.7058    6.5998   -2.2355 O   0  0  0  0  0  0  0  0  0  0  0  0
   40.3649    4.6494    1.5246 C   0  0  1  0  0  0  0  0  0  0  0  0
   40.7172    3.3056    1.4843 O   0  0  0  0  0  0  0  0  0  0  0  0
   41.6972    1.2066   -0.0796 C   0  0  0  0  0  0  0  0  0  0  0  0
   41.8924    3.4053   -8.9083 C   0  0  0  0  0  0  0  0  0  0  0  0
   42.4929    2.0965   -8.9791 N   0  0  0  0  0  0  0  0  0  0  0  0
   40.2414    0.7653   -0.2621 C   0  0  0  0  0  0  0  0  0  0  0  0
   40.1037    0.0231   -1.5570 N   0  0  0  0  0  0  0  0  0  0  0  0
   40.6396   -1.4339   -1.5557 C   0  0  0  0  0  0  0  0  0  0  0  0
  1  2  1  1  0  0  0
  1  9  1  0  0  0  0
  1 35  1  0  0  0  0
  3  4  1  6  0  0  0
  3 11  1  0  0  0  0
  3 45  1  0  0  0  0
  5  6  1  0  0  0  0
  5 12  1  0  0  0  0
  5 37  1  6  0  0  0
  6 30  1  0  0  0  0
  7 14  1  0  0  0  0
  7 41  1  0  0  0  0
  7 23  1  1  0  0  0
  8 16  2  0  0  0  0
  8 42  1  0  0  0  0
  9 10  1  1  0  0  0
  9 18  1  0  0  0  0
 11 20  1  0  0  0  0
 12 13  1  6  0  0  0
 12 22  1  0  0  0  0
 13 47  1  0  0  0  0
 14 15  1  6  0  0  0
 14 24  1  0  0  0  0
 16 17  1  0  0  0  0
 17 26  2  0  0  0  0
 18 19  1  6  0  0  0
 18 27  1  0  0  0  0
 20 21  1  6  0  0  0
 20 29  1  0  0  0  0
 22 23  1  6  0  0  0
 22 30  1  0  0  0  0
 24 25  1  1  0  0  0
 24 31  1  0  0  0  0
 26 33  1  0  0  0  0
 27 28  1  1  0  0  0
 27 34  1  0  0  0  0
 29  2  1  1  0  0  0
 29 36  1  0  0  0  0
 30 38  1  1  0  0  0
 31 32  1  1  0  0  0
 31 40  1  0  0  0  0
 33 42  2  0  0  0  0
 34 35  1  0  0  0  0
 34 43  1  6  0  0  0
 36 37  1  6  0  0  0
 36 45  1  0  0  0  0
 38 39  1  0  0  0  0
 40 41  1  0  0  0  0
 40 48  1  6  0  0  0
 43 44  1  0  0  0  0
 45 46  1  1  0  0  0
 47 50  1  0  0  0  0
 48 49  1  0  0  0  0
 50 51  1  0  0  0  0
 51 52  1  0  0  0  0
 52  8  1  0  0  0  0
M  END
>  <CHROM.1>
139.52067064,-135.39127815,-60.58948498,66.75310790,85.66248498,179.41844394
-168.89288292,-8.01159862,-172.60679849,-179.90321616,173.80814514,58.93137637
76.28376702,-136.03522628,-104.88921934,41.79701863,4.79181205,-2.13440793
-1.78314446,-1.38814616,-2.76085964

>  <Name>
2be0_lig

>  <RI>
0

>  <Rbt.Current_Directory>
/home/itssahil/PROJECTS/Mol_Feturizer/New_Systems/rnas/2be0

>  <Rbt.Executable>
rbdock ($Id: //depot/dev/client3/rdock/2013.1/src/exe/rbdock.cxx#4 $)

>  <Rbt.Library>
libRbt.so (2013.1, Build901 2013/11/27)

>  <Rbt.Parameter_File>
/export/apps/rDock/src/rDock_2013.1_src/data/scripts/dock_solv.prm

>  <Rbt.Receptor>
prm/pocket_docking_4.prm

>  <SCORE>
-21.8155

>  <SCORE.INTER>
-10.2575

>  <SCORE.INTER.CONST>
1

>  <SCORE.INTER.POLAR>
-0.960598

>  <SCORE.INTER.ROT>
15

>  <SCORE.INTER.SOLV>
15.6253

>  <SCORE.INTER.VDW>
-22.4448

>  <SCORE.INTER.norm>
-0.197259

>  <SCORE.INTRA>
-11.5679

>  <SCORE.INTRA.DIHEDRAL>
-24.9889

>  <SCORE.INTRA.DIHEDRAL.0>
47.8724

>  <SCORE.INTRA.POLAR>
0

>  <SCORE.INTRA.POLAR.0>
0

>  <SCORE.INTRA.REPUL>
0

>  <SCORE.INTRA.REPUL.0>
0

>  <SCORE.INTRA.SOLV>
0.0120841

>  <SCORE.INTRA.SOLV.lig_0>
-115.677

>  <SCORE.INTRA.VDW>
0.920483

>  <SCORE.INTRA.VDW.0>
-7.4833

>  <SCORE.INTRA.norm>
-0.22246

>  <SCORE.RESTR>
0.0099312

>  <SCORE.RESTR.CAVITY>
0.0099312

>  <SCORE.RESTR.norm>
0.000190985

>  <SCORE.SYSTEM>
0

>  <SCORE.SYSTEM.CONST>
0

>  <SCORE.SYSTEM.DIHEDRAL>
0

>  <SCORE.SYSTEM.SOLV>
0

>  <SCORE.SYSTEM.norm>
0

>  <SCORE.heavy>
52

>  <SCORE.norm>
-0.419528

>  <RMSD>
8.032

$$$$
2be0_lig
 OpenBabel11021811423D
libRbt.so/2013.1/901 2013/11/27
 52 56  0  0  0  0  0  0  0  0999 V2000
   46.8005    4.5879   -5.1265 C   0  0  2  0  0  0  0  0  0  0  0  0
   46.1251    5.4981   -5.9621 O   0  0  0  0  0  0  0  0  0  0  0  0
   41.8381    6.2453   -6.6209 C   0  0  2  0  0  0  0  0  0  0  0  0
   40.4228    5.9993   -7.0159 N   0  0  0  0  0  0  0  0  0  0  0  0
   43.5556    4.5598   -2.8409 C   0  0  2  0  0  0  0  0  0  0  0  0
   44.3584    3.9161   -1.8302 O   0  0  0  0  0  0  0  0  0  0  0  0
   41.1958    0.6873   -3.6130 C   0  0  1  0  0  0  0  0  0  0  0  0
   41.8399    5.9216    1.4419 C   0  0  0  0  0  0  0  0  0  0  0  0
   48.1649    5.1953   -4.6017 C   0  0  2  0  0  0  0  0  0  0  0  0
   47.9167    6.4859   -3.9557 N   0  0  0  0  0  0  0  0  0  0  0  0
   42.7859    5.9726   -7.8761 C   0  0  0  0  0  0  0  0  0  0  0  0
   42.2775    3.7197   -2.9929 C   0  0  2  0  0  0  0  0  0  0  0  0
   41.3813    4.2493   -1.9188 O   0  0  0  0  0  0  0  0  0  0  0  0
   39.9658   -0.0990   -2.8986 C   0  0  2  0  0  0  0  0  0  0  0  0
   40.5294   -1.1653   -2.0091 N   0  0  0  0  0  0  0  0  0  0  0  0
   41.5408    7.3095    1.2441 C   0  0  0  0  0  0  0  0  0  0  0  0
   42.5692    8.1996    0.8379 N   0  0  0  0  0  0  0  0  0  0  0  0
   49.1984    5.3225   -5.8148 C   0  0  1  0  0  0  0  0  0  0  0  0
   50.4104    5.8752   -5.3254 O   0  0  0  0  0  0  0  0  0  0  0  0
   44.3520    6.2181   -7.4798 C   0  0  2  0  0  0  0  0  0  0  0  0
   45.2153    5.9781   -8.6016 N   0  0  0  0  0  0  0  0  0  0  0  0
   42.8987    2.3175   -2.8490 C   0  0  2  0  0  0  0  0  0  0  0  0
   42.0118    1.2449   -2.5671 O   0  0  0  0  0  0  0  0  0  0  0  0
   39.0799   -0.7206   -4.0201 C   0  0  1  0  0  0  0  0  0  0  0  0
   38.5714    0.4094   -4.8151 O   0  0  0  0  0  0  0  0  0  0  0  0
   43.9119    7.7819    0.6127 C   0  0  0  0  0  0  0  0  0  0  0  0
   49.4133    3.9101   -6.4323 C   0  0  2  0  0  0  0  0  0  0  0  0
   50.3634    3.9649   -7.5696 O   0  0  0  0  0  0  0  0  0  0  0  0
   44.7593    5.2635   -6.2830 C   0  0  2  0  0  0  0  0  0  0  0  0
   43.9961    2.5209   -1.7773 C   0  0  1  0  0  0  0  0  0  0  0  0
   39.9679   -1.7306   -4.9351 C   0  0  2  0  0  0  0  0  0  0  0  0
   40.4799   -2.8624   -4.1469 O   0  0  0  0  0  0  0  0  0  0  0  0
   44.2670    6.4221    0.7912 C   0  0  0  0  0  0  0  0  0  0  0  0
   48.0440    3.3220   -6.9485 C   0  0  2  0  0  0  0  0  0  0  0  0
   47.1591    3.2975   -5.7947 O   0  0  0  0  0  0  0  0  0  0  0  0
   43.7943    5.5632   -5.0838 C   0  0  2  0  0  0  0  0  0  0  0  0
   44.2547    4.6708   -4.0763 O   0  0  0  0  0  0  0  0  0  0  0  0
   45.2615    1.7200   -2.0795 C   0  0  0  0  0  0  0  0  0  0  0  0
   45.1400    0.3237   -1.9498 O   0  0  0  0  0  0  0  0  0  0  0  0
   41.1912   -0.9284   -5.5776 C   0  0  1  0  0  0  0  0  0  0  0  0
   41.9969   -0.3029   -4.4576 O   0  0  0  0  0  0  0  0  0  0  0  0
   43.2299    5.4531    1.2154 C   0  0  0  0  0  0  0  0  0  0  0  0
   48.3064    1.9827   -7.4994 C   0  0  0  0  0  0  0  0  0  0  0  0
   48.9758    2.0981   -8.6532 O   0  0  0  0  0  0  0  0  0  0  0  0
   42.2869    5.2855   -5.4936 C   0  0  1  0  0  0  0  0  0  0  0  0
   41.4442    5.5654   -4.4245 O   0  0  0  0  0  0  0  0  0  0  0  0
   39.9427    3.9674   -1.7013 C   0  0  0  0  0  0  0  0  0  0  0  0
   42.0060   -1.9413   -6.4271 C   0  0  0  0  0  0  0  0  0  0  0  0
   42.5984   -2.9497   -5.5840 N   0  0  0  0  0  0  0  0  0  0  0  0
   39.5310    4.6819   -0.4100 C   0  0  0  0  0  0  0  0  0  0  0  0
   40.1689    4.0000    0.7625 N   0  0  0  0  0  0  0  0  0  0  0  0
   40.6562    4.9371    1.9002 C   0  0  0  0  0  0  0  0  0  0  0  0
  1  2  1  6  0  0  0
  1  9  1  0  0  0  0
  1 35  1  0  0  0  0
  3  4  1  6  0  0  0
  3 11  1  0  0  0  0
  3 45  1  0  0  0  0
  5  6  1  0  0  0  0
  5 12  1  0  0  0  0
  5 37  1  6  0  0  0
  6 30  1  0  0  0  0
  7 14  1  0  0  0  0
  7 41  1  0  0  0  0
  7 23  1  1  0  0  0
  8 16  2  0  0  0  0
  8 42  1  0  0  0  0
  9 10  1  6  0  0  0
  9 18  1  0  0  0  0
 11 20  1  0  0  0  0
 12 13  1  1  0  0  0
 12 22  1  0  0  0  0
 13 47  1  0  0  0  0
 14 15  1  1  0  0  0
 14 24  1  0  0  0  0
 16 17  1  0  0  0  0
 17 26  2  0  0  0  0
 18 19  1  1  0  0  0
 18 27  1  0  0  0  0
 20 21  1  6  0  0  0
 20 29  1  0  0  0  0
 22 23  1  1  0  0  0
 22 30  1  0  0  0  0
 24 25  1  6  0  0  0
 24 31  1  0  0  0  0
 26 33  1  0  0  0  0
 27 28  1  6  0  0  0
 27 34  1  0  0  0  0
 29  2  1  1  0  0  0
 29 36  1  0  0  0  0
 30 38  1  6  0  0  0
 31 32  1  1  0  0  0
 31 40  1  0  0  0  0
 33 42  2  0  0  0  0
 34 35  1  0  0  0  0
 34 43  1  1  0  0  0
 36 37  1  1  0  0  0
 36 45  1  0  0  0  0
 38 39  1  0  0  0  0
 40 41  1  0  0  0  0
 40 48  1  1  0  0  0
 43 44  1  0  0  0  0
 45 46  1  1  0  0  0
 47 50  1  0  0  0  0
 48 49  1  0  0  0  0
 50 51  1  0  0  0  0
 51 52  1  0  0  0  0
 52  8  1  0  0  0  0
M  END
>  <CHROM.1>
-165.83727741,-163.69304377,-160.06331944,170.12427742,176.09756842,77.08317564
-166.87971343,174.22016551,-71.37957972,-174.95825395,-65.20045235,-69.85361936
142.09462968,-64.43687843,106.54463634,43.65231944,3.41344284,-3.87337784
-0.08019572,0.62025489,0.67386815

>  <Name>
2be0_lig

>  <RI>
2.10017e+07

>  <Rbt.Current_Directory>
/home/itssahil/PROJECTS/Mol_Feturizer/New_Systems/rnas/2be0

>  <Rbt.Executable>
rbdock ($Id: //depot/dev/client3/rdock/2013.1/src/exe/rbdock.cxx#4 $)

>  <Rbt.Library>
libRbt.so (2013.1, Build901 2013/11/27)

>  <Rbt.Parameter_File>
/export/apps/rDock/src/rDock_2013.1_src/data/scripts/dock_solv.prm

>  <Rbt.Receptor>
prm/pocket_docking_3.prm

>  <SCORE>
-8.59573

>  <SCORE.INTER>
5.23493

>  <SCORE.INTER.CONST>
1

>  <SCORE.INTER.POLAR>
-0.156764

>  <SCORE.INTER.ROT>
15

>  <SCORE.INTER.SOLV>
18.5884

>  <SCORE.INTER.VDW>
-15.7836

>  <SCORE.INTER.norm>
0.100672

>  <SCORE.INTRA>
-15.6684

>  <SCORE.INTRA.DIHEDRAL>
-38.0331

>  <SCORE.INTRA.DIHEDRAL.0>
47.8724

>  <SCORE.INTRA.POLAR>
0

>  <SCORE.INTRA.POLAR.0>
0

>  <SCORE.INTRA.REPUL>
0

>  <SCORE.INTRA.REPUL.0>
0

>  <SCORE.INTRA.SOLV>
-1.44571

>  <SCORE.INTRA.SOLV.lig_0>
-115.677

>  <SCORE.INTRA.VDW>
4.07103

>  <SCORE.INTRA.VDW.0>
-7.4833

>  <SCORE.INTRA.norm>
-0.301315

>  <SCORE.RESTR>
1.83774

>  <SCORE.RESTR.CAVITY>
1.83774

>  <SCORE.RESTR.norm>
0.0353412

>  <SCORE.SYSTEM>
0

>  <SCORE.SYSTEM.CONST>
0

>  <SCORE.SYSTEM.DIHEDRAL>
0

>  <SCORE.SYSTEM.SOLV>
0

>  <SCORE.SYSTEM.norm>
0

>  <SCORE.heavy>
52

>  <SCORE.norm>
-0.165302

>  <RMSD>
8.037

$$$$
2be0_lig
 OpenBabel11021811423D
libRbt.so/2013.1/901 2013/11/27
 52 56  0  0  0  0  0  0  0  0999 V2000
   45.6867    4.3408   -7.6992 C   0  0  2  0  0  0  0  0  0  0  0  0
   44.9628    3.5407   -6.7944 O   0  0  0  0  0  0  0  0  0  0  0  0
   43.3879    6.6775   -4.1390 C   0  0  2  0  0  0  0  0  0  0  0  0
   42.5555    7.3300   -3.0898 N   0  0  0  0  0  0  0  0  0  0  0  0
   45.3982    2.9523   -3.1257 C   0  0  2  0  0  0  0  0  0  0  0  0
   46.4221    2.0929   -2.5839 O   0  0  0  0  0  0  0  0  0  0  0  0
   43.2057   -0.3804   -5.1301 C   0  0  1  0  0  0  0  0  0  0  0  0
   39.3818    3.8853    1.9379 C   0  0  0  0  0  0  0  0  0  0  0  0
   46.4283    3.4550   -8.7813 C   0  0  2  0  0  0  0  0  0  0  0  0
   45.4652    2.5734   -9.4445 N   0  0  0  0  0  0  0  0  0  0  0  0
   42.4293    6.0314   -5.2399 C   0  0  0  0  0  0  0  0  0  0  0  0
   44.2617    2.0372   -3.6087 C   0  0  2  0  0  0  0  0  0  0  0  0
   43.4454    1.8129   -2.3755 O   0  0  0  0  0  0  0  0  0  0  0  0
   42.5413   -1.8419   -4.8771 C   0  0  2  0  0  0  0  0  0  0  0  0
   43.4890   -2.8925   -5.3709 N   0  0  0  0  0  0  0  0  0  0  0  0
   39.8426    5.2336    1.7816 C   0  0  0  0  0  0  0  0  0  0  0  0
   39.3002    6.2611    2.5972 N   0  0  0  0  0  0  0  0  0  0  0  0
   47.6102    2.6338   -8.0852 C   0  0  1  0  0  0  0  0  0  0  0  0
   48.2566    1.8416   -9.0694 O   0  0  0  0  0  0  0  0  0  0  0  0
   43.3052    5.2916   -6.4041 C   0  0  2  0  0  0  0  0  0  0  0  0
   42.4542    4.7079   -7.4024 N   0  0  0  0  0  0  0  0  0  0  0  0
   45.1121    0.8884   -4.1830 C   0  0  2  0  0  0  0  0  0  0  0  0
   44.4536   -0.3483   -4.4144 O   0  0  0  0  0  0  0  0  0  0  0  0
   41.1938   -1.8964   -5.6583 C   0  0  1  0  0  0  0  0  0  0  0  0
   40.3430   -0.8415   -5.0832 O   0  0  0  0  0  0  0  0  0  0  0  0
   38.3003    6.0223    3.5826 C   0  0  0  0  0  0  0  0  0  0  0  0
   48.5896    3.6436   -7.4194 C   0  0  2  0  0  0  0  0  0  0  0  0
   49.7097    2.9379   -6.7511 O   0  0  0  0  0  0  0  0  0  0  0  0
   44.2152    4.1668   -5.7589 C   0  0  2  0  0  0  0  0  0  0  0  0
   46.2972    0.7913   -3.1930 C   0  0  1  0  0  0  0  0  0  0  0  0
   41.4584   -1.6398   -7.2426 C   0  0  2  0  0  0  0  0  0  0  0  0
   42.3085   -2.6902   -7.8241 O   0  0  0  0  0  0  0  0  0  0  0  0
   37.8069    4.7095    3.7831 C   0  0  0  0  0  0  0  0  0  0  0  0
   47.8328    4.5164   -6.3457 C   0  0  2  0  0  0  0  0  0  0  0  0
   46.7502    5.1763   -7.0580 O   0  0  0  0  0  0  0  0  0  0  0  0
   45.1263    4.8501   -4.6809 C   0  0  2  0  0  0  0  0  0  0  0  0
   45.8980    3.7634   -4.1839 O   0  0  0  0  0  0  0  0  0  0  0  0
   47.6218    0.4994   -3.8962 C   0  0  0  0  0  0  0  0  0  0  0  0
   47.9707    1.3933   -4.9259 O   0  0  0  0  0  0  0  0  0  0  0  0
   42.1553   -0.2157   -7.4409 C   0  0  1  0  0  0  0  0  0  0  0  0
   43.4340   -0.1894   -6.6291 O   0  0  0  0  0  0  0  0  0  0  0  0
   38.3401    3.6019    2.9565 C   0  0  0  0  0  0  0  0  0  0  0  0
   48.8011    5.4626   -5.7685 C   0  0  0  0  0  0  0  0  0  0  0  0
   49.2209    6.3069   -6.7192 O   0  0  0  0  0  0  0  0  0  0  0  0
   44.2447    5.5313   -3.5512 C   0  0  1  0  0  0  0  0  0  0  0  0
   45.0658    6.1406   -2.6100 O   0  0  0  0  0  0  0  0  0  0  0  0
   42.7649    2.8211   -1.5288 C   0  0  0  0  0  0  0  0  0  0  0  0
   42.3925   -0.0315   -8.9645 C   0  0  0  0  0  0  0  0  0  0  0  0
   43.3790   -0.9686   -9.4414 N   0  0  0  0  0  0  0  0  0  0  0  0
   42.0868    2.0658   -0.3812 C   0  0  0  0  0  0  0  0  0  0  0  0
   41.4732    3.0490    0.5693 N   0  0  0  0  0  0  0  0  0  0  0  0
   40.0142    2.7427    1.0025 C   0  0  0  0  0  0  0  0  0  0  0  0
  1  2  1  1  0  0  0
  1  9  1  0  0  0  0
  1 35  1  0  0  0  0
  3  4  1  1  0  0  0
  3 11  1  0  0  0  0
  3 45  1  0  0  0  0
  5  6  1  0  0  0  0
  5 12  1  0  0  0  0
  5 37  1  6  0  0  0
  6 30  1  0  0  0  0
  7 14  1  0  0  0  0
  7 41  1  0  0  0  0
  7 23  1  1  0  0  0
  8 16  2  0  0  0  0
  8 42  1  0  0  0  0
  9 10  1  1  0  0  0
  9 18  1  0  0  0  0
 11 20  1  0  0  0  0
 12 13  1  1  0  0  0
 12 22  1  0  0  0  0
 13 47  1  0  0  0  0
 14 15  1  6  0  0  0
 14 24  1  0  0  0  0
 16 17  1  0  0  0  0
 17 26  2  0  0  0  0
 18 19  1  6  0  0  0
 18 27  1  0  0  0  0
 20 21  1  6  0  0  0
 20 29  1  0  0  0  0
 22 23  1  1  0  0  0
 22 30  1  0  0  0  0
 24 25  1  1  0  0  0
 24 31  1  0  0  0  0
 26 33  1  0  0  0  0
 27 28  1  1  0  0  0
 27 34  1  0  0  0  0
 29  2  1  6  0  0  0
 29 36  1  0  0  0  0
 30 38  1  6  0  0  0
 31 32  1  1  0  0  0
 31 40  1  0  0  0  0
 33 42  2  0  0  0  0
 34 35  1  0  0  0  0
 34 43  1  6  0  0  0
 36 37  1  1  0  0  0
 36 45  1  0  0  0  0
 38 39  1  0  0  0  0
 40 41  1  0  0  0  0
 40 48  1  6  0  0  0
 43 44  1  0  0  0  0
 45 46  1  1  0  0  0
 47 50  1  0  0  0  0
 48 49  1  0  0  0  0
 50 51  1  0  0  0  0
 51 52  1  0  0  0  0
 52  8  1  0  0  0  0
M  END
>  <CHROM.1>
-179.14838295,-168.11371296,-165.17321890,59.28583738,-179.19429105,49.02572989
50.63377842,-61.56265859,64.44035933,-86.35761277,-67.43379688,175.52253709
132.85713513,-175.99481248,29.04327234,44.01323808,2.66302072,-4.42631191
-0.70500640,0.70688761,0.68091220

>  <Name>
2be0_lig

>  <RI>
2.75444e+07

>  <Rbt.Current_Directory>
/home/itssahil/PROJECTS/Mol_Feturizer/New_Systems/rnas/2be0

>  <Rbt.Executable>
rbdock ($Id: //depot/dev/client3/rdock/2013.1/src/exe/rbdock.cxx#4 $)

>  <Rbt.Library>
libRbt.so (2013.1, Build901 2013/11/27)

>  <Rbt.Parameter_File>
/export/apps/rDock/src/rDock_2013.1_src/data/scripts/dock_solv.prm

>  <Rbt.Receptor>
prm/pocket_docking_5.prm

>  <SCORE>
-20.3906

>  <SCORE.INTER>
-2.65217

>  <SCORE.INTER.CONST>
1

>  <SCORE.INTER.POLAR>
-0.894427

>  <SCORE.INTER.ROT>
15

>  <SCORE.INTER.SOLV>
8.93986

>  <SCORE.INTER.VDW>
-15.3666

>  <SCORE.INTER.norm>
-0.0510034

>  <SCORE.INTRA>
-17.7384

>  <SCORE.INTRA.DIHEDRAL>
-39.6061

>  <SCORE.INTRA.DIHEDRAL.0>
47.8724

>  <SCORE.INTRA.POLAR>
0

>  <SCORE.INTRA.POLAR.0>
0

>  <SCORE.INTRA.REPUL>
0

>  <SCORE.INTRA.REPUL.0>
0

>  <SCORE.INTRA.SOLV>
0.155437

>  <SCORE.INTRA.SOLV.lig_0>
-115.677

>  <SCORE.INTRA.VDW>
1.98691

>  <SCORE.INTRA.VDW.0>
-7.4833

>  <SCORE.INTRA.norm>
-0.341123

>  <SCORE.RESTR>
0

>  <SCORE.RESTR.CAVITY>
0

>  <SCORE.RESTR.norm>
0

>  <SCORE.SYSTEM>
0

>  <SCORE.SYSTEM.CONST>
0

>  <SCORE.SYSTEM.DIHEDRAL>
0

>  <SCORE.SYSTEM.SOLV>
0

>  <SCORE.SYSTEM.norm>
0

>  <SCORE.heavy>
52

>  <SCORE.norm>
-0.392126

>  <RMSD>
8.037

$$$$
2be0_lig
 OpenBabel11021811423D
libRbt.so/2013.1/901 2013/11/27
 52 56  0  0  0  0  0  0  0  0999 V2000
   45.0890    4.4746   -4.3318 C   0  0  2  0  0  0  0  0  0  0  0  0
   45.1524    4.9068   -2.9931 O   0  0  0  0  0  0  0  0  0  0  0  0
   42.4719    4.6745    0.4900 C   0  0  2  0  0  0  0  0  0  0  0  0
   41.2255    4.7668    1.3009 N   0  0  0  0  0  0  0  0  0  0  0  0
   43.2257    1.2989   -2.3863 C   0  0  2  0  0  0  0  0  0  0  0  0
   44.2100    0.6507   -1.5548 O   0  0  0  0  0  0  0  0  0  0  0  0
   44.4199   -0.8825   -6.0701 C   0  0  1  0  0  0  0  0  0  0  0  0
   39.4492   -3.3171   -0.6597 C   0  0  0  0  0  0  0  0  0  0  0  0
   45.7441    5.5346   -5.3080 C   0  0  2  0  0  0  0  0  0  0  0  0
   47.1089    5.8346   -4.8700 N   0  0  0  0  0  0  0  0  0  0  0  0
   42.7703    6.0955   -0.1734 C   0  0  0  0  0  0  0  0  0  0  0  0
   43.1724    0.5115   -3.7053 C   0  0  2  0  0  0  0  0  0  0  0  0
   42.2164   -0.6004   -3.4102 O   0  0  0  0  0  0  0  0  0  0  0  0
   44.9624   -2.2315   -6.7963 C   0  0  2  0  0  0  0  0  0  0  0  0
   46.4559   -2.1566   -6.8948 N   0  0  0  0  0  0  0  0  0  0  0  0
   38.7376   -4.4396   -0.1227 C   0  0  0  0  0  0  0  0  0  0  0  0
   39.4589   -5.5433    0.4033 N   0  0  0  0  0  0  0  0  0  0  0  0
   44.8325    6.8467   -5.3664 C   0  0  1  0  0  0  0  0  0  0  0  0
   45.4403    7.7859   -6.2396 O   0  0  0  0  0  0  0  0  0  0  0  0
   44.1250    6.0331   -1.0848 C   0  0  2  0  0  0  0  0  0  0  0  0
   44.4058    7.3064   -1.6857 N   0  0  0  0  0  0  0  0  0  0  0  0
   44.6747    0.2085   -3.8596 C   0  0  2  0  0  0  0  0  0  0  0  0
   45.0351   -0.8193   -4.7708 O   0  0  0  0  0  0  0  0  0  0  0  0
   44.3143   -2.3063   -8.2117 C   0  0  1  0  0  0  0  0  0  0  0  0
   42.8609   -2.3923   -7.9936 O   0  0  0  0  0  0  0  0  0  0  0  0
   40.8817   -5.5997    0.4261 C   0  0  0  0  0  0  0  0  0  0  0  0
   43.4105    6.4406   -5.8512 C   0  0  2  0  0  0  0  0  0  0  0  0
   42.5145    7.6202   -5.9220 O   0  0  0  0  0  0  0  0  0  0  0  0
   43.9610    4.9368   -2.2166 C   0  0  2  0  0  0  0  0  0  0  0  0
   45.1381   -0.0519   -2.4065 C   0  0  1  0  0  0  0  0  0  0  0  0
   44.7023   -0.9815   -9.0721 C   0  0  2  0  0  0  0  0  0  0  0  0
   46.1538   -0.8888   -9.2937 O   0  0  0  0  0  0  0  0  0  0  0  0
   41.6389   -4.5191   -0.0897 C   0  0  0  0  0  0  0  0  0  0  0  0
   42.7752    5.3845   -4.8670 C   0  0  2  0  0  0  0  0  0  0  0  0
   43.6969    4.2601   -4.8379 O   0  0  0  0  0  0  0  0  0  0  0  0
   43.6598    3.5674   -1.5145 C   0  0  2  0  0  0  0  0  0  0  0  0
   43.5460    2.6680   -2.6107 O   0  0  0  0  0  0  0  0  0  0  0  0
   46.5250    0.5238   -2.1250 C   0  0  0  0  0  0  0  0  0  0  0  0
   47.5543    0.0636   -2.9677 O   0  0  0  0  0  0  0  0  0  0  0  0
   44.1941    0.3214   -8.2994 C   0  0  1  0  0  0  0  0  0  0  0  0
   44.8095    0.3297   -6.9152 O   0  0  0  0  0  0  0  0  0  0  0  0
   40.9331   -3.3438   -0.6508 C   0  0  0  0  0  0  0  0  0  0  0  0
   41.4463    5.0244   -5.3870 C   0  0  0  0  0  0  0  0  0  0  0  0
   40.5973    6.0395   -5.1831 O   0  0  0  0  0  0  0  0  0  0  0  0
   42.3233    3.6549   -0.6639 C   0  0  1  0  0  0  0  0  0  0  0  0
   42.0760    2.4377   -0.0404 O   0  0  0  0  0  0  0  0  0  0  0  0
   40.7754   -0.5082   -3.0763 C   0  0  0  0  0  0  0  0  0  0  0  0
   44.6005    1.5495   -9.1584 C   0  0  0  0  0  0  0  0  0  0  0  0
   43.9881    2.7508   -8.6479 N   0  0  0  0  0  0  0  0  0  0  0  0
   40.1698   -1.8985   -3.2946 C   0  0  0  0  0  0  0  0  0  0  0  0
   38.7611   -1.9149   -2.7826 N   0  0  0  0  0  0  0  0  0  0  0  0
   38.6071   -2.0816   -1.2468 C   0  0  0  0  0  0  0  0  0  0  0  0
  1  2  1  1  0  0  0
  1  9  1  0  0  0  0
  1 35  1  0  0  0  0
  3  4  1  6  0  0  0
  3 11  1  0  0  0  0
  3 45  1  0  0  0  0
  5  6  1  0  0  0  0
  5 12  1  0  0  0  0
  5 37  1  6  0  0  0
  6 30  1  0  0  0  0
  7 14  1  0  0  0  0
  7 41  1  0  0  0  0
  7 23  1  1  0  0  0
  8 16  2  0  0  0  0
  8 42  1  0  0  0  0
  9 10  1  1  0  0  0
  9 18  1  0  0  0  0
 11 20  1  0  0  0  0
 12 13  1  1  0  0  0
 12 22  1  0  0  0  0
 13 47  1  0  0  0  0
 14 15  1  6  0  0  0
 14 24  1  0  0  0  0
 16 17  1  0  0  0  0
 17 26  2  0  0  0  0
 18 19  1  6  0  0  0
 18 27  1  0  0  0  0
 20 21  1  6  0  0  0
 20 29  1  0  0  0  0
 22 23  1  6  0  0  0
 22 30  1  0  0  0  0
 24 25  1  1  0  0  0
 24 31  1  0  0  0  0
 26 33  1  0  0  0  0
 27 28  1  1  0  0  0
 27 34  1  0  0  0  0
 29  2  1  1  0  0  0
 29 36  1  0  0  0  0
 30 38  1  6  0  0  0
 31 32  1  1  0  0  0
 31 40  1  0  0  0  0
 33 42  2  0  0  0  0
 34 35  1  0  0  0  0
 34 43  1  6  0  0  0
 36 37  1  6  0  0  0
 36 45  1  0  0  0  0
 38 39  1  0  0  0  0
 40 41  1  0  0  0  0
 40 48  1  6  0  0  0
 43 44  1  0  0  0  0
 45 46  1  1  0  0  0
 47 50  1  0  0  0  0
 48 49  1  0  0  0  0
 50 51  1  0  0  0  0
 51 52  1  0  0  0  0
 52  8  1  0  0  0  0
M  END
>  <CHROM.1>
127.24575284,-60.00633702,-175.42371416,63.85576774,162.68944387,44.83323112
-153.57113415,-173.42882572,-73.19049829,-177.94513032,170.46312447,171.80372225
-79.96558798,-50.38233697,-113.04233851,43.32037457,1.55040685,-3.79729063
-0.85906642,-1.06760815,-2.78021860

>  <Name>
2be0_lig

>  <RI>
0

>  <Rbt.Current_Directory>
/home/itssahil/PROJECTS/Mol_Feturizer/New_Systems/rnas/2be0

>  <Rbt.Executable>
rbdock ($Id: //depot/dev/client3/rdock/2013.1/src/exe/rbdock.cxx#4 $)

>  <Rbt.Library>
libRbt.so (2013.1, Build901 2013/11/27)

>  <Rbt.Parameter_File>
/export/apps/rDock/src/rDock_2013.1_src/data/scripts/dock_solv.prm

>  <Rbt.Receptor>
prm/pocket_docking_7.prm

>  <SCORE>
-17.9495

>  <SCORE.INTER>
-3.06436

>  <SCORE.INTER.CONST>
1

>  <SCORE.INTER.POLAR>
-1.29219

>  <SCORE.INTER.ROT>
15

>  <SCORE.INTER.SOLV>
15.4137

>  <SCORE.INTER.VDW>
-16.4735

>  <SCORE.INTER.norm>
-0.0589301

>  <SCORE.INTRA>
-14.8851

>  <SCORE.INTRA.DIHEDRAL>
-32.4301

>  <SCORE.INTRA.DIHEDRAL.0>
47.8724

>  <SCORE.INTRA.POLAR>
0

>  <SCORE.INTRA.POLAR.0>
0

>  <SCORE.INTRA.REPUL>
0.0364012

>  <SCORE.INTRA.REPUL.0>
0

>  <SCORE.INTRA.SOLV>
-3.42201

>  <SCORE.INTRA.SOLV.lig_0>
-115.677

>  <SCORE.INTRA.VDW>
2.85897

>  <SCORE.INTRA.VDW.0>
-7.4833

>  <SCORE.INTRA.norm>
-0.286252

>  <SCORE.RESTR>
0

>  <SCORE.RESTR.CAVITY>
0

>  <SCORE.RESTR.norm>
0

>  <SCORE.SYSTEM>
0

>  <SCORE.SYSTEM.CONST>
0

>  <SCORE.SYSTEM.DIHEDRAL>
0

>  <SCORE.SYSTEM.SOLV>
0

>  <SCORE.SYSTEM.norm>
0

>  <SCORE.heavy>
52

>  <SCORE.norm>
-0.345182

>  <RMSD>
8.055

$$$$
2be0_lig
 OpenBabel11021811423D
libRbt.so/2013.1/901 2013/11/27
 52 56  0  0  0  0  0  0  0  0999 V2000
   48.4044   12.3181  -11.3094 C   0  0  2  0  0  0  0  0  0  0  0  0
   47.9550   11.0212  -10.9949 O   0  0  0  0  0  0  0  0  0  0  0  0
   43.6062   11.0505  -11.6717 C   0  0  2  0  0  0  0  0  0  0  0  0
   42.2705   10.6357  -12.1849 N   0  0  0  0  0  0  0  0  0  0  0  0
   45.6938    8.9702   -8.2412 C   0  0  2  0  0  0  0  0  0  0  0  0
   46.6240    8.2214   -7.4323 O   0  0  0  0  0  0  0  0  0  0  0  0
   44.5717    4.7057   -7.4207 C   0  0  1  0  0  0  0  0  0  0  0  0
   41.5515    7.7923   -1.5272 C   0  0  0  0  0  0  0  0  0  0  0  0
   49.6408   12.7300  -10.4109 C   0  0  2  0  0  0  0  0  0  0  0  0
   50.6941   11.7189  -10.5238 N   0  0  0  0  0  0  0  0  0  0  0  0
   44.5910   11.2841  -12.9061 C   0  0  0  0  0  0  0  0  0  0  0  0
   44.4928    8.0476   -8.5038 C   0  0  2  0  0  0  0  0  0  0  0  0
   43.6301    8.2451   -7.2979 O   0  0  0  0  0  0  0  0  0  0  0  0
   43.1211    3.9997   -7.2239 C   0  0  2  0  0  0  0  0  0  0  0  0
   42.0809    5.0696   -7.0859 N   0  0  0  0  0  0  0  0  0  0  0  0
   41.9692    8.1194   -0.1955 C   0  0  0  0  0  0  0  0  0  0  0  0
   40.9945    8.3762    0.8041 N   0  0  0  0  0  0  0  0  0  0  0  0
   49.1630   12.9298   -8.8983 C   0  0  1  0  0  0  0  0  0  0  0  0
   50.2860   13.2908   -8.1092 O   0  0  0  0  0  0  0  0  0  0  0  0
   46.0744   11.7277  -12.3841 C   0  0  2  0  0  0  0  0  0  0  0  0
   46.9697   11.9432  -13.4857 N   0  0  0  0  0  0  0  0  0  0  0  0
   45.2519    6.7207   -8.6929 C   0  0  2  0  0  0  0  0  0  0  0  0
   44.4923    5.5244   -8.6014 O   0  0  0  0  0  0  0  0  0  0  0  0
   43.1879    3.1193   -5.9396 C   0  0  1  0  0  0  0  0  0  0  0  0
   44.2215    2.1020   -6.1927 O   0  0  0  0  0  0  0  0  0  0  0  0
   39.5938    8.3276    0.5519 C   0  0  0  0  0  0  0  0  0  0  0  0
   48.0578   14.0251   -8.8686 C   0  0  2  0  0  0  0  0  0  0  0  0
   47.5702   14.2528   -7.4868 O   0  0  0  0  0  0  0  0  0  0  0  0
   46.6654   10.6088  -11.4310 C   0  0  2  0  0  0  0  0  0  0  0  0
   46.3993    6.8147   -7.6591 C   0  0  1  0  0  0  0  0  0  0  0  0
   43.5707    4.0392   -4.6539 C   0  0  2  0  0  0  0  0  0  0  0  0
   42.5421    5.0587   -4.3951 O   0  0  0  0  0  0  0  0  0  0  0  0
   39.1213    8.0084   -0.7450 C   0  0  0  0  0  0  0  0  0  0  0  0
   46.8358   13.5972   -9.7692 C   0  0  2  0  0  0  0  0  0  0  0  0
   47.3765   13.3862  -11.1027 O   0  0  0  0  0  0  0  0  0  0  0  0
   45.6584   10.4112  -10.2453 C   0  0  2  0  0  0  0  0  0  0  0  0
   46.2890    9.4080   -9.4583 O   0  0  0  0  0  0  0  0  0  0  0  0
   47.7095    6.2336   -8.1881 C   0  0  0  0  0  0  0  0  0  0  0  0
   48.6082    5.7745   -7.2069 O   0  0  0  0  0  0  0  0  0  0  0  0
   44.9780    4.7511   -4.9101 C   0  0  1  0  0  0  0  0  0  0  0  0
   44.8832    5.5562   -6.1897 O   0  0  0  0  0  0  0  0  0  0  0  0
   40.0984    7.7329   -1.8237 C   0  0  0  0  0  0  0  0  0  0  0  0
   45.8371   14.6771   -9.7188 C   0  0  0  0  0  0  0  0  0  0  0  0
   44.6573   14.2142  -10.1505 O   0  0  0  0  0  0  0  0  0  0  0  0
   44.2390    9.9519  -10.7852 C   0  0  1  0  0  0  0  0  0  0  0  0
   43.3559    9.7912   -9.7242 O   0  0  0  0  0  0  0  0  0  0  0  0
   43.9201    7.8789   -5.8915 C   0  0  0  0  0  0  0  0  0  0  0  0
   45.2846    5.6202   -3.6602 C   0  0  0  0  0  0  0  0  0  0  0  0
   46.4278    6.4659   -3.8983 N   0  0  0  0  0  0  0  0  0  0  0  0
   42.5790    7.5718   -5.2173 C   0  0  0  0  0  0  0  0  0  0  0  0
   42.4793    8.3380   -3.9330 N   0  0  0  0  0  0  0  0  0  0  0  0
   42.6761    7.5052   -2.6376 C   0  0  0  0  0  0  0  0  0  0  0  0
  1  2  1  1  0  0  0
  1  9  1  0  0  0  0
  1 35  1  0  0  0  0
  3  4  1  6  0  0  0
  3 11  1  0  0  0  0
  3 45  1  0  0  0  0
  5  6  1  0  0  0  0
  5 12  1  0  0  0  0
  5 37  1  6  0  0  0
  6 30  1  0  0  0  0
  7 14  1  0  0  0  0
  7 41  1  0  0  0  0
  7 23  1  6  0  0  0
  8 16  2  0  0  0  0
  8 42  1  0  0  0  0
  9 10  1  1  0  0  0
  9 18  1  0  0  0  0
 11 20  1  0  0  0  0
 12 13  1  1  0  0  0
 12 22  1  0  0  0  0
 13 47  1  0  0  0  0
 14 15  1  1  0  0  0
 14 24  1  0  0  0  0
 16 17  1  0  0  0  0
 17 26  2  0  0  0  0
 18 19  1  1  0  0  0
 18 27  1  0  0  0  0
 20 21  1  6  0  0  0
 20 29  1  0  0  0  0
 22 23  1  1  0  0  0
 22 30  1  0  0  0  0
 24 25  1  6  0  0  0
 24 31  1  0  0  0  0
 26 33  1  0  0  0  0
 27 28  1  1  0  0  0
 27 34  1  0  0  0  0
 29  2  1  1  0  0  0
 29 36  1  0  0  0  0
 30 38  1  6  0  0  0
 31 32  1  6  0  0  0
 31 40  1  0  0  0  0
 33 42  2  0  0  0  0
 34 35  1  0  0  0  0
 34 43  1  6  0  0  0
 36 37  1  1  0  0  0
 36 45  1  0  0  0  0
 38 39  1  0  0  0  0
 40 41  1  0  0  0  0
 40 48  1  1  0  0  0
 43 44  1  0  0  0  0
 45 46  1  1  0  0  0
 47 50  1  0  0  0  0
 48 49  1  0  0  0  0
 50 51  1  0  0  0  0
 51 52  1  0  0  0  0
 52  8  1  0  0  0  0
M  END
>  <CHROM.1>
163.69331935,-165.26068343,148.23596216,-65.90235910,-150.07676008,-104.15164361
7.29390311,88.90307086,-163.05850143,178.03901731,-170.62527315,-129.70213792
-104.98129324,-132.53507667,-128.41827401,45.02952431,8.84903748,-7.45963892
0.52853927,1.02770338,0.09295669

>  <Name>
2be0_lig

>  <RI>
224

>  <Rbt.Current_Directory>
/home/itssahil/PROJECTS/Mol_Feturizer/New_Systems/rnas/2be0

>  <Rbt.Executable>
rbdock ($Id: //depot/dev/client3/rdock/2013.1/src/exe/rbdock.cxx#4 $)

>  <Rbt.Library>
libRbt.so (2013.1, Build901 2013/11/27)

>  <Rbt.Parameter_File>
/export/apps/rDock/src/rDock_2013.1_src/data/scripts/dock_solv.prm

>  <Rbt.Receptor>
prm/blind_docking_100.prm

>  <SCORE>
45.2063

>  <SCORE.INTER>
14.172

>  <SCORE.INTER.CONST>
1

>  <SCORE.INTER.POLAR>
0

>  <SCORE.INTER.ROT>
15

>  <SCORE.INTER.SOLV>
34.2808

>  <SCORE.INTER.VDW>
-15.5789

>  <SCORE.INTER.norm>
0.272539

>  <SCORE.INTRA>
13.1182

>  <SCORE.INTRA.DIHEDRAL>
-12.7524

>  <SCORE.INTRA.DIHEDRAL.0>
47.8724

>  <SCORE.INTRA.POLAR>
0

>  <SCORE.INTRA.POLAR.0>
0

>  <SCORE.INTRA.REPUL>
0

>  <SCORE.INTRA.REPUL.0>
0

>  <SCORE.INTRA.SOLV>
5.68804

>  <SCORE.INTRA.SOLV.lig_0>
-115.677

>  <SCORE.INTRA.VDW>
16.6504

>  <SCORE.INTRA.VDW.0>
-7.4833

>  <SCORE.INTRA.norm>
0.252274

>  <SCORE.RESTR>
17.916

>  <SCORE.RESTR.CAVITY>
17.916

>  <SCORE.RESTR.norm>
0.344538

>  <SCORE.SYSTEM>
0

>  <SCORE.SYSTEM.CONST>
0

>  <SCORE.SYSTEM.DIHEDRAL>
0

>  <SCORE.SYSTEM.SOLV>
0

>  <SCORE.SYSTEM.norm>
0

>  <SCORE.heavy>
52

>  <SCORE.norm>
0.869351

>  <RMSD>
8.061

$$$$
2be0_lig
 OpenBabel11021811423D
libRbt.so/2013.1/901 2013/11/27
 52 56  0  0  0  0  0  0  0  0999 V2000
   41.3288   -1.2252   -5.6693 C   0  0  2  0  0  0  0  0  0  0  0  0
   40.5569   -0.1275   -5.2426 O   0  0  0  0  0  0  0  0  0  0  0  0
   41.6956    2.8250   -8.3016 C   0  0  2  0  0  0  0  0  0  0  0  0
   41.6405    4.0489   -9.1493 N   0  0  0  0  0  0  0  0  0  0  0  0
   43.1496    2.7562   -3.9860 C   0  0  2  0  0  0  0  0  0  0  0  0
   43.7156    1.9626   -2.9230 O   0  0  0  0  0  0  0  0  0  0  0  0
   41.5995    4.4357    0.2408 C   0  0  1  0  0  0  0  0  0  0  0  0
   48.6384    3.9154   -4.9028 C   0  0  0  0  0  0  0  0  0  0  0  0
   41.3070   -2.3917   -4.5996 C   0  0  2  0  0  0  0  0  0  0  0  0
   39.9224   -2.7546   -4.2903 N   0  0  0  0  0  0  0  0  0  0  0  0
   40.3330    2.0106   -8.4702 C   0  0  0  0  0  0  0  0  0  0  0  0
   42.8474    4.1413   -3.3921 C   0  0  2  0  0  0  0  0  0  0  0  0
   44.1488    4.8676   -3.5192 O   0  0  0  0  0  0  0  0  0  0  0  0
   40.0170    4.3430   -0.1178 C   0  0  2  0  0  0  0  0  0  0  0  0
   39.5890    5.6371   -0.7407 N   0  0  0  0  0  0  0  0  0  0  0  0
   49.2062    3.4446   -3.6737 C   0  0  0  0  0  0  0  0  0  0  0  0
   49.2777    2.0495   -3.4210 N   0  0  0  0  0  0  0  0  0  0  0  0
   42.1126   -1.9394   -3.2948 C   0  0  1  0  0  0  0  0  0  0  0  0
   42.0747   -2.9948   -2.3467 O   0  0  0  0  0  0  0  0  0  0  0  0
   40.3474    0.6649   -7.5435 C   0  0  2  0  0  0  0  0  0  0  0  0
   39.1275   -0.0782   -7.6879 N   0  0  0  0  0  0  0  0  0  0  0  0
   42.3504    3.6985   -2.0029 C   0  0  2  0  0  0  0  0  0  0  0  0
   42.3023    4.6912   -0.9886 O   0  0  0  0  0  0  0  0  0  0  0  0
   39.2409    4.0798    1.2078 C   0  0  1  0  0  0  0  0  0  0  0  0
   39.7261    2.7868    1.7178 O   0  0  0  0  0  0  0  0  0  0  0  0
   48.8047    1.0699   -4.3399 C   0  0  0  0  0  0  0  0  0  0  0  0
   43.5702   -1.5861   -3.7105 C   0  0  2  0  0  0  0  0  0  0  0  0
   44.3687   -1.1538   -2.5380 O   0  0  0  0  0  0  0  0  0  0  0  0
   40.5504    1.0616   -6.0233 C   0  0  2  0  0  0  0  0  0  0  0  0
   43.2652    2.4982   -1.6617 C   0  0  1  0  0  0  0  0  0  0  0  0
   39.5315    5.2771    2.2698 C   0  0  2  0  0  0  0  0  0  0  0  0
   39.0494    6.5728    1.7666 O   0  0  0  0  0  0  0  0  0  0  0  0
   48.2345    1.4754   -5.5718 C   0  0  0  0  0  0  0  0  0  0  0  0
   43.5711   -0.4234   -4.7761 C   0  0  2  0  0  0  0  0  0  0  0  0
   42.7735   -0.9042   -5.8930 O   0  0  0  0  0  0  0  0  0  0  0  0
   41.8923    1.8658   -5.9149 C   0  0  2  0  0  0  0  0  0  0  0  0
   41.9769    2.1544   -4.5246 O   0  0  0  0  0  0  0  0  0  0  0  0
   42.5137    1.3780   -0.9445 C   0  0  0  0  0  0  0  0  0  0  0  0
   41.3020    0.9826   -1.5418 O   0  0  0  0  0  0  0  0  0  0  0  0
   41.1011    5.3640    2.5560 C   0  0  1  0  0  0  0  0  0  0  0  0
   41.8188    5.5725    1.2384 O   0  0  0  0  0  0  0  0  0  0  0  0
   48.1361    2.9203   -5.8828 C   0  0  0  0  0  0  0  0  0  0  0  0
   44.9693   -0.1494   -5.1449 C   0  0  0  0  0  0  0  0  0  0  0  0
   45.0056    0.8199   -6.0679 O   0  0  0  0  0  0  0  0  0  0  0  0
   41.8321    3.1799   -6.8020 C   0  0  1  0  0  0  0  0  0  0  0  0
   43.0313    3.8754   -6.7034 O   0  0  0  0  0  0  0  0  0  0  0  0
   44.9432    5.1208   -4.7444 C   0  0  0  0  0  0  0  0  0  0  0  0
   41.3182    6.5261    3.5630 C   0  0  0  0  0  0  0  0  0  0  0  0
   42.6737    6.5251    4.0543 N   0  0  0  0  0  0  0  0  0  0  0  0
   46.1681    5.9419   -4.3286 C   0  0  0  0  0  0  0  0  0  0  0  0
   47.1369    6.0057   -5.4706 N   0  0  0  0  0  0  0  0  0  0  0  0
   48.5717    5.4992   -5.1626 C   0  0  0  0  0  0  0  0  0  0  0  0
  1  2  1  1  0  0  0
  1  9  1  0  0  0  0
  1 35  1  0  0  0  0
  3  4  1  6  0  0  0
  3 11  1  0  0  0  0
  3 45  1  0  0  0  0
  5  6  1  0  0  0  0
  5 12  1  0  0  0  0
  5 37  1  1  0  0  0
  6 30  1  0  0  0  0
  7 14  1  0  0  0  0
  7 41  1  0  0  0  0
  7 23  1  6  0  0  0
  8 16  2  0  0  0  0
  8 42  1  0  0  0  0
  9 10  1  1  0  0  0
  9 18  1  0  0  0  0
 11 20  1  0  0  0  0
 12 13  1  1  0  0  0
 12 22  1  0  0  0  0
 13 47  1  0  0  0  0
 14 15  1  1  0  0  0
 14 24  1  0  0  0  0
 16 17  1  0  0  0  0
 17 26  2  0  0  0  0
 18 19  1  1  0  0  0
 18 27  1  0  0  0  0
 20 21  1  1  0  0  0
 20 29  1  0  0  0  0
 22 23  1  1  0  0  0
 22 30  1  0  0  0  0
 24 25  1  1  0  0  0
 24 31  1  0  0  0  0
 26 33  1  0  0  0  0
 27 28  1  1  0  0  0
 27 34  1  0  0  0  0
 29  2  1  1  0  0  0
 29 36  1  0  0  0  0
 30 38  1  6  0  0  0
 31 32  1  6  0  0  0
 31 40  1  0  0  0  0
 33 42  2  0  0  0  0
 34 35  1  0  0  0  0
 34 43  1  6  0  0  0
 36 37  1  1  0  0  0
 36 45  1  0  0  0  0
 38 39  1  0  0  0  0
 40 41  1  0  0  0  0
 40 48  1  1  0  0  0
 43 44  1  0  0  0  0
 45 46  1  6  0  0  0
 47 50  1  0  0  0  0
 48 49  1  0  0  0  0
 50 51  1  0  0  0  0
 51 52  1  0  0  0  0
 52  8  1  0  0  0  0
M  END
>  <CHROM.1>
174.69833759,-123.74484038,-67.65066575,57.00091870,178.36289049,167.11875629
46.39310249,-67.38180840,178.94023908,172.92780197,169.99180901,169.30478432
-123.88069224,68.20970580,-124.34096694,42.93036474,2.46156528,-3.33796911
1.18462940,-0.43998391,-2.24225852

>  <Name>
2be0_lig

>  <RI>
2.75444e+07

>  <Rbt.Current_Directory>
/home/itssahil/PROJECTS/Mol_Feturizer/New_Systems/rnas/2be0

>  <Rbt.Executable>
rbdock ($Id: //depot/dev/client3/rdock/2013.1/src/exe/rbdock.cxx#4 $)

>  <Rbt.Library>
libRbt.so (2013.1, Build901 2013/11/27)

>  <Rbt.Parameter_File>
/export/apps/rDock/src/rDock_2013.1_src/data/scripts/dock_solv.prm

>  <Rbt.Receptor>
prm/pocket_docking_5.prm

>  <SCORE>
-16.6817

>  <SCORE.INTER>
2.09818

>  <SCORE.INTER.CONST>
1

>  <SCORE.INTER.POLAR>
0

>  <SCORE.INTER.ROT>
15

>  <SCORE.INTER.SOLV>
16.43

>  <SCORE.INTER.VDW>
-17.6779

>  <SCORE.INTER.norm>
0.0403496

>  <SCORE.INTRA>
-18.7799

>  <SCORE.INTRA.DIHEDRAL>
-34.9498

>  <SCORE.INTRA.DIHEDRAL.0>
47.8724

>  <SCORE.INTRA.POLAR>
0

>  <SCORE.INTRA.POLAR.0>
0

>  <SCORE.INTRA.REPUL>
0.0741862

>  <SCORE.INTRA.REPUL.0>
0

>  <SCORE.INTRA.SOLV>
-1.05524

>  <SCORE.INTRA.SOLV.lig_0>
-115.677

>  <SCORE.INTRA.VDW>
-1.14834

>  <SCORE.INTRA.VDW.0>
-7.4833

>  <SCORE.INTRA.norm>
-0.361152

>  <SCORE.RESTR>
0

>  <SCORE.RESTR.CAVITY>
0

>  <SCORE.RESTR.norm>
0

>  <SCORE.SYSTEM>
0

>  <SCORE.SYSTEM.CONST>
0

>  <SCORE.SYSTEM.DIHEDRAL>
0

>  <SCORE.SYSTEM.SOLV>
0

>  <SCORE.SYSTEM.norm>
0

>  <SCORE.heavy>
52

>  <SCORE.norm>
-0.320803

>  <RMSD>
8.066

$$$$
2be0_lig
 OpenBabel11021811423D
libRbt.so/2013.1/901 2013/11/27
 52 56  0  0  0  0  0  0  0  0999 V2000
   41.5750    1.6445   -6.6438 C   0  0  2  0  0  0  0  0  0  0  0  0
   41.7861    2.8949   -6.0315 O   0  0  0  0  0  0  0  0  0  0  0  0
   43.3870    5.1932   -9.4264 C   0  0  2  0  0  0  0  0  0  0  0  0
   44.0367    6.3033  -10.1782 N   0  0  0  0  0  0  0  0  0  0  0  0
   45.5254    3.5723   -6.0191 C   0  0  2  0  0  0  0  0  0  0  0  0
   46.2228    2.8254   -5.0013 O   0  0  0  0  0  0  0  0  0  0  0  0
   43.8955    4.5486   -1.6280 C   0  0  1  0  0  0  0  0  0  0  0  0
   44.3933    9.8141   -9.6120 C   0  0  0  0  0  0  0  0  0  0  0  0
   40.1322    1.0819   -6.3157 C   0  0  2  0  0  0  0  0  0  0  0  0
   39.1187    2.0737   -6.6810 N   0  0  0  0  0  0  0  0  0  0  0  0
   42.1479    5.7738   -8.6043 C   0  0  0  0  0  0  0  0  0  0  0  0
   44.9496    4.8224   -5.3349 C   0  0  2  0  0  0  0  0  0  0  0  0
   46.0845    5.7960   -5.3734 O   0  0  0  0  0  0  0  0  0  0  0  0
   42.4120    3.9047   -1.7887 C   0  0  2  0  0  0  0  0  0  0  0  0
   41.4712    4.9752   -2.2521 N   0  0  0  0  0  0  0  0  0  0  0  0
   45.0670   11.0759   -9.7056 C   0  0  0  0  0  0  0  0  0  0  0  0
   44.9127   11.8707  -10.8716 N   0  0  0  0  0  0  0  0  0  0  0  0
   40.0496    0.6836   -4.7696 C   0  0  1  0  0  0  0  0  0  0  0  0
   38.7479    0.1894   -4.4948 O   0  0  0  0  0  0  0  0  0  0  0  0
   41.4147    4.5877   -7.7526 C   0  0  2  0  0  0  0  0  0  0  0  0
   40.2964    5.0968   -7.0100 N   0  0  0  0  0  0  0  0  0  0  0  0
   44.5317    4.1865   -3.9956 C   0  0  2  0  0  0  0  0  0  0  0  0
   44.2768    5.0703   -2.9137 O   0  0  0  0  0  0  0  0  0  0  0  0
   41.9796    3.3471   -0.3990 C   0  0  1  0  0  0  0  0  0  0  0  0
   42.9564    2.3010   -0.0544 O   0  0  0  0  0  0  0  0  0  0  0  0
   44.1095   11.4749  -11.9789 C   0  0  0  0  0  0  0  0  0  0  0  0
   41.1474   -0.3787   -4.4724 C   0  0  2  0  0  0  0  0  0  0  0  0
   41.1227   -0.7861   -3.0467 O   0  0  0  0  0  0  0  0  0  0  0  0
   42.4520    3.9200   -6.7587 C   0  0  2  0  0  0  0  0  0  0  0  0
   45.6601    3.1650   -3.7173 C   0  0  1  0  0  0  0  0  0  0  0  0
   41.9831    4.5414    0.7053 C   0  0  2  0  0  0  0  0  0  0  0  0
   41.0091    5.5910    0.3671 O   0  0  0  0  0  0  0  0  0  0  0  0
   43.4188   10.2386  -11.9432 C   0  0  0  0  0  0  0  0  0  0  0  0
   42.5763    0.1998   -4.8057 C   0  0  2  0  0  0  0  0  0  0  0  0
   42.5354    0.5825   -6.2081 O   0  0  0  0  0  0  0  0  0  0  0  0
   43.6501    3.3776   -7.6128 C   0  0  2  0  0  0  0  0  0  0  0  0
   44.5006    2.7965   -6.6318 O   0  0  0  0  0  0  0  0  0  0  0  0
   45.1342    1.8683   -3.1041 C   0  0  0  0  0  0  0  0  0  0  0  0
   46.1119    0.9035   -2.7968 O   0  0  0  0  0  0  0  0  0  0  0  0
   43.4461    5.1772    0.7955 C   0  0  1  0  0  0  0  0  0  0  0  0
   43.8448    5.6626   -0.5829 O   0  0  0  0  0  0  0  0  0  0  0  0
   43.5478    9.3719  -10.7489 C   0  0  0  0  0  0  0  0  0  0  0  0
   43.5664   -0.8527   -4.5264 C   0  0  0  0  0  0  0  0  0  0  0  0
   43.6708   -1.0271   -3.2030 O   0  0  0  0  0  0  0  0  0  0  0  0
   44.3570    4.5588   -8.4017 C   0  0  1  0  0  0  0  0  0  0  0  0
   45.4091    4.0608   -9.1610 O   0  0  0  0  0  0  0  0  0  0  0  0
   46.1153    7.1468   -5.9823 C   0  0  0  0  0  0  0  0  0  0  0  0
   43.3859    6.3137    1.8520 C   0  0  0  0  0  0  0  0  0  0  0  0
   42.6160    7.4273    1.3561 N   0  0  0  0  0  0  0  0  0  0  0  0
   46.0540    6.9604   -7.5018 C   0  0  0  0  0  0  0  0  0  0  0  0
   45.9975    8.3024   -8.1671 N   0  0  0  0  0  0  0  0  0  0  0  0
   44.5849    8.9364   -8.2803 C   0  0  0  0  0  0  0  0  0  0  0  0
  1  2  1  1  0  0  0
  1  9  1  0  0  0  0
  1 35  1  0  0  0  0
  3  4  1  1  0  0  0
  3 11  1  0  0  0  0
  3 45  1  0  0  0  0
  5  6  1  0  0  0  0
  5 12  1  0  0  0  0
  5 37  1  1  0  0  0
  6 30  1  0  0  0  0
  7 14  1  0  0  0  0
  7 41  1  0  0  0  0
  7 23  1  6  0  0  0
  8 16  2  0  0  0  0
  8 42  1  0  0  0  0
  9 10  1  1  0  0  0
  9 18  1  0  0  0  0
 11 20  1  0  0  0  0
 12 13  1  1  0  0  0
 12 22  1  0  0  0  0
 13 47  1  0  0  0  0
 14 15  1  1  0  0  0
 14 24  1  0  0  0  0
 16 17  1  0  0  0  0
 17 26  2  0  0  0  0
 18 19  1  6  0  0  0
 18 27  1  0  0  0  0
 20 21  1  1  0  0  0
 20 29  1  0  0  0  0
 22 23  1  1  0  0  0
 22 30  1  0  0  0  0
 24 25  1  1  0  0  0
 24 31  1  0  0  0  0
 26 33  1  0  0  0  0
 27 28  1  1  0  0  0
 27 34  1  0  0  0  0
 29  2  1  6  0  0  0
 29 36  1  0  0  0  0
 30 38  1  6  0  0  0
 31 32  1  6  0  0  0
 31 40  1  0  0  0  0
 33 42  2  0  0  0  0
 34 35  1  0  0  0  0
 34 43  1  6  0  0  0
 36 37  1  1  0  0  0
 36 45  1  0  0  0  0
 38 39  1  0  0  0  0
 40 41  1  0  0  0  0
 40 48  1  1  0  0  0
 43 44  1  0  0  0  0
 45 46  1  6  0  0  0
 47 50  1  0  0  0  0
 48 49  1  0  0  0  0
 50 51  1  0  0  0  0
 51 52  1  0  0  0  0
 52  8  1  0  0  0  0
M  END
>  <CHROM.1>
-138.79799779,176.65077476,-68.13142969,122.12313429,-69.11394389,-179.35714376
79.43013089,65.09292124,-71.25681457,-91.00513319,-70.09426316,176.56003258
-84.27975589,-146.54750141,-71.87075437,43.34318077,4.39738811,-5.25637407
2.21775986,1.24899954,1.64721076

>  <Name>
2be0_lig

>  <RI>
2.10017e+07

>  <Rbt.Current_Directory>
/home/itssahil/PROJECTS/Mol_Feturizer/New_Systems/rnas/2be0

>  <Rbt.Executable>
rbdock ($Id: //depot/dev/client3/rdock/2013.1/src/exe/rbdock.cxx#4 $)

>  <Rbt.Library>
libRbt.so (2013.1, Build901 2013/11/27)

>  <Rbt.Parameter_File>
/export/apps/rDock/src/rDock_2013.1_src/data/scripts/dock_solv.prm

>  <Rbt.Receptor>
prm/pocket_docking_3.prm

>  <SCORE>
-17.6035

>  <SCORE.INTER>
-9.36622

>  <SCORE.INTER.CONST>
1

>  <SCORE.INTER.POLAR>
0

>  <SCORE.INTER.ROT>
15

>  <SCORE.INTER.SOLV>
14.3778

>  <SCORE.INTER.VDW>
-24.6367

>  <SCORE.INTER.norm>
-0.18012

>  <SCORE.INTRA>
-9.11474

>  <SCORE.INTRA.DIHEDRAL>
-26.3646

>  <SCORE.INTRA.DIHEDRAL.0>
47.8724

>  <SCORE.INTRA.POLAR>
0

>  <SCORE.INTRA.POLAR.0>
0

>  <SCORE.INTRA.REPUL>
0

>  <SCORE.INTRA.REPUL.0>
0

>  <SCORE.INTRA.SOLV>
5.72512

>  <SCORE.INTRA.SOLV.lig_0>
-115.677

>  <SCORE.INTRA.VDW>
1.20501

>  <SCORE.INTRA.VDW.0>
-7.4833

>  <SCORE.INTRA.norm>
-0.175283

>  <SCORE.RESTR>
0.877422

>  <SCORE.RESTR.CAVITY>
0.877422

>  <SCORE.RESTR.norm>
0.0168735

>  <SCORE.SYSTEM>
0

>  <SCORE.SYSTEM.CONST>
0

>  <SCORE.SYSTEM.DIHEDRAL>
0

>  <SCORE.SYSTEM.SOLV>
0

>  <SCORE.SYSTEM.norm>
0

>  <SCORE.heavy>
52

>  <SCORE.norm>
-0.33853

>  <RMSD>
8.068

$$$$
2be0_lig
 OpenBabel11021811423D
libRbt.so/2013.1/901 2013/11/27
 52 56  0  0  0  0  0  0  0  0999 V2000
   41.1821    8.1252    0.9653 C   0  0  2  0  0  0  0  0  0  0  0  0
   41.7587    6.8455    1.0783 O   0  0  0  0  0  0  0  0  0  0  0  0
   40.0490    2.9378    2.1633 C   0  0  2  0  0  0  0  0  0  0  0  0
   39.1224    1.7712    2.1641 N   0  0  0  0  0  0  0  0  0  0  0  0
   43.3610    3.7493   -0.9230 C   0  0  2  0  0  0  0  0  0  0  0  0
   44.3570    4.4839   -1.6639 O   0  0  0  0  0  0  0  0  0  0  0  0
   42.0313    3.2765   -5.5209 C   0  0  1  0  0  0  0  0  0  0  0  0
   41.2172   -3.5051   -2.7293 C   0  0  0  0  0  0  0  0  0  0  0  0
   40.5957    8.3636   -0.4856 C   0  0  2  0  0  0  0  0  0  0  0  0
   39.6639    7.2866   -0.8266 N   0  0  0  0  0  0  0  0  0  0  0  0
   39.2172    4.2662    2.4662 C   0  0  0  0  0  0  0  0  0  0  0  0
   42.8267    2.6564   -1.8625 C   0  0  2  0  0  0  0  0  0  0  0  0
   43.8051    1.5382   -1.6898 O   0  0  0  0  0  0  0  0  0  0  0  0
   42.0161    2.1360   -6.6786 C   0  0  2  0  0  0  0  0  0  0  0  0
   43.4308    1.7712   -7.0122 N   0  0  0  0  0  0  0  0  0  0  0  0
   40.7359   -4.7810   -3.1714 C   0  0  0  0  0  0  0  0  0  0  0  0
   40.4431   -5.7910   -2.2179 N   0  0  0  0  0  0  0  0  0  0  0  0
   41.7940    8.4736   -1.5381 C   0  0  1  0  0  0  0  0  0  0  0  0
   41.2476    8.6793   -2.8317 O   0  0  0  0  0  0  0  0  0  0  0  0
   40.1970    5.5737    2.4601 C   0  0  2  0  0  0  0  0  0  0  0  0
   39.4609    6.7757    2.7337 N   0  0  0  0  0  0  0  0  0  0  0  0
   42.8091    3.4621   -3.1752 C   0  0  2  0  0  0  0  0  0  0  0  0
   42.7189    2.7230   -4.3844 O   0  0  0  0  0  0  0  0  0  0  0  0
   41.2855    2.7267   -7.9222 C   0  0  1  0  0  0  0  0  0  0  0  0
   39.9127    3.0306   -7.4858 O   0  0  0  0  0  0  0  0  0  0  0  0
   40.6061   -5.6041   -0.8156 C   0  0  0  0  0  0  0  0  0  0  0  0
   42.7241    9.6453   -1.1090 C   0  0  2  0  0  0  0  0  0  0  0  0
   43.8614    9.7946   -2.0490 O   0  0  0  0  0  0  0  0  0  0  0  0
   40.9158    5.7000    1.0541 C   0  0  2  0  0  0  0  0  0  0  0  0
   44.0778    4.3418   -3.0719 C   0  0  1  0  0  0  0  0  0  0  0  0
   42.0510    4.0684   -8.4318 C   0  0  2  0  0  0  0  0  0  0  0  0
   43.4240    3.7723   -8.8693 O   0  0  0  0  0  0  0  0  0  0  0  0
   41.0774   -4.3637   -0.3194 C   0  0  0  0  0  0  0  0  0  0  0  0
   43.2975    9.3900    0.3379 C   0  0  2  0  0  0  0  0  0  0  0  0
   42.1403    9.2492    1.2073 O   0  0  0  0  0  0  0  0  0  0  0  0
   41.7069    4.3699    0.8012 C   0  0  2  0  0  0  0  0  0  0  0  0
   42.3139    4.5984   -0.4647 O   0  0  0  0  0  0  0  0  0  0  0  0
   43.8586    5.7482   -3.6270 C   0  0  0  0  0  0  0  0  0  0  0  0
   44.8613    6.6855   -3.3151 O   0  0  0  0  0  0  0  0  0  0  0  0
   42.0854    5.1421   -7.2491 C   0  0  1  0  0  0  0  0  0  0  0  0
   42.7599    4.5122   -6.0479 O   0  0  0  0  0  0  0  0  0  0  0  0
   41.3981   -3.2773   -1.2739 C   0  0  0  0  0  0  0  0  0  0  0  0
   44.1484   10.5363    0.6956 C   0  0  0  0  0  0  0  0  0  0  0  0
   43.4093   11.6527    0.7119 O   0  0  0  0  0  0  0  0  0  0  0  0
   40.7221    3.1260    0.7832 C   0  0  1  0  0  0  0  0  0  0  0  0
   41.4391    1.9550    0.5686 O   0  0  0  0  0  0  0  0  0  0  0  0
   44.0192    0.3620   -2.5657 C   0  0  0  0  0  0  0  0  0  0  0  0
   42.8343    6.3912   -7.7878 C   0  0  0  0  0  0  0  0  0  0  0  0
   42.8507    7.4392   -6.7976 N   0  0  0  0  0  0  0  0  0  0  0  0
   42.6613   -0.3255   -2.7413 C   0  0  0  0  0  0  0  0  0  0  0  0
   42.8397   -1.5882   -3.5290 N   0  0  0  0  0  0  0  0  0  0  0  0
   41.5391   -2.3806   -3.8302 C   0  0  0  0  0  0  0  0  0  0  0  0
  1  2  1  6  0  0  0
  1  9  1  0  0  0  0
  1 35  1  0  0  0  0
  3  4  1  6  0  0  0
  3 11  1  0  0  0  0
  3 45  1  0  0  0  0
  5  6  1  0  0  0  0
  5 12  1  0  0  0  0
  5 37  1  6  0  0  0
  6 30  1  0  0  0  0
  7 14  1  0  0  0  0
  7 41  1  0  0  0  0
  7 23  1  1  0  0  0
  8 16  2  0  0  0  0
  8 42  1  0  0  0  0
  9 10  1  6  0  0  0
  9 18  1  0  0  0  0
 11 20  1  0  0  0  0
 12 13  1  6  0  0  0
 12 22  1  0  0  0  0
 13 47  1  0  0  0  0
 14 15  1  6  0  0  0
 14 24  1  0  0  0  0
 16 17  1  0  0  0  0
 17 26  2  0  0  0  0
 18 19  1  6  0  0  0
 18 27  1  0  0  0  0
 20 21  1  6  0  0  0
 20 29  1  0  0  0  0
 22 23  1  6  0  0  0
 22 30  1  0  0  0  0
 24 25  1  1  0  0  0
 24 31  1  0  0  0  0
 26 33  1  0  0  0  0
 27 28  1  6  0  0  0
 27 34  1  0  0  0  0
 29  2  1  1  0  0  0
 29 36  1  0  0  0  0
 30 38  1  1  0  0  0
 31 32  1  1  0  0  0
 31 40  1  0  0  0  0
 33 42  2  0  0  0  0
 34 35  1  0  0  0  0
 34 43  1  1  0  0  0
 36 37  1  6  0  0  0
 36 45  1  0  0  0  0
 38 39  1  0  0  0  0
 40 41  1  0  0  0  0
 40 48  1  6  0  0  0
 43 44  1  0  0  0  0
 45 46  1  1  0  0  0
 47 50  1  0  0  0  0
 48 49  1  0  0  0  0
 50 51  1  0  0  0  0
 51 52  1  0  0  0  0
 52  8  1  0  0  0  0
M  END
>  <CHROM.1>
-69.08449339,-143.77390403,-175.64282390,-163.17569188,-53.99892165,147.75516332
-76.21626833,50.83173404,61.60133122,165.91214520,177.12607251,-175.40143701
-178.16296652,-92.50330818,-138.79634948,42.05472366,3.90097664,-2.24553098
1.28246825,1.33069483,0.52915830

>  <Name>
2be0_lig

>  <RI>
0

>  <Rbt.Current_Directory>
/home/itssahil/PROJECTS/Mol_Feturizer/New_Systems/rnas/2be0

>  <Rbt.Executable>
rbdock ($Id: //depot/dev/client3/rdock/2013.1/src/exe/rbdock.cxx#4 $)

>  <Rbt.Library>
libRbt.so (2013.1, Build901 2013/11/27)

>  <Rbt.Parameter_File>
/export/apps/rDock/src/rDock_2013.1_src/data/scripts/dock_solv.prm

>  <Rbt.Receptor>
prm/pocket_docking_7.prm

>  <SCORE>
-28.2552

>  <SCORE.INTER>
-13.9203

>  <SCORE.INTER.CONST>
1

>  <SCORE.INTER.POLAR>
-1.64939

>  <SCORE.INTER.ROT>
15

>  <SCORE.INTER.SOLV>
13.6519

>  <SCORE.INTER.VDW>
-21.9328

>  <SCORE.INTER.norm>
-0.267697

>  <SCORE.INTRA>
-14.335

>  <SCORE.INTRA.DIHEDRAL>
-32.8291

>  <SCORE.INTRA.DIHEDRAL.0>
47.8724

>  <SCORE.INTRA.POLAR>
0

>  <SCORE.INTRA.POLAR.0>
0

>  <SCORE.INTRA.REPUL>
0

>  <SCORE.INTRA.REPUL.0>
0

>  <SCORE.INTRA.SOLV>
0.964448

>  <SCORE.INTRA.SOLV.lig_0>
-115.677

>  <SCORE.INTRA.VDW>
1.59733

>  <SCORE.INTRA.VDW.0>
-7.4833

>  <SCORE.INTRA.norm>
-0.275672

>  <SCORE.RESTR>
0

>  <SCORE.RESTR.CAVITY>
0

>  <SCORE.RESTR.norm>
0

>  <SCORE.SYSTEM>
0

>  <SCORE.SYSTEM.CONST>
0

>  <SCORE.SYSTEM.DIHEDRAL>
0

>  <SCORE.SYSTEM.SOLV>
0

>  <SCORE.SYSTEM.norm>
0

>  <SCORE.heavy>
52

>  <SCORE.norm>
-0.54337

>  <RMSD>
8.068

$$$$
2be0_lig
 OpenBabel11021811423D
libRbt.so/2013.1/901 2013/11/27
 52 56  0  0  0  0  0  0  0  0999 V2000
   44.6873    9.6136   -8.9537 C   0  0  2  0  0  0  0  0  0  0  0  0
   45.1105    8.2861   -9.1574 O   0  0  0  0  0  0  0  0  0  0  0  0
   41.3645    6.0985   -8.4138 C   0  0  2  0  0  0  0  0  0  0  0  0
   40.4433    4.9591   -8.1442 N   0  0  0  0  0  0  0  0  0  0  0  0
   44.4015    6.7778   -5.4536 C   0  0  2  0  0  0  0  0  0  0  0  0
   45.4833    7.1063   -4.5581 O   0  0  0  0  0  0  0  0  0  0  0  0
   48.2781    4.0788   -5.9662 C   0  0  1  0  0  0  0  0  0  0  0  0
   43.4085    7.1520   -0.0175 C   0  0  0  0  0  0  0  0  0  0  0  0
   44.1564   10.2587  -10.2982 C   0  0  2  0  0  0  0  0  0  0  0  0
   43.1124    9.4101  -10.8765 N   0  0  0  0  0  0  0  0  0  0  0  0
   42.1966    5.7949   -9.7419 C   0  0  0  0  0  0  0  0  0  0  0  0
   44.6378    5.3332   -5.9225 C   0  0  2  0  0  0  0  0  0  0  0  0
   44.0160    4.5084   -4.8407 O   0  0  0  0  0  0  0  0  0  0  0  0
   48.9480    4.5823   -7.3586 C   0  0  2  0  0  0  0  0  0  0  0  0
   48.4862    3.6845   -8.4661 N   0  0  0  0  0  0  0  0  0  0  0  0
   42.6623    6.5737    1.0612 C   0  0  0  0  0  0  0  0  0  0  0  0
   41.4353    7.1636    1.4632 N   0  0  0  0  0  0  0  0  0  0  0  0
   45.3767   10.4778  -11.3076 C   0  0  1  0  0  0  0  0  0  0  0  0
   44.8791   11.0491  -12.5076 O   0  0  0  0  0  0  0  0  0  0  0  0
   43.2315    7.0172  -10.0657 C   0  0  2  0  0  0  0  0  0  0  0  0
   43.9849    6.7573  -11.2599 N   0  0  0  0  0  0  0  0  0  0  0  0
   46.1709    5.3794   -6.0644 C   0  0  2  0  0  0  0  0  0  0  0  0
   46.8500    4.1342   -6.1340 O   0  0  0  0  0  0  0  0  0  0  0  0
   50.4966    4.5146   -7.1963 C   0  0  1  0  0  0  0  0  0  0  0  0
   50.8354    5.4394   -6.1021 O   0  0  0  0  0  0  0  0  0  0  0  0
   40.8931    8.3247    0.8421 C   0  0  0  0  0  0  0  0  0  0  0  0
   46.4285   11.3967  -10.6210 C   0  0  2  0  0  0  0  0  0  0  0  0
   47.5907   11.6339  -11.5110 O   0  0  0  0  0  0  0  0  0  0  0  0
   44.2226    7.2192   -8.8465 C   0  0  2  0  0  0  0  0  0  0  0  0
   46.6132    6.2685   -4.8778 C   0  0  1  0  0  0  0  0  0  0  0  0
   50.9530    2.9938   -6.8432 C   0  0  2  0  0  0  0  0  0  0  0  0
   50.6171    2.0636   -7.9323 O   0  0  0  0  0  0  0  0  0  0  0  0
   41.5853    8.9396   -0.2301 C   0  0  0  0  0  0  0  0  0  0  0  0
   46.9446   10.7377   -9.2843 C   0  0  2  0  0  0  0  0  0  0  0  0
   45.7646   10.5280   -8.4605 O   0  0  0  0  0  0  0  0  0  0  0  0
   43.3572    7.5027   -7.5698 C   0  0  2  0  0  0  0  0  0  0  0  0
   44.3383    7.6781   -6.5549 O   0  0  0  0  0  0  0  0  0  0  0  0
   47.7680    7.1988   -5.2452 C   0  0  0  0  0  0  0  0  0  0  0  0
   49.0363    6.5920   -5.3135 O   0  0  0  0  0  0  0  0  0  0  0  0
   50.2347    2.5228   -5.4959 C   0  0  1  0  0  0  0  0  0  0  0  0
   48.7365    2.6490   -5.6808 O   0  0  0  0  0  0  0  0  0  0  0  0
   42.8710    8.3629   -0.6869 C   0  0  0  0  0  0  0  0  0  0  0  0
   47.9159   11.6585   -8.6722 C   0  0  0  0  0  0  0  0  0  0  0  0
   47.2990   12.7977   -8.3339 O   0  0  0  0  0  0  0  0  0  0  0  0
   42.3869    6.2842   -7.2677 C   0  0  1  0  0  0  0  0  0  0  0  0
   41.6203    6.5550   -6.1406 O   0  0  0  0  0  0  0  0  0  0  0  0
   44.5204    4.2619   -3.4692 C   0  0  0  0  0  0  0  0  0  0  0  0
   50.6974    1.0671   -5.2163 C   0  0  0  0  0  0  0  0  0  0  0  0
   52.1364    0.9799   -5.2341 N   0  0  0  0  0  0  0  0  0  0  0  0
   43.8495    5.2865   -2.5486 C   0  0  0  0  0  0  0  0  0  0  0  0
   44.8903    6.2027   -1.9795 N   0  0  0  0  0  0  0  0  0  0  0  0
   44.7928    6.4627   -0.4521 C   0  0  0  0  0  0  0  0  0  0  0  0
  1  2  1  6  0  0  0
  1  9  1  0  0  0  0
  1 35  1  0  0  0  0
  3  4  1  1  0  0  0
  3 11  1  0  0  0  0
  3 45  1  0  0  0  0
  5  6  1  0  0  0  0
  5 12  1  0  0  0  0
  5 37  1  6  0  0  0
  6 30  1  0  0  0  0
  7 14  1  0  0  0  0
  7 41  1  0  0  0  0
  7 23  1  6  0  0  0
  8 16  2  0  0  0  0
  8 42  1  0  0  0  0
  9 10  1  6  0  0  0
  9 18  1  0  0  0  0
 11 20  1  0  0  0  0
 12 13  1  1  0  0  0
 12 22  1  0  0  0  0
 13 47  1  0  0  0  0
 14 15  1  6  0  0  0
 14 24  1  0  0  0  0
 16 17  1  0  0  0  0
 17 26  2  0  0  0  0
 18 19  1  6  0  0  0
 18 27  1  0  0  0  0
 20 21  1  6  0  0  0
 20 29  1  0  0  0  0
 22 23  1  1  0  0  0
 22 30  1  0  0  0  0
 24 25  1  1  0  0  0
 24 31  1  0  0  0  0
 26 33  1  0  0  0  0
 27 28  1  6  0  0  0
 27 34  1  0  0  0  0
 29  2  1  6  0  0  0
 29 36  1  0  0  0  0
 30 38  1  6  0  0  0
 31 32  1  6  0  0  0
 31 40  1  0  0  0  0
 33 42  2  0  0  0  0
 34 35  1  0  0  0  0
 34 43  1  1  0  0  0
 36 37  1  1  0  0  0
 36 45  1  0  0  0  0
 38 39  1  0  0  0  0
 40 41  1  0  0  0  0
 40 48  1  6  0  0  0
 43 44  1  0  0  0  0
 45 46  1  1  0  0  0
 47 50  1  0  0  0  0
 48 49  1  0  0  0  0
 50 51  1  0  0  0  0
 51 52  1  0  0  0  0
 52  8  1  0  0  0  0
M  END
>  <CHROM.1>
-97.43913042,178.47031744,-77.26645483,-73.36495772,94.94041440,-166.08257556
82.25271646,167.00935142,63.92263152,-116.73180856,52.48527557,-115.48558002
-133.63785923,-60.93687393,129.87218260,45.68327318,6.74536105,-6.39941733
1.50808855,0.61638218,-1.05140741

>  <Name>
2be0_lig

>  <RI>
224

>  <Rbt.Current_Directory>
/home/itssahil/PROJECTS/Mol_Feturizer/New_Systems/rnas/2be0

>  <Rbt.Executable>
rbdock ($Id: //depot/dev/client3/rdock/2013.1/src/exe/rbdock.cxx#4 $)

>  <Rbt.Library>
libRbt.so (2013.1, Build901 2013/11/27)

>  <Rbt.Parameter_File>
/export/apps/rDock/src/rDock_2013.1_src/data/scripts/dock_solv.prm

>  <Rbt.Receptor>
prm/blind_docking_100.prm

>  <SCORE>
48.7319

>  <SCORE.INTER>
24.7857

>  <SCORE.INTER.CONST>
1

>  <SCORE.INTER.POLAR>
-0.894427

>  <SCORE.INTER.ROT>
15

>  <SCORE.INTER.SOLV>
27.6209

>  <SCORE.INTER.VDW>
-3.30173

>  <SCORE.INTER.norm>
0.476649

>  <SCORE.INTRA>
3.42156

>  <SCORE.INTRA.DIHEDRAL>
-17.4967

>  <SCORE.INTRA.DIHEDRAL.0>
47.8724

>  <SCORE.INTRA.POLAR>
0

>  <SCORE.INTRA.POLAR.0>
0

>  <SCORE.INTRA.REPUL>
0

>  <SCORE.INTRA.REPUL.0>
0

>  <SCORE.INTRA.SOLV>
5.40712

>  <SCORE.INTRA.SOLV.lig_0>
-115.677

>  <SCORE.INTRA.VDW>
9.46635

>  <SCORE.INTRA.VDW.0>
-7.4833

>  <SCORE.INTRA.norm>
0.0657992

>  <SCORE.RESTR>
20.5246

>  <SCORE.RESTR.CAVITY>
20.5246

>  <SCORE.RESTR.norm>
0.394704

>  <SCORE.SYSTEM>
0

>  <SCORE.SYSTEM.CONST>
0

>  <SCORE.SYSTEM.DIHEDRAL>
0

>  <SCORE.SYSTEM.SOLV>
0

>  <SCORE.SYSTEM.norm>
0

>  <SCORE.heavy>
52

>  <SCORE.norm>
0.937152

>  <RMSD>
8.085

$$$$
2be0_lig
 OpenBabel11021811423D
libRbt.so/2013.1/901 2013/11/27
 52 56  0  0  0  0  0  0  0  0999 V2000
   47.9298    5.6174   -8.1686 C   0  0  2  0  0  0  0  0  0  0  0  0
   47.0896    5.3748   -7.0650 O   0  0  0  0  0  0  0  0  0  0  0  0
   42.7395    5.4968   -6.4070 C   0  0  2  0  0  0  0  0  0  0  0  0
   41.2823    5.3408   -6.6748 N   0  0  0  0  0  0  0  0  0  0  0  0
   46.2313    2.4781   -5.0467 C   0  0  2  0  0  0  0  0  0  0  0  0
   47.0544    1.3316   -5.3439 O   0  0  0  0  0  0  0  0  0  0  0  0
   42.7266   -0.6437   -4.4798 C   0  0  1  0  0  0  0  0  0  0  0  0
   43.6182    4.9799    0.4010 C   0  0  0  0  0  0  0  0  0  0  0  0
   48.1492    4.3025   -9.0222 C   0  0  2  0  0  0  0  0  0  0  0  0
   46.8531    3.7388   -9.4057 N   0  0  0  0  0  0  0  0  0  0  0  0
   43.3844    6.4147   -7.5428 C   0  0  0  0  0  0  0  0  0  0  0  0
   45.0853    1.9805   -4.1514 C   0  0  2  0  0  0  0  0  0  0  0  0
   45.6721    2.0235   -2.7763 O   0  0  0  0  0  0  0  0  0  0  0  0
   41.9911   -1.2841   -3.1797 C   0  0  2  0  0  0  0  0  0  0  0  0
   42.7410   -2.5117   -2.7596 N   0  0  0  0  0  0  0  0  0  0  0  0
   43.0475    5.5479    1.5869 C   0  0  0  0  0  0  0  0  0  0  0  0
   42.9601    6.9585    1.7193 N   0  0  0  0  0  0  0  0  0  0  0  0
   49.0312    3.2617   -8.1887 C   0  0  1  0  0  0  0  0  0  0  0  0
   49.2095    2.0886   -8.9673 O   0  0  0  0  0  0  0  0  0  0  0  0
   44.9885    6.5992   -7.2930 C   0  0  2  0  0  0  0  0  0  0  0  0
   45.5805    7.4252   -8.3073 N   0  0  0  0  0  0  0  0  0  0  0  0
   44.8276    0.6226   -4.8315 C   0  0  2  0  0  0  0  0  0  0  0  0
   44.0789   -0.3348   -4.0971 O   0  0  0  0  0  0  0  0  0  0  0  0
   40.5277   -1.6368   -3.5836 C   0  0  1  0  0  0  0  0  0  0  0  0
   39.8875   -0.3652   -3.9585 O   0  0  0  0  0  0  0  0  0  0  0  0
   43.4196    7.8611    0.7182 C   0  0  0  0  0  0  0  0  0  0  0  0
   50.3893    3.9347   -7.8355 C   0  0  2  0  0  0  0  0  0  0  0  0
   51.2527    3.0153   -7.0555 O   0  0  0  0  0  0  0  0  0  0  0  0
   45.6971    5.1824   -7.2822 C   0  0  2  0  0  0  0  0  0  0  0  0
   46.2460    0.1432   -5.2217 C   0  0  1  0  0  0  0  0  0  0  0  0
   40.5310   -2.6830   -4.8291 C   0  0  2  0  0  0  0  0  0  0  0  0
   41.1697   -3.9564   -4.4617 O   0  0  0  0  0  0  0  0  0  0  0  0
   43.9920    7.3580   -0.4761 C   0  0  0  0  0  0  0  0  0  0  0  0
   50.1501    5.2421   -6.9863 C   0  0  2  0  0  0  0  0  0  0  0  0
   49.2988    6.0964   -7.7989 O   0  0  0  0  0  0  0  0  0  0  0  0
   45.0217    4.3196   -6.1603 C   0  0  2  0  0  0  0  0  0  0  0  0
   45.7360    3.0916   -6.2324 O   0  0  0  0  0  0  0  0  0  0  0  0
   46.2721   -0.5553   -6.5802 C   0  0  0  0  0  0  0  0  0  0  0  0
   45.6082   -1.7952   -6.6365 O   0  0  0  0  0  0  0  0  0  0  0  0
   41.3047   -2.0330   -6.0667 C   0  0  1  0  0  0  0  0  0  0  0  0
   42.7035   -1.6632   -5.6182 O   0  0  0  0  0  0  0  0  0  0  0  0
   44.1067    5.8930   -0.6623 C   0  0  0  0  0  0  0  0  0  0  0  0
   51.4632    5.8431   -6.7024 C   0  0  0  0  0  0  0  0  0  0  0  0
   51.2915    7.0609   -6.1732 O   0  0  0  0  0  0  0  0  0  0  0  0
   43.4727    4.1352   -6.4503 C   0  0  1  0  0  0  0  0  0  0  0  0
   42.8872    3.3778   -5.4428 O   0  0  0  0  0  0  0  0  0  0  0  0
   45.2779    1.2355   -1.5846 C   0  0  0  0  0  0  0  0  0  0  0  0
   41.2855   -3.0766   -7.2166 C   0  0  0  0  0  0  0  0  0  0  0  0
   42.2084   -4.1500   -6.9430 N   0  0  0  0  0  0  0  0  0  0  0  0
   43.7681    1.4182   -1.3997 C   0  0  0  0  0  0  0  0  0  0  0  0
   43.4657    2.8679   -1.1683 N   0  0  0  0  0  0  0  0  0  0  0  0
   43.7030    3.3805    0.2777 C   0  0  0  0  0  0  0  0  0  0  0  0
  1  2  1  1  0  0  0
  1  9  1  0  0  0  0
  1 35  1  0  0  0  0
  3  4  1  6  0  0  0
  3 11  1  0  0  0  0
  3 45  1  0  0  0  0
  5  6  1  0  0  0  0
  5 12  1  0  0  0  0
  5 37  1  6  0  0  0
  6 30  1  0  0  0  0
  7 14  1  0  0  0  0
  7 41  1  0  0  0  0
  7 23  1  1  0  0  0
  8 16  2  0  0  0  0
  8 42  1  0  0  0  0
  9 10  1  1  0  0  0
  9 18  1  0  0  0  0
 11 20  1  0  0  0  0
 12 13  1  1  0  0  0
 12 22  1  0  0  0  0
 13 47  1  0  0  0  0
 14 15  1  6  0  0  0
 14 24  1  0  0  0  0
 16 17  1  0  0  0  0
 17 26  2  0  0  0  0
 18 19  1  6  0  0  0
 18 27  1  0  0  0  0
 20 21  1  6  0  0  0
 20 29  1  0  0  0  0
 22 23  1  1  0  0  0
 22 30  1  0  0  0  0
 24 25  1  6  0  0  0
 24 31  1  0  0  0  0
 26 33  1  0  0  0  0
 27 28  1  1  0  0  0
 27 34  1  0  0  0  0
 29  2  1  1  0  0  0
 29 36  1  0  0  0  0
 30 38  1  6  0  0  0
 31 32  1  1  0  0  0
 31 40  1  0  0  0  0
 33 42  2  0  0  0  0
 34 35  1  0  0  0  0
 34 43  1  6  0  0  0
 36 37  1  6  0  0  0
 36 45  1  0  0  0  0
 38 39  1  0  0  0  0
 40 41  1  0  0  0  0
 40 48  1  6  0  0  0
 43 44  1  0  0  0  0
 45 46  1  1  0  0  0
 47 50  1  0  0  0  0
 48 49  1  0  0  0  0
 50 51  1  0  0  0  0
 51 52  1  0  0  0  0
 52  8  1  0  0  0  0
M  END
>  <CHROM.1>
-73.16350666,-173.29865435,-158.61773093,-155.41574054,-52.59143819,107.81317504
-86.69494138,175.80742909,170.08946785,132.68128777,-74.21709373,-61.12646441
-80.34002130,169.63279927,143.93643973,45.01314692,2.56926667,-5.03866002
-0.35160874,-0.78127815,-2.50865072

>  <Name>
2be0_lig

>  <RI>
0

>  <Rbt.Current_Directory>
/home/itssahil/PROJECTS/Mol_Feturizer/New_Systems/rnas/2be0

>  <Rbt.Executable>
rbdock ($Id: //depot/dev/client3/rdock/2013.1/src/exe/rbdock.cxx#4 $)

>  <Rbt.Library>
libRbt.so (2013.1, Build901 2013/11/27)

>  <Rbt.Parameter_File>
/export/apps/rDock/src/rDock_2013.1_src/data/scripts/dock_solv.prm

>  <Rbt.Receptor>
prm/pocket_docking_6.prm

>  <SCORE>
-15.3229

>  <SCORE.INTER>
-5.51363

>  <SCORE.INTER.CONST>
1

>  <SCORE.INTER.POLAR>
0

>  <SCORE.INTER.ROT>
15

>  <SCORE.INTER.SOLV>
14.0511

>  <SCORE.INTER.VDW>
-21.9595

>  <SCORE.INTER.norm>
-0.106031

>  <SCORE.INTRA>
-9.80926

>  <SCORE.INTRA.DIHEDRAL>
-23.6277

>  <SCORE.INTRA.DIHEDRAL.0>
47.8724

>  <SCORE.INTRA.POLAR>
0

>  <SCORE.INTRA.POLAR.0>
0

>  <SCORE.INTRA.REPUL>
0.0627126

>  <SCORE.INTRA.REPUL.0>
0

>  <SCORE.INTRA.SOLV>
1.91719

>  <SCORE.INTRA.SOLV.lig_0>
-115.677

>  <SCORE.INTRA.VDW>
0.732419

>  <SCORE.INTRA.VDW.0>
-7.4833

>  <SCORE.INTRA.norm>
-0.18864

>  <SCORE.RESTR>
0

>  <SCORE.RESTR.CAVITY>
0

>  <SCORE.RESTR.norm>
0

>  <SCORE.SYSTEM>
0

>  <SCORE.SYSTEM.CONST>
0

>  <SCORE.SYSTEM.DIHEDRAL>
0

>  <SCORE.SYSTEM.SOLV>
0

>  <SCORE.SYSTEM.norm>
0

>  <SCORE.heavy>
52

>  <SCORE.norm>
-0.294671

>  <RMSD>
8.085

$$$$
2be0_lig
 OpenBabel11021811423D
libRbt.so/2013.1/901 2013/11/27
 52 56  0  0  0  0  0  0  0  0999 V2000
   40.7640    8.8190   -0.0165 C   0  0  2  0  0  0  0  0  0  0  0  0
   39.9765    7.8867   -0.7190 O   0  0  0  0  0  0  0  0  0  0  0  0
   40.2276    4.3649    1.9086 C   0  0  2  0  0  0  0  0  0  0  0  0
   39.8269    3.1071    2.5992 N   0  0  0  0  0  0  0  0  0  0  0  0
   41.3662    4.3230   -2.3915 C   0  0  2  0  0  0  0  0  0  0  0  0
   42.7532    4.6274   -2.6443 O   0  0  0  0  0  0  0  0  0  0  0  0
   42.2410    5.6508   -6.8854 C   0  0  1  0  0  0  0  0  0  0  0  0
   42.2871   -2.3768   -4.4681 C   0  0  0  0  0  0  0  0  0  0  0  0
   41.6428    9.6879   -1.0058 C   0  0  2  0  0  0  0  0  0  0  0  0
   40.7832   10.3126   -2.0135 N   0  0  0  0  0  0  0  0  0  0  0  0
   39.1504    5.5001    2.2238 C   0  0  0  0  0  0  0  0  0  0  0  0
   40.7328    3.9820   -3.7498 C   0  0  2  0  0  0  0  0  0  0  0  0
   41.0385    2.5280   -3.9228 O   0  0  0  0  0  0  0  0  0  0  0  0
   41.7422    5.3865   -8.4094 C   0  0  2  0  0  0  0  0  0  0  0  0
   41.9113    3.9313   -8.7247 N   0  0  0  0  0  0  0  0  0  0  0  0
   41.3160   -2.9295   -3.5701 C   0  0  0  0  0  0  0  0  0  0  0  0
   40.4809   -3.9920   -4.0046 N   0  0  0  0  0  0  0  0  0  0  0  0
   42.7721    8.7706   -1.6683 C   0  0  1  0  0  0  0  0  0  0  0  0
   43.5428    9.5656   -2.5560 O   0  0  0  0  0  0  0  0  0  0  0  0
   39.5466    6.8954    1.4714 C   0  0  2  0  0  0  0  0  0  0  0  0
   38.5862    7.9259    1.7489 N   0  0  0  0  0  0  0  0  0  0  0  0
   41.4608    5.0257   -4.6179 C   0  0  2  0  0  0  0  0  0  0  0  0
   41.4386    4.8241   -6.0233 O   0  0  0  0  0  0  0  0  0  0  0  0
   42.6126    6.2662   -9.3569 C   0  0  1  0  0  0  0  0  0  0  0  0
   42.3566    7.6634   -8.9701 O   0  0  0  0  0  0  0  0  0  0  0  0
   40.5544   -4.5507   -5.3125 C   0  0  0  0  0  0  0  0  0  0  0  0
   43.6434    8.1598   -0.5325 C   0  0  2  0  0  0  0  0  0  0  0  0
   44.7103    7.2921   -1.0874 O   0  0  0  0  0  0  0  0  0  0  0  0
   39.6325    6.6570   -0.0923 C   0  0  2  0  0  0  0  0  0  0  0  0
   42.8844    5.0636   -4.0129 C   0  0  1  0  0  0  0  0  0  0  0  0
   44.1844    5.8861   -9.1809 C   0  0  2  0  0  0  0  0  0  0  0  0
   44.4478    4.4907   -9.5654 O   0  0  0  0  0  0  0  0  0  0  0  0
   41.4956   -4.0461   -6.2433 C   0  0  0  0  0  0  0  0  0  0  0  0
   42.7508    7.2989    0.4420 C   0  0  2  0  0  0  0  0  0  0  0  0
   41.7272    8.1998    0.9474 O   0  0  0  0  0  0  0  0  0  0  0  0
   40.6925    5.5295   -0.3458 C   0  0  2  0  0  0  0  0  0  0  0  0
   40.6951    5.4104   -1.7632 O   0  0  0  0  0  0  0  0  0  0  0  0
   43.4649    6.4764   -3.9768 C   0  0  0  0  0  0  0  0  0  0  0  0
   44.7511    6.5885   -3.4162 O   0  0  0  0  0  0  0  0  0  0  0  0
   44.6191    6.1140   -7.6604 C   0  0  1  0  0  0  0  0  0  0  0  0
   43.7191    5.2788   -6.7731 O   0  0  0  0  0  0  0  0  0  0  0  0
   42.3898   -2.9366   -5.8388 C   0  0  0  0  0  0  0  0  0  0  0  0
   43.6224    6.7676    1.5023 C   0  0  0  0  0  0  0  0  0  0  0  0
   44.3794    5.7815    1.0052 O   0  0  0  0  0  0  0  0  0  0  0  0
   40.2614    4.1822    0.3728 C   0  0  1  0  0  0  0  0  0  0  0  0
   41.2152    3.1969    0.1474 O   0  0  0  0  0  0  0  0  0  0  0  0
   40.8270    1.6814   -5.1206 C   0  0  0  0  0  0  0  0  0  0  0  0
   46.1188    5.7261   -7.5510 C   0  0  0  0  0  0  0  0  0  0  0  0
   46.6551    6.1286   -6.2746 N   0  0  0  0  0  0  0  0  0  0  0  0
   41.2163    0.2498   -4.7382 C   0  0  0  0  0  0  0  0  0  0  0  0
   42.6410    0.2277   -4.2727 N   0  0  0  0  0  0  0  0  0  0  0  0
   43.2195   -1.1761   -3.9490 C   0  0  0  0  0  0  0  0  0  0  0  0
  1  2  1  6  0  0  0
  1  9  1  0  0  0  0
  1 35  1  0  0  0  0
  3  4  1  1  0  0  0
  3 11  1  0  0  0  0
  3 45  1  0  0  0  0
  5  6  1  0  0  0  0
  5 12  1  0  0  0  0
  5 37  1  6  0  0  0
  6 30  1  0  0  0  0
  7 14  1  0  0  0  0
  7 41  1  0  0  0  0
  7 23  1  1  0  0  0
  8 16  2  0  0  0  0
  8 42  1  0  0  0  0
  9 10  1  6  0  0  0
  9 18  1  0  0  0  0
 11 20  1  0  0  0  0
 12 13  1  6  0  0  0
 12 22  1  0  0  0  0
 13 47  1  0  0  0  0
 14 15  1  6  0  0  0
 14 24  1  0  0  0  0
 16 17  1  0  0  0  0
 17 26  2  0  0  0  0
 18 19  1  6  0  0  0
 18 27  1  0  0  0  0
 20 21  1  6  0  0  0
 20 29  1  0  0  0  0
 22 23  1  6  0  0  0
 22 30  1  0  0  0  0
 24 25  1  1  0  0  0
 24 31  1  0  0  0  0
 26 33  1  0  0  0  0
 27 28  1  6  0  0  0
 27 34  1  0  0  0  0
 29  2  1  6  0  0  0
 29 36  1  0  0  0  0
 30 38  1  1  0  0  0
 31 32  1  1  0  0  0
 31 40  1  0  0  0  0
 33 42  2  0  0  0  0
 34 35  1  0  0  0  0
 34 43  1  1  0  0  0
 36 37  1  6  0  0  0
 36 45  1  0  0  0  0
 38 39  1  0  0  0  0
 40 41  1  0  0  0  0
 40 48  1  6  0  0  0
 43 44  1  0  0  0  0
 45 46  1  1  0  0  0
 47 50  1  0  0  0  0
 48 49  1  0  0  0  0
 50 51  1  0  0  0  0
 51 52  1  0  0  0  0
 52  8  1  0  0  0  0
M  END
>  <CHROM.1>
150.39808973,-88.02523951,-167.74517626,-171.62640466,-176.12639697,-171.71576210
29.98258871,62.68146163,-73.84288458,-169.15077009,169.61582262,-58.05363844
-175.58321094,12.27672102,-92.76896598,42.09076164,4.63937500,-3.24466920
1.78685980,1.20176417,0.50252425

>  <Name>
2be0_lig

>  <RI>
2.10017e+07

>  <Rbt.Current_Directory>
/home/itssahil/PROJECTS/Mol_Feturizer/New_Systems/rnas/2be0

>  <Rbt.Executable>
rbdock ($Id: //depot/dev/client3/rdock/2013.1/src/exe/rbdock.cxx#4 $)

>  <Rbt.Library>
libRbt.so (2013.1, Build901 2013/11/27)

>  <Rbt.Parameter_File>
/export/apps/rDock/src/rDock_2013.1_src/data/scripts/dock_solv.prm

>  <Rbt.Receptor>
prm/pocket_docking_3.prm

>  <SCORE>
-20.6281

>  <SCORE.INTER>
-10.663

>  <SCORE.INTER.CONST>
1

>  <SCORE.INTER.POLAR>
-1.97444

>  <SCORE.INTER.ROT>
15

>  <SCORE.INTER.SOLV>
15.3662

>  <SCORE.INTER.VDW>
-19.2492

>  <SCORE.INTER.norm>
-0.205057

>  <SCORE.INTRA>
-10.4006

>  <SCORE.INTRA.DIHEDRAL>
-32.1337

>  <SCORE.INTRA.DIHEDRAL.0>
47.8724

>  <SCORE.INTRA.POLAR>
0

>  <SCORE.INTRA.POLAR.0>
0

>  <SCORE.INTRA.REPUL>
0

>  <SCORE.INTRA.REPUL.0>
0

>  <SCORE.INTRA.SOLV>
0.629525

>  <SCORE.INTRA.SOLV.lig_0>
-115.677

>  <SCORE.INTRA.VDW>
5.35146

>  <SCORE.INTRA.VDW.0>
-7.4833

>  <SCORE.INTRA.norm>
-0.200012

>  <SCORE.RESTR>
0.435504

>  <SCORE.RESTR.CAVITY>
0.435504

>  <SCORE.RESTR.norm>
0.00837508

>  <SCORE.SYSTEM>
0

>  <SCORE.SYSTEM.CONST>
0

>  <SCORE.SYSTEM.DIHEDRAL>
0

>  <SCORE.SYSTEM.SOLV>
0

>  <SCORE.SYSTEM.norm>
0

>  <SCORE.heavy>
52

>  <SCORE.norm>
-0.396694

>  <RMSD>
8.092

$$$$
2be0_lig
 OpenBabel11021811423D
libRbt.so/2013.1/901 2013/11/27
 52 56  0  0  0  0  0  0  0  0999 V2000
   41.8317    5.4408   -2.1774 C   0  0  2  0  0  0  0  0  0  0  0  0
   40.6041    5.6280   -2.8414 O   0  0  0  0  0  0  0  0  0  0  0  0
   38.2870    2.2255   -1.2841 C   0  0  2  0  0  0  0  0  0  0  0  0
   37.1990    1.2146   -1.1664 N   0  0  0  0  0  0  0  0  0  0  0  0
   41.5612    1.9076   -4.3594 C   0  0  2  0  0  0  0  0  0  0  0  0
   42.7030    1.6427   -3.5189 O   0  0  0  0  0  0  0  0  0  0  0  0
   44.0381    3.0790   -7.8996 C   0  0  1  0  0  0  0  0  0  0  0  0
   38.4865    1.2302  -10.0336 C   0  0  0  0  0  0  0  0  0  0  0  0
   42.0011    6.4682   -0.9852 C   0  0  2  0  0  0  0  0  0  0  0  0
   40.8480    6.3793   -0.0869 N   0  0  0  0  0  0  0  0  0  0  0  0
   37.6478    3.6879   -1.2493 C   0  0  0  0  0  0  0  0  0  0  0  0
   42.0840    1.9961   -5.8020 C   0  0  2  0  0  0  0  0  0  0  0  0
   42.1074    0.5702   -6.2534 O   0  0  0  0  0  0  0  0  0  0  0  0
   45.4128    3.5018   -8.6564 C   0  0  2  0  0  0  0  0  0  0  0  0
   46.0413    4.6396   -7.9106 N   0  0  0  0  0  0  0  0  0  0  0  0
   39.4510    1.7220  -10.9731 C   0  0  0  0  0  0  0  0  0  0  0  0
   39.1980    1.6083  -12.3653 N   0  0  0  0  0  0  0  0  0  0  0  0
   42.1913    7.9438   -1.5703 C   0  0  1  0  0  0  0  0  0  0  0  0
   42.3336    8.8493   -0.4868 O   0  0  0  0  0  0  0  0  0  0  0  0
   38.8095    4.8282   -1.3903 C   0  0  2  0  0  0  0  0  0  0  0  0
   38.2475    6.1490   -1.3581 N   0  0  0  0  0  0  0  0  0  0  0  0
   43.4082    2.7339   -5.5278 C   0  0  2  0  0  0  0  0  0  0  0  0
   44.3880    2.7038   -6.5553 O   0  0  0  0  0  0  0  0  0  0  0  0
   45.0474    3.9243  -10.1114 C   0  0  1  0  0  0  0  0  0  0  0  0
   44.4581    2.7350  -10.7483 O   0  0  0  0  0  0  0  0  0  0  0  0
   38.0141    1.0181  -12.8925 C   0  0  0  0  0  0  0  0  0  0  0  0
   43.4399    7.9510   -2.4993 C   0  0  2  0  0  0  0  0  0  0  0  0
   43.6661    9.2977   -3.0775 O   0  0  0  0  0  0  0  0  0  0  0  0
   39.6030    4.6220   -2.7458 C   0  0  2  0  0  0  0  0  0  0  0  0
   43.8863    2.1246   -4.1884 C   0  0  1  0  0  0  0  0  0  0  0  0
   43.9905    5.1605  -10.0830 C   0  0  2  0  0  0  0  0  0  0  0  0
   44.5726    6.3527   -9.4473 O   0  0  0  0  0  0  0  0  0  0  0  0
   37.0243    0.5154  -12.0124 C   0  0  0  0  0  0  0  0  0  0  0  0
   43.2525    6.9217   -3.6796 C   0  0  2  0  0  0  0  0  0  0  0  0
   43.0322    5.6288   -3.0512 O   0  0  0  0  0  0  0  0  0  0  0  0
   40.1995    3.1718   -2.7339 C   0  0  2  0  0  0  0  0  0  0  0  0
   40.8913    3.1039   -3.9749 O   0  0  0  0  0  0  0  0  0  0  0  0
   44.5255    3.1649   -3.2700 C   0  0  0  0  0  0  0  0  0  0  0  0
   44.9665    2.6829   -2.0233 O   0  0  0  0  0  0  0  0  0  0  0  0
   42.6765    4.7178   -9.2891 C   0  0  1  0  0  0  0  0  0  0  0  0
   43.0821    4.2714   -7.8996 O   0  0  0  0  0  0  0  0  0  0  0  0
   37.2412    0.6094  -10.5501 C   0  0  0  0  0  0  0  0  0  0  0  0
   44.4685    6.9578   -4.5080 C   0  0  0  0  0  0  0  0  0  0  0  0
   44.4248    8.0227   -5.3184 O   0  0  0  0  0  0  0  0  0  0  0  0
   39.0434    2.0904   -2.6268 C   0  0  1  0  0  0  0  0  0  0  0  0
   39.5884    0.8121   -2.6070 O   0  0  0  0  0  0  0  0  0  0  0  0
   42.3378    0.0430   -7.6191 C   0  0  0  0  0  0  0  0  0  0  0  0
   41.7132    5.9358   -9.2850 C   0  0  0  0  0  0  0  0  0  0  0  0
   40.6220    5.7166   -8.3684 N   0  0  0  0  0  0  0  0  0  0  0  0
   41.2843    0.6768   -8.5333 C   0  0  0  0  0  0  0  0  0  0  0  0
   39.9177    0.4146   -7.9762 N   0  0  0  0  0  0  0  0  0  0  0  0
   38.7985    1.3734   -8.4644 C   0  0  0  0  0  0  0  0  0  0  0  0
  1  2  1  6  0  0  0
  1  9  1  0  0  0  0
  1 35  1  0  0  0  0
  3  4  1  6  0  0  0
  3 11  1  0  0  0  0
  3 45  1  0  0  0  0
  5  6  1  0  0  0  0
  5 12  1  0  0  0  0
  5 37  1  1  0  0  0
  6 30  1  0  0  0  0
  7 14  1  0  0  0  0
  7 41  1  0  0  0  0
  7 23  1  1  0  0  0
  8 16  2  0  0  0  0
  8 42  1  0  0  0  0
  9 10  1  1  0  0  0
  9 18  1  0  0  0  0
 11 20  1  0  0  0  0
 12 13  1  1  0  0  0
 12 22  1  0  0  0  0
 13 47  1  0  0  0  0
 14 15  1  1  0  0  0
 14 24  1  0  0  0  0
 16 17  1  0  0  0  0
 17 26  2  0  0  0  0
 18 19  1  1  0  0  0
 18 27  1  0  0  0  0
 20 21  1  6  0  0  0
 20 29  1  0  0  0  0
 22 23  1  6  0  0  0
 22 30  1  0  0  0  0
 24 25  1  1  0  0  0
 24 31  1  0  0  0  0
 26 33  1  0  0  0  0
 27 28  1  6  0  0  0
 27 34  1  0  0  0  0
 29  2  1  1  0  0  0
 29 36  1  0  0  0  0
 30 38  1  1  0  0  0
 31 32  1  1  0  0  0
 31 40  1  0  0  0  0
 33 42  2  0  0  0  0
 34 35  1  0  0  0  0
 34 43  1  6  0  0  0
 36 37  1  6  0  0  0
 36 45  1  0  0  0  0
 38 39  1  0  0  0  0
 40 41  1  0  0  0  0
 40 48  1  1  0  0  0
 43 44  1  0  0  0  0
 45 46  1  1  0  0  0
 47 50  1  0  0  0  0
 48 49  1  0  0  0  0
 50 51  1  0  0  0  0
 51 52  1  0  0  0  0
 52  8  1  0  0  0  0
M  END
>  <CHROM.1>
-112.17550061,-67.96435267,158.05922503,170.45450071,-57.00572322,51.56966027
82.74105026,62.84890760,-79.43236931,-178.72832490,-168.56779923,-54.70476004
159.21166683,65.80820590,-71.60029143,41.69218650,3.80791885,-5.60635931
1.46776462,0.64897227,1.20557808

>  <Name>
2be0_lig

>  <RI>
0

>  <Rbt.Current_Directory>
/home/itssahil/PROJECTS/Mol_Feturizer/New_Systems/rnas/2be0

>  <Rbt.Executable>
rbdock ($Id: //depot/dev/client3/rdock/2013.1/src/exe/rbdock.cxx#4 $)

>  <Rbt.Library>
libRbt.so (2013.1, Build901 2013/11/27)

>  <Rbt.Parameter_File>
/export/apps/rDock/src/rDock_2013.1_src/data/scripts/dock_solv.prm

>  <Rbt.Receptor>
prm/pocket_docking_6.prm

>  <SCORE>
-16.6265

>  <SCORE.INTER>
-2.38344

>  <SCORE.INTER.CONST>
1

>  <SCORE.INTER.POLAR>
-1.11755

>  <SCORE.INTER.ROT>
15

>  <SCORE.INTER.SOLV>
14.728

>  <SCORE.INTER.VDW>
-16.3731

>  <SCORE.INTER.norm>
-0.0458354

>  <SCORE.INTRA>
-14.243

>  <SCORE.INTRA.DIHEDRAL>
-32.0767

>  <SCORE.INTRA.DIHEDRAL.0>
47.8724

>  <SCORE.INTRA.POLAR>
0

>  <SCORE.INTRA.POLAR.0>
0

>  <SCORE.INTRA.REPUL>
0

>  <SCORE.INTRA.REPUL.0>
0

>  <SCORE.INTRA.SOLV>
1.2995

>  <SCORE.INTRA.SOLV.lig_0>
-115.677

>  <SCORE.INTRA.VDW>
1.1456

>  <SCORE.INTRA.VDW.0>
-7.4833

>  <SCORE.INTRA.norm>
-0.273904

>  <SCORE.RESTR>
0

>  <SCORE.RESTR.CAVITY>
0

>  <SCORE.RESTR.norm>
0

>  <SCORE.SYSTEM>
0

>  <SCORE.SYSTEM.CONST>
0

>  <SCORE.SYSTEM.DIHEDRAL>
0

>  <SCORE.SYSTEM.SOLV>
0

>  <SCORE.SYSTEM.norm>
0

>  <SCORE.heavy>
52

>  <SCORE.norm>
-0.31974

>  <RMSD>
8.105

$$$$
2be0_lig
 OpenBabel11021811423D
libRbt.so/2013.1/901 2013/11/27
 52 56  0  0  0  0  0  0  0  0999 V2000
   42.9518    6.5037   -5.8398 C   0  0  2  0  0  0  0  0  0  0  0  0
   43.3656    5.2730   -5.2948 O   0  0  0  0  0  0  0  0  0  0  0  0
   47.6730    5.5036   -6.1689 C   0  0  2  0  0  0  0  0  0  0  0  0
   49.1234    5.1646   -6.1397 N   0  0  0  0  0  0  0  0  0  0  0  0
   44.4308    2.4170   -6.5812 C   0  0  2  0  0  0  0  0  0  0  0  0
   45.5207    1.5529   -6.9630 O   0  0  0  0  0  0  0  0  0  0  0  0
   43.0853   -0.7464   -9.9170 C   0  0  1  0  0  0  0  0  0  0  0  0
   37.8245    1.7555   -6.1171 C   0  0  0  0  0  0  0  0  0  0  0  0
   41.3732    6.6199   -5.8599 C   0  0  2  0  0  0  0  0  0  0  0  0
   40.8419    6.3844   -4.5157 N   0  0  0  0  0  0  0  0  0  0  0  0
   47.1639    5.7510   -4.6763 C   0  0  0  0  0  0  0  0  0  0  0  0
   43.1322    1.6556   -6.8916 C   0  0  2  0  0  0  0  0  0  0  0  0
   42.9183    0.8174   -5.6713 O   0  0  0  0  0  0  0  0  0  0  0  0
   41.8344   -1.7167  -10.2844 C   0  0  2  0  0  0  0  0  0  0  0  0
   41.6589   -2.7135   -9.1792 N   0  0  0  0  0  0  0  0  0  0  0  0
   37.2591    0.7336   -5.2859 C   0  0  0  0  0  0  0  0  0  0  0  0
   36.1730   -0.0435   -5.7672 N   0  0  0  0  0  0  0  0  0  0  0  0
   40.7724    5.5941   -6.9288 C   0  0  1  0  0  0  0  0  0  0  0  0
   39.3579    5.7085   -6.9258 O   0  0  0  0  0  0  0  0  0  0  0  0
   45.5705    6.1126   -4.6632 C   0  0  2  0  0  0  0  0  0  0  0  0
   45.1004    6.3398   -3.3258 N   0  0  0  0  0  0  0  0  0  0  0  0
   43.5601    0.9889   -8.2127 C   0  0  2  0  0  0  0  0  0  0  0  0
   42.7757   -0.1042   -8.6671 O   0  0  0  0  0  0  0  0  0  0  0  0
   42.1619   -2.4303  -11.6307 C   0  0  1  0  0  0  0  0  0  0  0  0
   42.2956   -1.3649  -12.6380 O   0  0  0  0  0  0  0  0  0  0  0  0
   35.5998    0.1408   -7.0578 C   0  0  0  0  0  0  0  0  0  0  0  0
   41.3773    5.9225   -8.3247 C   0  0  2  0  0  0  0  0  0  0  0  0
   40.8584    4.9978   -9.3613 O   0  0  0  0  0  0  0  0  0  0  0  0
   44.7461    4.9312   -5.3220 C   0  0  2  0  0  0  0  0  0  0  0  0
   45.0466    0.6349   -7.9695 C   0  0  1  0  0  0  0  0  0  0  0  0
   43.5409   -3.2812  -11.4883 C   0  0  2  0  0  0  0  0  0  0  0  0
   43.4147   -4.3477  -10.4829 O   0  0  0  0  0  0  0  0  0  0  0  0
   36.1175    1.1349   -7.9242 C   0  0  0  0  0  0  0  0  0  0  0  0
   42.9494    5.8019   -8.2844 C   0  0  2  0  0  0  0  0  0  0  0  0
   43.3947    6.7246   -7.2523 O   0  0  0  0  0  0  0  0  0  0  0  0
   45.2909    4.7227   -6.7776 C   0  0  2  0  0  0  0  0  0  0  0  0
   44.4806    3.6623   -7.2700 O   0  0  0  0  0  0  0  0  0  0  0  0
   45.9082    0.8521   -9.2123 C   0  0  0  0  0  0  0  0  0  0  0  0
   47.2916    0.6670   -9.0301 O   0  0  0  0  0  0  0  0  0  0  0  0
   44.7321   -2.2978  -11.0796 C   0  0  1  0  0  0  0  0  0  0  0  0
   44.3526   -1.5918   -9.7942 O   0  0  0  0  0  0  0  0  0  0  0  0
   37.2505    1.9733   -7.4684 C   0  0  0  0  0  0  0  0  0  0  0  0
   43.4632    6.1435   -9.6205 C   0  0  0  0  0  0  0  0  0  0  0  0
   43.5045    5.0403  -10.3782 O   0  0  0  0  0  0  0  0  0  0  0  0
   46.8313    4.3436   -6.7512 C   0  0  1  0  0  0  0  0  0  0  0  0
   47.3011    4.1724   -8.0480 O   0  0  0  0  0  0  0  0  0  0  0  0
   41.8059   -0.1187   -5.3837 C   0  0  0  0  0  0  0  0  0  0  0  0
   46.0144   -3.1637  -10.9479 C   0  0  0  0  0  0  0  0  0  0  0  0
   47.1202   -2.3650  -10.4812 N   0  0  0  0  0  0  0  0  0  0  0  0
   40.6442    0.7138   -4.8318 C   0  0  0  0  0  0  0  0  0  0  0  0
   40.4242    1.9077   -5.7109 N   0  0  0  0  0  0  0  0  0  0  0  0
   39.0537    2.6184   -5.5471 C   0  0  0  0  0  0  0  0  0  0  0  0
  1  2  1  6  0  0  0
  1  9  1  0  0  0  0
  1 35  1  0  0  0  0
  3  4  1  1  0  0  0
  3 11  1  0  0  0  0
  3 45  1  0  0  0  0
  5  6  1  0  0  0  0
  5 12  1  0  0  0  0
  5 37  1  6  0  0  0
  6 30  1  0  0  0  0
  7 14  1  0  0  0  0
  7 41  1  0  0  0  0
  7 23  1  1  0  0  0
  8 16  2  0  0  0  0
  8 42  1  0  0  0  0
  9 10  1  1  0  0  0
  9 18  1  0  0  0  0
 11 20  1  0  0  0  0
 12 13  1  1  0  0  0
 12 22  1  0  0  0  0
 13 47  1  0  0  0  0
 14 15  1  1  0  0  0
 14 24  1  0  0  0  0
 16 17  1  0  0  0  0
 17 26  2  0  0  0  0
 18 19  1  6  0  0  0
 18 27  1  0  0  0  0
 20 21  1  1  0  0  0
 20 29  1  0  0  0  0
 22 23  1  1  0  0  0
 22 30  1  0  0  0  0
 24 25  1  6  0  0  0
 24 31  1  0  0  0  0
 26 33  1  0  0  0  0
 27 28  1  6  0  0  0
 27 34  1  0  0  0  0
 29  2  1  6  0  0  0
 29 36  1  0  0  0  0
 30 38  1  6  0  0  0
 31 32  1  1  0  0  0
 31 40  1  0  0  0  0
 33 42  2  0  0  0  0
 34 35  1  0  0  0  0
 34 43  1  6  0  0  0
 36 37  1  1  0  0  0
 36 45  1  0  0  0  0
 38 39  1  0  0  0  0
 40 41  1  0  0  0  0
 40 48  1  1  0  0  0
 43 44  1  0  0  0  0
 45 46  1  6  0  0  0
 47 50  1  0  0  0  0
 48 49  1  0  0  0  0
 50 51  1  0  0  0  0
 51 52  1  0  0  0  0
 52  8  1  0  0  0  0
M  END
>  <CHROM.1>
173.55912646,-84.38117307,-168.08760030,179.04293610,-83.46173801,177.76343605
53.43742914,58.17837552,-88.52607192,-57.11055986,-175.66075789,47.79068353
162.79143680,-70.49749321,82.54510641,42.94761986,2.22076952,-7.64664031
1.41341801,0.17188899,0.49773072

>  <Name>
2be0_lig

>  <RI>
3.37048e+07

>  <Rbt.Current_Directory>
/home/itssahil/PROJECTS/Mol_Feturizer/New_Systems/rnas/2be0

>  <Rbt.Executable>
rbdock ($Id: //depot/dev/client3/rdock/2013.1/src/exe/rbdock.cxx#4 $)

>  <Rbt.Library>
libRbt.so (2013.1, Build901 2013/11/27)

>  <Rbt.Parameter_File>
/export/apps/rDock/src/rDock_2013.1_src/data/scripts/dock_solv.prm

>  <Rbt.Receptor>
prm/pocket_docking_8.prm

>  <SCORE>
-18.8386

>  <SCORE.INTER>
-1.69126

>  <SCORE.INTER.CONST>
1

>  <SCORE.INTER.POLAR>
-0.589962

>  <SCORE.INTER.ROT>
15

>  <SCORE.INTER.SOLV>
13.4345

>  <SCORE.INTER.VDW>
-17.2391

>  <SCORE.INTER.norm>
-0.0325243

>  <SCORE.INTRA>
-17.1664

>  <SCORE.INTRA.DIHEDRAL>
-37.1865

>  <SCORE.INTRA.DIHEDRAL.0>
47.8724

>  <SCORE.INTRA.POLAR>
0

>  <SCORE.INTRA.POLAR.0>
0

>  <SCORE.INTRA.REPUL>
0.0342652

>  <SCORE.INTRA.REPUL.0>
0

>  <SCORE.INTRA.SOLV>
0.233181

>  <SCORE.INTRA.SOLV.lig_0>
-115.677

>  <SCORE.INTRA.VDW>
1.13897

>  <SCORE.INTRA.VDW.0>
-7.4833

>  <SCORE.INTRA.norm>
-0.330122

>  <SCORE.RESTR>
0.0190165

>  <SCORE.RESTR.CAVITY>
0.0190165

>  <SCORE.RESTR.norm>
0.000365703

>  <SCORE.SYSTEM>
0

>  <SCORE.SYSTEM.CONST>
0

>  <SCORE.SYSTEM.DIHEDRAL>
0

>  <SCORE.SYSTEM.SOLV>
0

>  <SCORE.SYSTEM.norm>
0

>  <SCORE.heavy>
52

>  <SCORE.norm>
-0.362281

>  <RMSD>
8.140

$$$$
2be0_lig
 OpenBabel11021811423D
libRbt.so/2013.1/901 2013/11/27
 52 56  0  0  0  0  0  0  0  0999 V2000
   42.6318    2.8309   -3.0806 C   0  0  2  0  0  0  0  0  0  0  0  0
   42.6977    4.2298   -2.9337 O   0  0  0  0  0  0  0  0  0  0  0  0
   43.6347    7.5046   -5.7209 C   0  0  2  0  0  0  0  0  0  0  0  0
   44.3952    8.3271   -6.7031 N   0  0  0  0  0  0  0  0  0  0  0  0
   41.5909    3.6754   -6.8836 C   0  0  2  0  0  0  0  0  0  0  0  0
   40.3748    4.4484   -6.9462 O   0  0  0  0  0  0  0  0  0  0  0  0
   39.3834   -0.1915   -6.0005 C   0  0  1  0  0  0  0  0  0  0  0  0
   37.2313   -0.2495   -8.9830 C   0  0  0  0  0  0  0  0  0  0  0  0
   41.7888    2.1711   -1.9145 C   0  0  2  0  0  0  0  0  0  0  0  0
   40.4680    2.7993   -1.8412 N   0  0  0  0  0  0  0  0  0  0  0  0
   44.5088    7.3312   -4.3965 C   0  0  0  0  0  0  0  0  0  0  0  0
   41.1864    2.2002   -7.0344 C   0  0  2  0  0  0  0  0  0  0  0  0
   41.1186    2.0060   -8.5160 O   0  0  0  0  0  0  0  0  0  0  0  0
   39.0121   -0.3758   -4.4290 C   0  0  2  0  0  0  0  0  0  0  0  0
   39.7453    0.6639   -3.6370 N   0  0  0  0  0  0  0  0  0  0  0  0
   36.9099    0.3444  -10.2475 C   0  0  0  0  0  0  0  0  0  0  0  0
   35.9994    1.4321  -10.3024 N   0  0  0  0  0  0  0  0  0  0  0  0
   42.5884    2.2970   -0.5358 C   0  0  1  0  0  0  0  0  0  0  0  0
   41.8134    1.7071    0.4965 O   0  0  0  0  0  0  0  0  0  0  0  0
   43.7143    6.4208   -3.2966 C   0  0  2  0  0  0  0  0  0  0  0  0
   44.4894    6.2591   -2.0989 N   0  0  0  0  0  0  0  0  0  0  0  0
   39.8882    2.2260   -6.2057 C   0  0  2  0  0  0  0  0  0  0  0  0
   38.9903    1.1398   -6.3796 O   0  0  0  0  0  0  0  0  0  0  0  0
   39.4452   -1.8102   -4.0003 C   0  0  1  0  0  0  0  0  0  0  0  0
   38.6565   -2.7408   -4.8246 O   0  0  0  0  0  0  0  0  0  0  0  0
   35.3720    1.9772   -9.1460 C   0  0  0  0  0  0  0  0  0  0  0  0
   43.9681    1.5952   -0.6976 C   0  0  2  0  0  0  0  0  0  0  0  0
   44.7604    1.6828    0.5529 O   0  0  0  0  0  0  0  0  0  0  0  0
   43.3862    4.9987   -3.9125 C   0  0  2  0  0  0  0  0  0  0  0  0
   39.2752    3.6057   -6.5443 C   0  0  1  0  0  0  0  0  0  0  0  0
   41.0399   -2.0085   -4.2523 C   0  0  2  0  0  0  0  0  0  0  0  0
   41.8346   -1.0813   -3.4318 O   0  0  0  0  0  0  0  0  0  0  0  0
   35.6518    1.4321   -7.8686 C   0  0  0  0  0  0  0  0  0  0  0  0
   44.7921    2.2657   -1.8633 C   0  0  2  0  0  0  0  0  0  0  0  0
   43.9653    2.1517   -3.0542 O   0  0  0  0  0  0  0  0  0  0  0  0
   42.5386    5.2254   -5.2122 C   0  0  2  0  0  0  0  0  0  0  0  0
   42.2947    3.8996   -5.6663 O   0  0  0  0  0  0  0  0  0  0  0  0
   38.6261    4.2688   -5.3306 C   0  0  0  0  0  0  0  0  0  0  0  0
   38.0190    5.5152   -5.5738 O   0  0  0  0  0  0  0  0  0  0  0  0
   41.3670   -1.7710   -5.7981 C   0  0  1  0  0  0  0  0  0  0  0  0
   40.8882   -0.3864   -6.1833 O   0  0  0  0  0  0  0  0  0  0  0  0
   36.5948    0.2952   -7.7578 C   0  0  0  0  0  0  0  0  0  0  0  0
   46.0720    1.5488   -1.9822 C   0  0  0  0  0  0  0  0  0  0  0  0
   45.8416    0.2823   -2.3504 O   0  0  0  0  0  0  0  0  0  0  0  0
   43.3511    6.0859   -6.2690 C   0  0  1  0  0  0  0  0  0  0  0  0
   42.5832    6.2866   -7.4098 O   0  0  0  0  0  0  0  0  0  0  0  0
   40.1727    1.1678   -9.2899 C   0  0  0  0  0  0  0  0  0  0  0  0
   42.8979   -1.9617   -5.9756 C   0  0  0  0  0  0  0  0  0  0  0  0
   43.2347   -3.3633   -6.0038 N   0  0  0  0  0  0  0  0  0  0  0  0
   40.5591   -0.2946   -9.0459 C   0  0  0  0  0  0  0  0  0  0  0  0
   39.5753   -1.1920   -9.7341 N   0  0  0  0  0  0  0  0  0  0  0  0
   38.2658   -1.4780   -8.9507 C   0  0  0  0  0  0  0  0  0  0  0  0
  1  2  1  1  0  0  0
  1  9  1  0  0  0  0
  1 35  1  0  0  0  0
  3  4  1  6  0  0  0
  3 11  1  0  0  0  0
  3 45  1  0  0  0  0
  5  6  1  0  0  0  0
  5 12  1  0  0  0  0
  5 37  1  1  0  0  0
  6 30  1  0  0  0  0
  7 14  1  0  0  0  0
  7 41  1  0  0  0  0
  7 23  1  1  0  0  0
  8 16  2  0  0  0  0
  8 42  1  0  0  0  0
  9 10  1  1  0  0  0
  9 18  1  0  0  0  0
 11 20  1  0  0  0  0
 12 13  1  6  0  0  0
 12 22  1  0  0  0  0
 13 47  1  0  0  0  0
 14 15  1  1  0  0  0
 14 24  1  0  0  0  0
 16 17  1  0  0  0  0
 17 26  2  0  0  0  0
 18 19  1  1  0  0  0
 18 27  1  0  0  0  0
 20 21  1  1  0  0  0
 20 29  1  0  0  0  0
 22 23  1  6  0  0  0
 22 30  1  0  0  0  0
 24 25  1  6  0  0  0
 24 31  1  0  0  0  0
 26 33  1  0  0  0  0
 27 28  1  1  0  0  0
 27 34  1  0  0  0  0
 29  2  1  1  0  0  0
 29 36  1  0  0  0  0
 30 38  1  1  0  0  0
 31 32  1  1  0  0  0
 31 40  1  0  0  0  0
 33 42  2  0  0  0  0
 34 35  1  0  0  0  0
 34 43  1  6  0  0  0
 36 37  1  6  0  0  0
 36 45  1  0  0  0  0
 38 39  1  0  0  0  0
 40 41  1  0  0  0  0
 40 48  1  1  0  0  0
 43 44  1  0  0  0  0
 45 46  1  6  0  0  0
 47 50  1  0  0  0  0
 48 49  1  0  0  0  0
 50 51  1  0  0  0  0
 51 52  1  0  0  0  0
 52  8  1  0  0  0  0
M  END
>  <CHROM.1>
-178.31084343,-48.89744161,87.45936318,-143.98148928,-72.25542103,64.43592902
-161.97255131,65.19864976,64.15809877,-177.10985883,78.30882255,176.23692995
-83.21732378,76.37189890,49.90131417,41.18008642,2.02909975,-5.25359273,-0.17861734
0.84889638,2.77821090

>  <Name>
2be0_lig

>  <RI>
0

>  <Rbt.Current_Directory>
/home/itssahil/PROJECTS/Mol_Feturizer/New_Systems/rnas/2be0

>  <Rbt.Executable>
rbdock ($Id: //depot/dev/client3/rdock/2013.1/src/exe/rbdock.cxx#4 $)

>  <Rbt.Library>
libRbt.so (2013.1, Build901 2013/11/27)

>  <Rbt.Parameter_File>
/export/apps/rDock/src/rDock_2013.1_src/data/scripts/dock_solv.prm

>  <Rbt.Receptor>
prm/pocket_docking_6.prm

>  <SCORE>
-22.6734

>  <SCORE.INTER>
-5.71827

>  <SCORE.INTER.CONST>
1

>  <SCORE.INTER.POLAR>
-1.18404

>  <SCORE.INTER.ROT>
15

>  <SCORE.INTER.SOLV>
18.8218

>  <SCORE.INTER.VDW>
-19.7393

>  <SCORE.INTER.norm>
-0.109967

>  <SCORE.INTRA>
-16.9551

>  <SCORE.INTRA.DIHEDRAL>
-34.4904

>  <SCORE.INTRA.DIHEDRAL.0>
47.8724

>  <SCORE.INTRA.POLAR>
0

>  <SCORE.INTRA.POLAR.0>
0

>  <SCORE.INTRA.REPUL>
0.0015162

>  <SCORE.INTRA.REPUL.0>
0

>  <SCORE.INTRA.SOLV>
2.4317

>  <SCORE.INTRA.SOLV.lig_0>
-115.677

>  <SCORE.INTRA.VDW>
-0.933343

>  <SCORE.INTRA.VDW.0>
-7.4833

>  <SCORE.INTRA.norm>
-0.32606

>  <SCORE.RESTR>
0

>  <SCORE.RESTR.CAVITY>
0

>  <SCORE.RESTR.norm>
0

>  <SCORE.SYSTEM>
0

>  <SCORE.SYSTEM.CONST>
0

>  <SCORE.SYSTEM.DIHEDRAL>
0

>  <SCORE.SYSTEM.SOLV>
0

>  <SCORE.SYSTEM.norm>
0

>  <SCORE.heavy>
52

>  <SCORE.norm>
-0.436027

>  <RMSD>
8.141

$$$$
2be0_lig
 OpenBabel11021811423D
libRbt.so/2013.1/901 2013/11/27
 52 56  0  0  0  0  0  0  0  0999 V2000
   40.4624    1.3055   -4.6508 C   0  0  2  0  0  0  0  0  0  0  0  0
   41.1879    0.2789   -5.2852 O   0  0  0  0  0  0  0  0  0  0  0  0
   44.0212    0.4020   -8.6509 C   0  0  2  0  0  0  0  0  0  0  0  0
   44.5343    0.5842  -10.0376 N   0  0  0  0  0  0  0  0  0  0  0  0
   43.1160    3.8729   -5.9247 C   0  0  2  0  0  0  0  0  0  0  0  0
   44.2877    3.6429   -5.1156 O   0  0  0  0  0  0  0  0  0  0  0  0
   40.9226    5.9174   -2.4556 C   0  0  1  0  0  0  0  0  0  0  0  0
   47.0170    7.1613   -7.6083 C   0  0  0  0  0  0  0  0  0  0  0  0
   39.7875    0.7896   -3.3151 C   0  0  2  0  0  0  0  0  0  0  0  0
   40.8026    0.1889   -2.4471 N   0  0  0  0  0  0  0  0  0  0  0  0
   42.8309   -0.6615   -8.6697 C   0  0  0  0  0  0  0  0  0  0  0  0
   42.3207    4.9977   -5.2429 C   0  0  2  0  0  0  0  0  0  0  0  0
   42.9535    6.2447   -5.7739 O   0  0  0  0  0  0  0  0  0  0  0  0
   40.9799    7.0123   -1.2560 C   0  0  2  0  0  0  0  0  0  0  0  0
   41.6948    6.4066   -0.0864 N   0  0  0  0  0  0  0  0  0  0  0  0
   48.1711    6.6098   -8.2554 C   0  0  0  0  0  0  0  0  0  0  0  0
   48.8881    5.5537   -7.6345 N   0  0  0  0  0  0  0  0  0  0  0  0
   38.6166   -0.2402   -3.6676 C   0  0  1  0  0  0  0  0  0  0  0  0
   38.0305   -0.6960   -2.4582 O   0  0  0  0  0  0  0  0  0  0  0  0
   42.2293   -0.8799   -7.1662 C   0  0  2  0  0  0  0  0  0  0  0  0
   41.1587   -1.8366   -7.1691 N   0  0  0  0  0  0  0  0  0  0  0  0
   42.5470    4.5898   -3.7749 C   0  0  2  0  0  0  0  0  0  0  0  0
   42.2802    5.5716   -2.7842 O   0  0  0  0  0  0  0  0  0  0  0  0
   39.5145    7.3866   -0.8797 C   0  0  1  0  0  0  0  0  0  0  0  0
   38.9199    7.9821   -2.0876 O   0  0  0  0  0  0  0  0  0  0  0  0
   48.5177    5.0003   -6.3757 C   0  0  0  0  0  0  0  0  0  0  0  0
   37.5804    0.4809   -4.5779 C   0  0  2  0  0  0  0  0  0  0  0  0
   36.4677   -0.4289   -4.9430 O   0  0  0  0  0  0  0  0  0  0  0  0
   41.7061    0.5004   -6.5912 C   0  0  2  0  0  0  0  0  0  0  0  0
   44.0055    4.0733   -3.7681 C   0  0  1  0  0  0  0  0  0  0  0  0
   38.7011    6.0553   -0.4191 C   0  0  2  0  0  0  0  0  0  0  0  0
   39.2902    5.4543    0.7876 O   0  0  0  0  0  0  0  0  0  0  0  0
   47.3853    5.5040   -5.6894 C   0  0  0  0  0  0  0  0  0  0  0  0
   38.2711    0.9876   -5.9021 C   0  0  2  0  0  0  0  0  0  0  0  0
   39.3494    1.8670   -5.4792 O   0  0  0  0  0  0  0  0  0  0  0  0
   42.9068    1.5089   -6.6045 C   0  0  2  0  0  0  0  0  0  0  0  0
   42.3322    2.6922   -6.0631 O   0  0  0  0  0  0  0  0  0  0  0  0
   44.1883    2.8556   -2.8637 C   0  0  0  0  0  0  0  0  0  0  0  0
   45.4590    2.2519   -2.9103 O   0  0  0  0  0  0  0  0  0  0  0  0
   38.7113    4.9885   -1.6085 C   0  0  1  0  0  0  0  0  0  0  0  0
   40.1508    4.6896   -1.9734 O   0  0  0  0  0  0  0  0  0  0  0  0
   46.6036    6.6069   -6.2950 C   0  0  0  0  0  0  0  0  0  0  0  0
   37.2510    1.6768   -6.7087 C   0  0  0  0  0  0  0  0  0  0  0  0
   37.7762    2.0240   -7.8904 O   0  0  0  0  0  0  0  0  0  0  0  0
   43.4456    1.7204   -8.0818 C   0  0  1  0  0  0  0  0  0  0  0  0
   44.5151    2.6079   -8.0753 O   0  0  0  0  0  0  0  0  0  0  0  0
   43.1476    6.6458   -7.1873 C   0  0  0  0  0  0  0  0  0  0  0  0
   37.9335    3.7405   -1.1095 C   0  0  0  0  0  0  0  0  0  0  0  0
   37.8548    2.7431   -2.1476 N   0  0  0  0  0  0  0  0  0  0  0  0
   43.9488    7.9517   -7.1819 C   0  0  0  0  0  0  0  0  0  0  0  0
   44.7023    8.0800   -8.4713 N   0  0  0  0  0  0  0  0  0  0  0  0
   46.2242    8.3546   -8.3348 C   0  0  0  0  0  0  0  0  0  0  0  0
  1  2  1  6  0  0  0
  1  9  1  0  0  0  0
  1 35  1  0  0  0  0
  3  4  1  6  0  0  0
  3 11  1  0  0  0  0
  3 45  1  0  0  0  0
  5  6  1  0  0  0  0
  5 12  1  0  0  0  0
  5 37  1  1  0  0  0
  6 30  1  0  0  0  0
  7 14  1  0  0  0  0
  7 41  1  0  0  0  0
  7 23  1  1  0  0  0
  8 16  2  0  0  0  0
  8 42  1  0  0  0  0
  9 10  1  1  0  0  0
  9 18  1  0  0  0  0
 11 20  1  0  0  0  0
 12 13  1  1  0  0  0
 12 22  1  0  0  0  0
 13 47  1  0  0  0  0
 14 15  1  1  0  0  0
 14 24  1  0  0  0  0
 16 17  1  0  0  0  0
 17 26  2  0  0  0  0
 18 19  1  1  0  0  0
 18 27  1  0  0  0  0
 20 21  1  6  0  0  0
 20 29  1  0  0  0  0
 22 23  1  1  0  0  0
 22 30  1  0  0  0  0
 24 25  1  6  0  0  0
 24 31  1  0  0  0  0
 26 33  1  0  0  0  0
 27 28  1  6  0  0  0
 27 34  1  0  0  0  0
 29  2  1  1  0  0  0
 29 36  1  0  0  0  0
 30 38  1  1  0  0  0
 31 32  1  1  0  0  0
 31 40  1  0  0  0  0
 33 42  2  0  0  0  0
 34 35  1  0  0  0  0
 34 43  1  6  0  0  0
 36 37  1  6  0  0  0
 36 45  1  0  0  0  0
 38 39  1  0  0  0  0
 40 41  1  0  0  0  0
 40 48  1  1  0  0  0
 43 44  1  0  0  0  0
 45 46  1  1  0  0  0
 47 50  1  0  0  0  0
 48 49  1  0  0  0  0
 50 51  1  0  0  0  0
 51 52  1  0  0  0  0
 52  8  1  0  0  0  0
M  END
>  <CHROM.1>
171.22183666,-57.28772214,177.68702097,55.02599538,-175.31630806,73.95375752
-169.52802785,57.72660336,-174.93618128,-179.11171080,177.92584319,154.19342155
-127.69103617,63.19520677,127.69076811,41.97194273,3.49446338,-4.94939823
-3.11940043,0.61378266,0.64332589

>  <Name>
2be0_lig

>  <RI>
0

>  <Rbt.Current_Directory>
/home/itssahil/PROJECTS/Mol_Feturizer/New_Systems/rnas/2be0

>  <Rbt.Executable>
rbdock ($Id: //depot/dev/client3/rdock/2013.1/src/exe/rbdock.cxx#4 $)

>  <Rbt.Library>
libRbt.so (2013.1, Build901 2013/11/27)

>  <Rbt.Parameter_File>
/export/apps/rDock/src/rDock_2013.1_src/data/scripts/dock_solv.prm

>  <Rbt.Receptor>
prm/pocket_docking_6.prm

>  <SCORE>
-19.4516

>  <SCORE.INTER>
0.457633

>  <SCORE.INTER.CONST>
1

>  <SCORE.INTER.POLAR>
0

>  <SCORE.INTER.ROT>
15

>  <SCORE.INTER.SOLV>
8.39715

>  <SCORE.INTER.VDW>
-16.094

>  <SCORE.INTER.norm>
0.00880063

>  <SCORE.INTRA>
-19.9092

>  <SCORE.INTRA.DIHEDRAL>
-41.127

>  <SCORE.INTRA.DIHEDRAL.0>
47.8724

>  <SCORE.INTRA.POLAR>
0

>  <SCORE.INTRA.POLAR.0>
0

>  <SCORE.INTRA.REPUL>
0

>  <SCORE.INTRA.REPUL.0>
0

>  <SCORE.INTRA.SOLV>
0.0684192

>  <SCORE.INTRA.SOLV.lig_0>
-115.677

>  <SCORE.INTRA.VDW>
0.620094

>  <SCORE.INTRA.VDW.0>
-7.4833

>  <SCORE.INTRA.norm>
-0.38287

>  <SCORE.RESTR>
0

>  <SCORE.RESTR.CAVITY>
0

>  <SCORE.RESTR.norm>
0

>  <SCORE.SYSTEM>
0

>  <SCORE.SYSTEM.CONST>
0

>  <SCORE.SYSTEM.DIHEDRAL>
0

>  <SCORE.SYSTEM.SOLV>
0

>  <SCORE.SYSTEM.norm>
0

>  <SCORE.heavy>
52

>  <SCORE.norm>
-0.374069

>  <RMSD>
8.176

$$$$
2be0_lig
 OpenBabel11021811423D
libRbt.so/2013.1/901 2013/11/27
 52 56  0  0  0  0  0  0  0  0999 V2000
   44.2365   10.0841  -11.1319 C   0  0  2  0  0  0  0  0  0  0  0  0
   44.2980    8.7373  -11.5381 O   0  0  0  0  0  0  0  0  0  0  0  0
   42.4209    5.6333   -9.0455 C   0  0  2  0  0  0  0  0  0  0  0  0
   42.2923    4.5200   -8.0639 N   0  0  0  0  0  0  0  0  0  0  0  0
   44.2506    9.2339   -7.5723 C   0  0  2  0  0  0  0  0  0  0  0  0
   45.0013   10.4330   -7.2914 O   0  0  0  0  0  0  0  0  0  0  0  0
   47.8833    6.6592   -7.9438 C   0  0  1  0  0  0  0  0  0  0  0  0
   42.7042    7.1155   -0.3813 C   0  0  0  0  0  0  0  0  0  0  0  0
   43.6047   10.9954  -12.2615 C   0  0  2  0  0  0  0  0  0  0  0  0
   42.3008   10.4598  -12.6585 N   0  0  0  0  0  0  0  0  0  0  0  0
   43.4417    5.2018  -10.1945 C   0  0  0  0  0  0  0  0  0  0  0  0
   45.2229    8.0545   -7.4110 C   0  0  2  0  0  0  0  0  0  0  0  0
   45.1764    7.7611   -5.9450 O   0  0  0  0  0  0  0  0  0  0  0  0
   46.9509    5.9118   -6.8423 C   0  0  2  0  0  0  0  0  0  0  0  0
   47.3931    6.3326   -5.4736 N   0  0  0  0  0  0  0  0  0  0  0  0
   41.5946    6.6927    0.4217 C   0  0  0  0  0  0  0  0  0  0  0  0
   41.8189    6.2376    1.7474 N   0  0  0  0  0  0  0  0  0  0  0  0
   44.6126   11.0943  -13.4985 C   0  0  1  0  0  0  0  0  0  0  0  0
   44.0249   11.9080  -14.5018 O   0  0  0  0  0  0  0  0  0  0  0  0
   43.6220    6.4037  -11.2866 C   0  0  2  0  0  0  0  0  0  0  0  0
   44.5366    6.0270  -12.3272 N   0  0  0  0  0  0  0  0  0  0  0  0
   46.4804    8.7006   -8.0227 C   0  0  2  0  0  0  0  0  0  0  0  0
   47.7255    8.0759   -7.7470 O   0  0  0  0  0  0  0  0  0  0  0  0
   47.1223    4.3747   -7.0346 C   0  0  1  0  0  0  0  0  0  0  0  0
   46.6460    4.0756   -8.3951 O   0  0  0  0  0  0  0  0  0  0  0  0
   43.1137    6.1744    2.3368 C   0  0  0  0  0  0  0  0  0  0  0  0
   45.9617   11.6822  -12.9923 C   0  0  2  0  0  0  0  0  0  0  0  0
   46.9426   11.7946  -14.0988 O   0  0  0  0  0  0  0  0  0  0  0  0
   44.1494    7.7113  -10.5642 C   0  0  2  0  0  0  0  0  0  0  0  0
   46.3969   10.1694   -7.5436 C   0  0  1  0  0  0  0  0  0  0  0  0
   48.6855    3.9625   -6.8551 C   0  0  2  0  0  0  0  0  0  0  0  0
   49.1686    4.2589   -5.4974 O   0  0  0  0  0  0  0  0  0  0  0  0
   44.2484    6.5801    1.5919 C   0  0  0  0  0  0  0  0  0  0  0  0
   46.5748   10.7615  -11.8680 C   0  0  2  0  0  0  0  0  0  0  0  0
   45.5699   10.6880  -10.8194 O   0  0  0  0  0  0  0  0  0  0  0  0
   43.1198    8.0847   -9.4419 C   0  0  2  0  0  0  0  0  0  0  0  0
   43.6811    9.2634   -8.8771 O   0  0  0  0  0  0  0  0  0  0  0  0
   46.8507   11.1589   -8.6155 C   0  0  0  0  0  0  0  0  0  0  0  0
   46.8362   12.5137   -8.2343 O   0  0  0  0  0  0  0  0  0  0  0  0
   49.5701    4.7554   -7.9235 C   0  0  1  0  0  0  0  0  0  0  0  0
   49.3378    6.2401   -7.7325 O   0  0  0  0  0  0  0  0  0  0  0  0
   44.0676    7.0624    0.2030 C   0  0  0  0  0  0  0  0  0  0  0  0
   47.8327   11.3773  -11.4157 C   0  0  0  0  0  0  0  0  0  0  0  0
   48.6463   10.4288  -10.9351 O   0  0  0  0  0  0  0  0  0  0  0  0
   42.9925    6.9094   -8.3836 C   0  0  1  0  0  0  0  0  0  0  0  0
   42.0697    7.2512   -7.4022 O   0  0  0  0  0  0  0  0  0  0  0  0
   44.1639    6.9793   -5.1968 C   0  0  0  0  0  0  0  0  0  0  0  0
   51.0471    4.3320   -7.6980 C   0  0  0  0  0  0  0  0  0  0  0  0
   51.4141    4.4892   -6.3126 N   0  0  0  0  0  0  0  0  0  0  0  0
   44.1973    7.4667   -3.7446 C   0  0  0  0  0  0  0  0  0  0  0  0
   43.1291    6.7678   -2.9591 N   0  0  0  0  0  0  0  0  0  0  0  0
   42.4207    7.6270   -1.8774 C   0  0  0  0  0  0  0  0  0  0  0  0
  1  2  1  6  0  0  0
  1  9  1  0  0  0  0
  1 35  1  0  0  0  0
  3  4  1  1  0  0  0
  3 11  1  0  0  0  0
  3 45  1  0  0  0  0
  5  6  1  0  0  0  0
  5 12  1  0  0  0  0
  5 37  1  6  0  0  0
  6 30  1  0  0  0  0
  7 14  1  0  0  0  0
  7 41  1  0  0  0  0
  7 23  1  1  0  0  0
  8 16  2  0  0  0  0
  8 42  1  0  0  0  0
  9 10  1  6  0  0  0
  9 18  1  0  0  0  0
 11 20  1  0  0  0  0
 12 13  1  1  0  0  0
 12 22  1  0  0  0  0
 13 47  1  0  0  0  0
 14 15  1  1  0  0  0
 14 24  1  0  0  0  0
 16 17  1  0  0  0  0
 17 26  2  0  0  0  0
 18 19  1  6  0  0  0
 18 27  1  0  0  0  0
 20 21  1  6  0  0  0
 20 29  1  0  0  0  0
 22 23  1  1  0  0  0
 22 30  1  0  0  0  0
 24 25  1  6  0  0  0
 24 31  1  0  0  0  0
 26 33  1  0  0  0  0
 27 28  1  6  0  0  0
 27 34  1  0  0  0  0
 29  2  1  6  0  0  0
 29 36  1  0  0  0  0
 30 38  1  6  0  0  0
 31 32  1  1  0  0  0
 31 40  1  0  0  0  0
 33 42  2  0  0  0  0
 34 35  1  0  0  0  0
 34 43  1  1  0  0  0
 36 37  1  1  0  0  0
 36 45  1  0  0  0  0
 38 39  1  0  0  0  0
 40 41  1  0  0  0  0
 40 48  1  1  0  0  0
 43 44  1  0  0  0  0
 45 46  1  1  0  0  0
 47 50  1  0  0  0  0
 48 49  1  0  0  0  0
 50 51  1  0  0  0  0
 51 52  1  0  0  0  0
 52  8  1  0  0  0  0
M  END
>  <CHROM.1>
-147.39930643,168.14574412,-67.29783358,81.01486013,-155.54896046,49.77097121
155.21424638,65.44618192,-153.54201279,-109.14194676,-51.97711100,176.44328924
-143.39824776,-114.29430284,-119.07943140,45.38101522,7.87382039,-7.72287043
1.43253602,0.51105492,-1.14477217

>  <Name>
2be0_lig

>  <RI>
224

>  <Rbt.Current_Directory>
/home/itssahil/PROJECTS/Mol_Feturizer/New_Systems/rnas/2be0

>  <Rbt.Executable>
rbdock ($Id: //depot/dev/client3/rdock/2013.1/src/exe/rbdock.cxx#4 $)

>  <Rbt.Library>
libRbt.so (2013.1, Build901 2013/11/27)

>  <Rbt.Parameter_File>
/export/apps/rDock/src/rDock_2013.1_src/data/scripts/dock_solv.prm

>  <Rbt.Receptor>
prm/blind_docking_100.prm

>  <SCORE>
53.9226

>  <SCORE.INTER>
41.3534

>  <SCORE.INTER.CONST>
1

>  <SCORE.INTER.POLAR>
-0.692054

>  <SCORE.INTER.ROT>
15

>  <SCORE.INTER.SOLV>
36.9489

>  <SCORE.INTER.VDW>
3.95948

>  <SCORE.INTER.norm>
0.795257

>  <SCORE.INTRA>
1.82972

>  <SCORE.INTRA.DIHEDRAL>
-23.0964

>  <SCORE.INTRA.DIHEDRAL.0>
47.8724

>  <SCORE.INTRA.POLAR>
0

>  <SCORE.INTRA.POLAR.0>
0

>  <SCORE.INTRA.REPUL>
0

>  <SCORE.INTRA.REPUL.0>
0

>  <SCORE.INTRA.SOLV>
2.88608

>  <SCORE.INTRA.SOLV.lig_0>
-115.677

>  <SCORE.INTRA.VDW>
11.9349

>  <SCORE.INTRA.VDW.0>
-7.4833

>  <SCORE.INTRA.norm>
0.0351869

>  <SCORE.RESTR>
10.7395

>  <SCORE.RESTR.CAVITY>
10.7395

>  <SCORE.RESTR.norm>
0.206528

>  <SCORE.SYSTEM>
0

>  <SCORE.SYSTEM.CONST>
0

>  <SCORE.SYSTEM.DIHEDRAL>
0

>  <SCORE.SYSTEM.SOLV>
0

>  <SCORE.SYSTEM.norm>
0

>  <SCORE.heavy>
52

>  <SCORE.norm>
1.03697

>  <RMSD>
8.203

$$$$
2be0_lig
 OpenBabel11021811423D
libRbt.so/2013.1/901 2013/11/27
 52 56  0  0  0  0  0  0  0  0999 V2000
   41.9062    4.4117   -2.3524 C   0  0  2  0  0  0  0  0  0  0  0  0
   41.8890    3.4450   -1.3288 O   0  0  0  0  0  0  0  0  0  0  0  0
   40.7789   -0.8136   -1.3868 C   0  0  2  0  0  0  0  0  0  0  0  0
   39.9347   -2.0345   -1.5143 N   0  0  0  0  0  0  0  0  0  0  0  0
   42.2910    1.5329   -4.9457 C   0  0  2  0  0  0  0  0  0  0  0  0
   43.6815    1.1805   -4.7948 O   0  0  0  0  0  0  0  0  0  0  0  0
   43.1553    5.1366   -7.4720 C   0  0  1  0  0  0  0  0  0  0  0  0
   40.6186   -2.8642   -7.7596 C   0  0  0  0  0  0  0  0  0  0  0  0
   42.8344    5.6356   -1.9695 C   0  0  2  0  0  0  0  0  0  0  0  0
   44.1717    5.1526   -1.6192 N   0  0  0  0  0  0  0  0  0  0  0  0
   40.1498    0.1431   -0.2745 C   0  0  0  0  0  0  0  0  0  0  0  0
   42.2140    2.5494   -6.0960 C   0  0  2  0  0  0  0  0  0  0  0  0
   42.1468    1.6897   -7.3182 O   0  0  0  0  0  0  0  0  0  0  0  0
   42.5653    4.4434   -8.8183 C   0  0  2  0  0  0  0  0  0  0  0  0
   43.7127    4.0475   -9.6972 N   0  0  0  0  0  0  0  0  0  0  0  0
   39.3067   -2.9461   -7.1879 C   0  0  0  0  0  0  0  0  0  0  0  0
   39.1519   -3.3608   -5.8391 N   0  0  0  0  0  0  0  0  0  0  0  0
   42.1662    6.4642   -0.7768 C   0  0  1  0  0  0  0  0  0  0  0  0
   43.0163    7.5508   -0.4441 O   0  0  0  0  0  0  0  0  0  0  0  0
   41.0404    1.5035   -0.1137 C   0  0  2  0  0  0  0  0  0  0  0  0
   40.4859    2.3721    0.8861 N   0  0  0  0  0  0  0  0  0  0  0  0
   43.4957    3.3476   -5.7912 C   0  0  2  0  0  0  0  0  0  0  0  0
   44.0062    4.1695   -6.8306 O   0  0  0  0  0  0  0  0  0  0  0  0
   41.6515    5.4851   -9.5315 C   0  0  1  0  0  0  0  0  0  0  0  0
   40.5598    5.7857   -8.5907 O   0  0  0  0  0  0  0  0  0  0  0  0
   40.2516   -3.7094   -5.0042 C   0  0  0  0  0  0  0  0  0  0  0  0
   40.7603    6.9482   -1.2368 C   0  0  2  0  0  0  0  0  0  0  0  0
   40.0868    7.7228   -0.1665 O   0  0  0  0  0  0  0  0  0  0  0  0
   41.1106    2.2668   -1.5000 C   0  0  2  0  0  0  0  0  0  0  0  0
   44.4865    2.2620   -5.3074 C   0  0  1  0  0  0  0  0  0  0  0  0
   42.5056    6.8229   -9.8877 C   0  0  2  0  0  0  0  0  0  0  0  0
   43.5989    6.5299  -10.8275 O   0  0  0  0  0  0  0  0  0  0  0  0
   41.5720   -3.6466   -5.5138 C   0  0  0  0  0  0  0  0  0  0  0  0
   39.8513    5.7158   -1.6141 C   0  0  2  0  0  0  0  0  0  0  0  0
   40.5640    4.9986   -2.6593 O   0  0  0  0  0  0  0  0  0  0  0  0
   41.7235    1.2829   -2.5561 C   0  0  2  0  0  0  0  0  0  0  0  0
   41.7503    2.0680   -3.7420 O   0  0  0  0  0  0  0  0  0  0  0  0
   45.3663    2.7472   -4.1565 C   0  0  0  0  0  0  0  0  0  0  0  0
   46.2172    3.8270   -4.4582 O   0  0  0  0  0  0  0  0  0  0  0  0
   43.1064    7.4431   -8.5434 C   0  0  1  0  0  0  0  0  0  0  0  0
   43.9475    6.3847   -7.8600 O   0  0  0  0  0  0  0  0  0  0  0  0
   41.7868   -3.2204   -6.9161 C   0  0  0  0  0  0  0  0  0  0  0  0
   38.5483    6.2351   -2.0599 C   0  0  0  0  0  0  0  0  0  0  0  0
   37.8807    6.7268   -1.0087 O   0  0  0  0  0  0  0  0  0  0  0  0
   40.8184   -0.0112   -2.7089 C   0  0  1  0  0  0  0  0  0  0  0  0
   41.3800   -0.8770   -3.6399 O   0  0  0  0  0  0  0  0  0  0  0  0
   41.1047    0.7044   -7.6916 C   0  0  0  0  0  0  0  0  0  0  0  0
   43.9171    8.7052   -8.9452 C   0  0  0  0  0  0  0  0  0  0  0  0
   45.2527    8.3429   -9.3498 N   0  0  0  0  0  0  0  0  0  0  0  0
   41.5461    0.0544   -9.0069 C   0  0  0  0  0  0  0  0  0  0  0  0
   40.4752   -0.8783   -9.4865 N   0  0  0  0  0  0  0  0  0  0  0  0
   40.7639   -2.3906   -9.2877 C   0  0  0  0  0  0  0  0  0  0  0  0
  1  2  1  1  0  0  0
  1  9  1  0  0  0  0
  1 35  1  0  0  0  0
  3  4  1  6  0  0  0
  3 11  1  0  0  0  0
  3 45  1  0  0  0  0
  5  6  1  0  0  0  0
  5 12  1  0  0  0  0
  5 37  1  1  0  0  0
  6 30  1  0  0  0  0
  7 14  1  0  0  0  0
  7 41  1  0  0  0  0
  7 23  1  6  0  0  0
  8 16  2  0  0  0  0
  8 42  1  0  0  0  0
  9 10  1  1  0  0  0
  9 18  1  0  0  0  0
 11 20  1  0  0  0  0
 12 13  1  6  0  0  0
 12 22  1  0  0  0  0
 13 47  1  0  0  0  0
 14 15  1  6  0  0  0
 14 24  1  0  0  0  0
 16 17  1  0  0  0  0
 17 26  2  0  0  0  0
 18 19  1  6  0  0  0
 18 27  1  0  0  0  0
 20 21  1  1  0  0  0
 20 29  1  0  0  0  0
 22 23  1  6  0  0  0
 22 30  1  0  0  0  0
 24 25  1  1  0  0  0
 24 31  1  0  0  0  0
 26 33  1  0  0  0  0
 27 28  1  1  0  0  0
 27 34  1  0  0  0  0
 29  2  1  1  0  0  0
 29 36  1  0  0  0  0
 30 38  1  1  0  0  0
 31 32  1  6  0  0  0
 31 40  1  0  0  0  0
 33 42  2  0  0  0  0
 34 35  1  0  0  0  0
 34 43  1  6  0  0  0
 36 37  1  6  0  0  0
 36 45  1  0  0  0  0
 38 39  1  0  0  0  0
 40 41  1  0  0  0  0
 40 48  1  6  0  0  0
 43 44  1  0  0  0  0
 45 46  1  6  0  0  0
 47 50  1  0  0  0  0
 48 49  1  0  0  0  0
 50 51  1  0  0  0  0
 51 52  1  0  0  0  0
 52  8  1  0  0  0  0
M  END
>  <CHROM.1>
-179.69167524,-60.89218866,-95.53358808,61.79815953,-177.51713559,53.30138524
-169.00278498,-178.98895985,-71.16325117,177.97870583,-84.30020420,-175.71121445
-104.51628677,74.20009839,71.86708638,41.88916522,2.91109565,-4.92275309
0.75321014,1.26202235,0.75161585

>  <Name>
2be0_lig

>  <RI>
0

>  <Rbt.Current_Directory>
/home/itssahil/PROJECTS/Mol_Feturizer/New_Systems/rnas/2be0

>  <Rbt.Executable>
rbdock ($Id: //depot/dev/client3/rdock/2013.1/src/exe/rbdock.cxx#4 $)

>  <Rbt.Library>
libRbt.so (2013.1, Build901 2013/11/27)

>  <Rbt.Parameter_File>
/export/apps/rDock/src/rDock_2013.1_src/data/scripts/dock_solv.prm

>  <Rbt.Receptor>
prm/pocket_docking_4.prm

>  <SCORE>
-17.4201

>  <SCORE.INTER>
0.817132

>  <SCORE.INTER.CONST>
1

>  <SCORE.INTER.POLAR>
0

>  <SCORE.INTER.ROT>
15

>  <SCORE.INTER.SOLV>
12.8611

>  <SCORE.INTER.VDW>
-17.3423

>  <SCORE.INTER.norm>
0.0157141

>  <SCORE.INTRA>
-18.2499

>  <SCORE.INTRA.DIHEDRAL>
-37.6207

>  <SCORE.INTRA.DIHEDRAL.0>
47.8724

>  <SCORE.INTRA.POLAR>
0

>  <SCORE.INTRA.POLAR.0>
0

>  <SCORE.INTRA.REPUL>
0

>  <SCORE.INTRA.REPUL.0>
0

>  <SCORE.INTRA.SOLV>
-0.32572

>  <SCORE.INTRA.SOLV.lig_0>
-115.677

>  <SCORE.INTRA.VDW>
0.723285

>  <SCORE.INTRA.VDW.0>
-7.4833

>  <SCORE.INTRA.norm>
-0.35096

>  <SCORE.RESTR>
0.0127191

>  <SCORE.RESTR.CAVITY>
0.0127191

>  <SCORE.RESTR.norm>
0.000244598

>  <SCORE.SYSTEM>
0

>  <SCORE.SYSTEM.CONST>
0

>  <SCORE.SYSTEM.DIHEDRAL>
0

>  <SCORE.SYSTEM.SOLV>
0

>  <SCORE.SYSTEM.norm>
0

>  <SCORE.heavy>
52

>  <SCORE.norm>
-0.335001

>  <RMSD>
8.203

$$$$
2be0_lig
 OpenBabel11021811423D
libRbt.so/2013.1/901 2013/11/27
 52 56  0  0  0  0  0  0  0  0999 V2000
   47.9868    2.9994   -5.7981 C   0  0  2  0  0  0  0  0  0  0  0  0
   47.0202    3.3819   -4.8483 O   0  0  0  0  0  0  0  0  0  0  0  0
   44.3995    6.9039   -4.5335 C   0  0  2  0  0  0  0  0  0  0  0  0
   43.4337    7.9654   -4.9333 N   0  0  0  0  0  0  0  0  0  0  0  0
   43.0328    2.7236   -3.8206 C   0  0  2  0  0  0  0  0  0  0  0  0
   42.9352    1.3121   -3.5402 O   0  0  0  0  0  0  0  0  0  0  0  0
   40.7011    0.3292   -7.2380 C   0  0  1  0  0  0  0  0  0  0  0  0
   35.6832    1.3505   -2.2488 C   0  0  0  0  0  0  0  0  0  0  0  0
   47.6607    1.5747   -6.4061 C   0  0  2  0  0  0  0  0  0  0  0  0
   46.2986    1.5654   -6.9438 N   0  0  0  0  0  0  0  0  0  0  0  0
   45.6647    6.9553   -5.5056 C   0  0  0  0  0  0  0  0  0  0  0  0
   41.8812    3.0654   -4.7795 C   0  0  2  0  0  0  0  0  0  0  0  0
   40.7243    3.3096   -3.8632 O   0  0  0  0  0  0  0  0  0  0  0  0
   39.5025    0.5298   -8.3171 C   0  0  2  0  0  0  0  0  0  0  0  0
   38.2239    0.7750   -7.5748 N   0  0  0  0  0  0  0  0  0  0  0  0
   34.2627    1.3116   -2.0608 C   0  0  0  0  0  0  0  0  0  0  0  0
   33.4782    0.4005   -2.8155 N   0  0  0  0  0  0  0  0  0  0  0  0
   47.8698    0.4523   -5.2871 C   0  0  1  0  0  0  0  0  0  0  0  0
   47.5655   -0.8147   -5.8495 O   0  0  0  0  0  0  0  0  0  0  0  0
   46.7442    5.7948   -5.1086 C   0  0  2  0  0  0  0  0  0  0  0  0
   47.8887    5.8318   -5.9748 N   0  0  0  0  0  0  0  0  0  0  0  0
   41.9137    1.7944   -5.6492 C   0  0  2  0  0  0  0  0  0  0  0  0
   40.7687    1.5288   -6.4461 O   0  0  0  0  0  0  0  0  0  0  0  0
   39.4083   -0.7686   -9.1740 C   0  0  1  0  0  0  0  0  0  0  0  0
   40.7017   -0.8991   -9.8650 O   0  0  0  0  0  0  0  0  0  0  0  0
   34.0358   -0.4958   -3.7714 C   0  0  0  0  0  0  0  0  0  0  0  0
   49.3403    0.5240   -4.7824 C   0  0  2  0  0  0  0  0  0  0  0  0
   49.5948   -0.4951   -3.7356 O   0  0  0  0  0  0  0  0  0  0  0  0
   46.0578    4.3698   -5.1968 C   0  0  2  0  0  0  0  0  0  0  0  0
   42.2435    0.6746   -4.6337 C   0  0  1  0  0  0  0  0  0  0  0  0
   39.1231   -2.0499   -8.2133 C   0  0  2  0  0  0  0  0  0  0  0  0
   37.8319   -1.9261   -7.5191 O   0  0  0  0  0  0  0  0  0  0  0  0
   35.4340   -0.5036   -3.9994 C   0  0  0  0  0  0  0  0  0  0  0  0
   49.6459    1.9498   -4.1813 C   0  0  2  0  0  0  0  0  0  0  0  0
   49.3754    2.8999   -5.2485 O   0  0  0  0  0  0  0  0  0  0  0  0
   44.8194    4.3761   -4.2349 C   0  0  2  0  0  0  0  0  0  0  0  0
   44.2961    3.0619   -4.3839 O   0  0  0  0  0  0  0  0  0  0  0  0
   43.1928   -0.3743   -5.2107 C   0  0  0  0  0  0  0  0  0  0  0  0
   44.4770    0.0920   -5.5492 O   0  0  0  0  0  0  0  0  0  0  0  0
   40.2986   -2.1804   -7.1390 C   0  0  1  0  0  0  0  0  0  0  0  0
   40.3858   -0.8829   -6.3622 O   0  0  0  0  0  0  0  0  0  0  0  0
   36.2966    0.4291   -3.2376 C   0  0  0  0  0  0  0  0  0  0  0  0
   51.0506    1.9636   -3.7425 C   0  0  0  0  0  0  0  0  0  0  0  0
   51.4616    3.2301   -3.6016 O   0  0  0  0  0  0  0  0  0  0  0  0
   43.7788    5.4932   -4.6673 C   0  0  1  0  0  0  0  0  0  0  0  0
   42.6930    5.4929   -3.7997 O   0  0  0  0  0  0  0  0  0  0  0  0
   39.9766    2.3251   -3.0458 C   0  0  0  0  0  0  0  0  0  0  0  0
   39.9680   -3.4079   -6.2471 C   0  0  0  0  0  0  0  0  0  0  0  0
   41.0127   -3.6268   -5.2778 N   0  0  0  0  0  0  0  0  0  0  0  0
   38.8335    3.0805   -2.3602 C   0  0  0  0  0  0  0  0  0  0  0  0
   38.0753    2.1397   -1.4732 N   0  0  0  0  0  0  0  0  0  0  0  0
   36.5461    2.3905   -1.3802 C   0  0  0  0  0  0  0  0  0  0  0  0
  1  2  1  1  0  0  0
  1  9  1  0  0  0  0
  1 35  1  0  0  0  0
  3  4  1  6  0  0  0
  3 11  1  0  0  0  0
  3 45  1  0  0  0  0
  5  6  1  0  0  0  0
  5 12  1  0  0  0  0
  5 37  1  6  0  0  0
  6 30  1  0  0  0  0
  7 14  1  0  0  0  0
  7 41  1  0  0  0  0
  7 23  1  1  0  0  0
  8 16  2  0  0  0  0
  8 42  1  0  0  0  0
  9 10  1  1  0  0  0
  9 18  1  0  0  0  0
 11 20  1  0  0  0  0
 12 13  1  1  0  0  0
 12 22  1  0  0  0  0
 13 47  1  0  0  0  0
 14 15  1  1  0  0  0
 14 24  1  0  0  0  0
 16 17  1  0  0  0  0
 17 26  2  0  0  0  0
 18 19  1  6  0  0  0
 18 27  1  0  0  0  0
 20 21  1  6  0  0  0
 20 29  1  0  0  0  0
 22 23  1  1  0  0  0
 22 30  1  0  0  0  0
 24 25  1  1  0  0  0
 24 31  1  0  0  0  0
 26 33  1  0  0  0  0
 27 28  1  1  0  0  0
 27 34  1  0  0  0  0
 29  2  1  1  0  0  0
 29 36  1  0  0  0  0
 30 38  1  6  0  0  0
 31 32  1  1  0  0  0
 31 40  1  0  0  0  0
 33 42  2  0  0  0  0
 34 35  1  0  0  0  0
 34 43  1  6  0  0  0
 36 37  1  6  0  0  0
 36 45  1  0  0  0  0
 38 39  1  0  0  0  0
 40 41  1  0  0  0  0
 40 48  1  1  0  0  0
 43 44  1  0  0  0  0
 45 46  1  1  0  0  0
 47 50  1  0  0  0  0
 48 49  1  0  0  0  0
 50 51  1  0  0  0  0
 51 52  1  0  0  0  0
 52  8  1  0  0  0  0
M  END
>  <CHROM.1>
-105.31449232,-154.18957028,-164.33890454,-70.19930697,-176.47670846,-177.17951684
-78.10084685,-52.37091505,161.78589701,-170.43466400,177.80480959,-177.70584081
-145.11399468,103.13517525,168.68369092,42.69470964,1.67930062,-5.04027204
-0.21268077,-0.13761943,-2.65671308

>  <Name>
2be0_lig

>  <RI>
3.37048e+07

>  <Rbt.Current_Directory>
/home/itssahil/PROJECTS/Mol_Feturizer/New_Systems/rnas/2be0

>  <Rbt.Executable>
rbdock ($Id: //depot/dev/client3/rdock/2013.1/src/exe/rbdock.cxx#4 $)

>  <Rbt.Library>
libRbt.so (2013.1, Build901 2013/11/27)

>  <Rbt.Parameter_File>
/export/apps/rDock/src/rDock_2013.1_src/data/scripts/dock_solv.prm

>  <Rbt.Receptor>
prm/pocket_docking_8.prm

>  <SCORE>
-11.9557

>  <SCORE.INTER>
0.751373

>  <SCORE.INTER.CONST>
1

>  <SCORE.INTER.POLAR>
-1.00906

>  <SCORE.INTER.ROT>
15

>  <SCORE.INTER.SOLV>
13.0018

>  <SCORE.INTER.VDW>
-14.0695

>  <SCORE.INTER.norm>
0.0144495

>  <SCORE.INTRA>
-12.7071

>  <SCORE.INTRA.DIHEDRAL>
-30.9342

>  <SCORE.INTRA.DIHEDRAL.0>
47.8724

>  <SCORE.INTRA.POLAR>
0

>  <SCORE.INTRA.POLAR.0>
0

>  <SCORE.INTRA.REPUL>
0

>  <SCORE.INTRA.REPUL.0>
0

>  <SCORE.INTRA.SOLV>
0.66939

>  <SCORE.INTRA.SOLV.lig_0>
-115.677

>  <SCORE.INTRA.VDW>
2.42534

>  <SCORE.INTRA.VDW.0>
-7.4833

>  <SCORE.INTRA.norm>
-0.244367

>  <SCORE.RESTR>
0

>  <SCORE.RESTR.CAVITY>
0

>  <SCORE.RESTR.norm>
0

>  <SCORE.SYSTEM>
0

>  <SCORE.SYSTEM.CONST>
0

>  <SCORE.SYSTEM.DIHEDRAL>
0

>  <SCORE.SYSTEM.SOLV>
0

>  <SCORE.SYSTEM.norm>
0

>  <SCORE.heavy>
52

>  <SCORE.norm>
-0.229917

>  <RMSD>
8.211

$$$$
2be0_lig
 OpenBabel11021811423D
libRbt.so/2013.1/901 2013/11/27
 52 56  0  0  0  0  0  0  0  0999 V2000
   44.7156    0.1213   -3.8070 C   0  0  2  0  0  0  0  0  0  0  0  0
   43.7616    1.0199   -3.2918 O   0  0  0  0  0  0  0  0  0  0  0  0
   40.4940    0.3534   -6.1640 C   0  0  2  0  0  0  0  0  0  0  0  0
   39.1267    0.3846   -6.7547 N   0  0  0  0  0  0  0  0  0  0  0  0
   43.1740    3.9605   -6.1449 C   0  0  2  0  0  0  0  0  0  0  0  0
   44.5447    4.3729   -6.3223 O   0  0  0  0  0  0  0  0  0  0  0  0
   42.2041    7.8527   -3.8645 C   0  0  1  0  0  0  0  0  0  0  0  0
   44.5261    9.2845   -9.7273 C   0  0  0  0  0  0  0  0  0  0  0  0
   46.0511    0.1540   -2.9578 C   0  0  2  0  0  0  0  0  0  0  0  0
   45.7463   -0.0861   -1.5457 N   0  0  0  0  0  0  0  0  0  0  0  0
   40.4277   -0.3431   -4.7292 C   0  0  0  0  0  0  0  0  0  0  0  0
   42.3588    5.2358   -5.8778 C   0  0  2  0  0  0  0  0  0  0  0  0
   42.0465    5.7447   -7.2493 O   0  0  0  0  0  0  0  0  0  0  0  0
   43.0279    8.5067   -2.6256 C   0  0  2  0  0  0  0  0  0  0  0  0
   43.9199    7.4575   -2.0346 N   0  0  0  0  0  0  0  0  0  0  0  0
   44.5983    9.1315   -8.3039 C   0  0  0  0  0  0  0  0  0  0  0  0
   45.7644    9.5485   -7.6100 N   0  0  0  0  0  0  0  0  0  0  0  0
   46.7952    1.5514   -3.1799 C   0  0  1  0  0  0  0  0  0  0  0  0
   47.9842    1.5634   -2.4053 O   0  0  0  0  0  0  0  0  0  0  0  0
   41.9085   -0.3846   -4.0396 C   0  0  2  0  0  0  0  0  0  0  0  0
   41.8629   -1.0111   -2.7486 N   0  0  0  0  0  0  0  0  0  0  0  0
   43.3758    5.9854   -4.9965 C   0  0  2  0  0  0  0  0  0  0  0  0
   43.1714    7.3793   -4.8188 O   0  0  0  0  0  0  0  0  0  0  0  0
   41.9922    9.0122   -1.5764 C   0  0  1  0  0  0  0  0  0  0  0  0
   41.1884   10.0415   -2.2559 O   0  0  0  0  0  0  0  0  0  0  0  0
   46.8925   10.1213   -8.2638 C   0  0  0  0  0  0  0  0  0  0  0  0
   47.0914    1.7188   -4.6986 C   0  0  2  0  0  0  0  0  0  0  0  0
   47.7803    3.0040   -4.9687 O   0  0  0  0  0  0  0  0  0  0  0  0
   42.4754    1.0876   -3.8953 C   0  0  2  0  0  0  0  0  0  0  0  0
   44.7372    5.6289   -5.6395 C   0  0  1  0  0  0  0  0  0  0  0  0
   41.0615    7.7766   -1.0734 C   0  0  2  0  0  0  0  0  0  0  0  0
   41.8584    6.7436   -0.3934 O   0  0  0  0  0  0  0  0  0  0  0  0
   46.8784   10.2983   -9.6693 C   0  0  0  0  0  0  0  0  0  0  0  0
   45.7499    1.6832   -5.5272 C   0  0  2  0  0  0  0  0  0  0  0  0
   45.1231    0.4079   -5.2184 O   0  0  0  0  0  0  0  0  0  0  0  0
   42.5096    1.7283   -5.3262 C   0  0  2  0  0  0  0  0  0  0  0  0
   43.0398    3.0251   -5.0798 O   0  0  0  0  0  0  0  0  0  0  0  0
   45.8332    5.4069   -4.5985 C   0  0  0  0  0  0  0  0  0  0  0  0
   46.5883    6.5460   -4.2617 O   0  0  0  0  0  0  0  0  0  0  0  0
   40.3091    7.1335   -2.3276 C   0  0  1  0  0  0  0  0  0  0  0  0
   41.3484    6.6998   -3.3408 O   0  0  0  0  0  0  0  0  0  0  0  0
   45.6849    9.8785  -10.4397 C   0  0  0  0  0  0  0  0  0  0  0  0
   46.0944    1.8238   -6.9512 C   0  0  0  0  0  0  0  0  0  0  0  0
   46.7408    0.7264   -7.3643 O   0  0  0  0  0  0  0  0  0  0  0  0
   41.0529    1.7804   -5.9527 C   0  0  1  0  0  0  0  0  0  0  0  0
   41.1016    2.3408   -7.2236 O   0  0  0  0  0  0  0  0  0  0  0  0
   42.9786    6.3098   -8.2533 C   0  0  0  0  0  0  0  0  0  0  0  0
   39.4486    5.9577   -1.7904 C   0  0  0  0  0  0  0  0  0  0  0  0
   40.2888    4.8602   -1.3800 N   0  0  0  0  0  0  0  0  0  0  0  0
   42.1502    6.6621   -9.4930 C   0  0  0  0  0  0  0  0  0  0  0  0
   43.0441    7.2609  -10.5367 N   0  0  0  0  0  0  0  0  0  0  0  0
   43.1939    8.8053  -10.4861 C   0  0  0  0  0  0  0  0  0  0  0  0
  1  2  1  1  0  0  0
  1  9  1  0  0  0  0
  1 35  1  0  0  0  0
  3  4  1  1  0  0  0
  3 11  1  0  0  0  0
  3 45  1  0  0  0  0
  5  6  1  0  0  0  0
  5 12  1  0  0  0  0
  5 37  1  1  0  0  0
  6 30  1  0  0  0  0
  7 14  1  0  0  0  0
  7 41  1  0  0  0  0
  7 23  1  6  0  0  0
  8 16  2  0  0  0  0
  8 42  1  0  0  0  0
  9 10  1  1  0  0  0
  9 18  1  0  0  0  0
 11 20  1  0  0  0  0
 12 13  1  6  0  0  0
 12 22  1  0  0  0  0
 13 47  1  0  0  0  0
 14 15  1  1  0  0  0
 14 24  1  0  0  0  0
 16 17  1  0  0  0  0
 17 26  2  0  0  0  0
 18 19  1  1  0  0  0
 18 27  1  0  0  0  0
 20 21  1  1  0  0  0
 20 29  1  0  0  0  0
 22 23  1  6  0  0  0
 22 30  1  0  0  0  0
 24 25  1  6  0  0  0
 24 31  1  0  0  0  0
 26 33  1  0  0  0  0
 27 28  1  1  0  0  0
 27 34  1  0  0  0  0
 29  2  1  6  0  0  0
 29 36  1  0  0  0  0
 30 38  1  1  0  0  0
 31 32  1  6  0  0  0
 31 40  1  0  0  0  0
 33 42  2  0  0  0  0
 34 35  1  0  0  0  0
 34 43  1  6  0  0  0
 36 37  1  1  0  0  0
 36 45  1  0  0  0  0
 38 39  1  0  0  0  0
 40 41  1  0  0  0  0
 40 48  1  1  0  0  0
 43 44  1  0  0  0  0
 45 46  1  6  0  0  0
 47 50  1  0  0  0  0
 48 49  1  0  0  0  0
 50 51  1  0  0  0  0
 51 52  1  0  0  0  0
 52  8  1  0  0  0  0
M  END
>  <CHROM.1>
-177.43843906,-120.49472478,108.95242080,-68.49704237,179.38739370,80.08191045
49.36531482,152.23303379,68.26419971,-177.15427853,-70.74621664,179.08906912
-90.42678412,97.99323906,-71.45731454,43.58380398,4.62659403,-5.14560128
-1.62300911,0.93358956,-0.32443036

>  <Name>
2be0_lig

>  <RI>
2.75444e+07

>  <Rbt.Current_Directory>
/home/itssahil/PROJECTS/Mol_Feturizer/New_Systems/rnas/2be0

>  <Rbt.Executable>
rbdock ($Id: //depot/dev/client3/rdock/2013.1/src/exe/rbdock.cxx#4 $)

>  <Rbt.Library>
libRbt.so (2013.1, Build901 2013/11/27)

>  <Rbt.Parameter_File>
/export/apps/rDock/src/rDock_2013.1_src/data/scripts/dock_solv.prm

>  <Rbt.Receptor>
prm/pocket_docking_5.prm

>  <SCORE>
-27.1722

>  <SCORE.INTER>
-15.7744

>  <SCORE.INTER.CONST>
1

>  <SCORE.INTER.POLAR>
-1.81593

>  <SCORE.INTER.ROT>
15

>  <SCORE.INTER.SOLV>
20.1715

>  <SCORE.INTER.VDW>
-24.787

>  <SCORE.INTER.norm>
-0.303353

>  <SCORE.INTRA>
-11.3978

>  <SCORE.INTRA.DIHEDRAL>
-25.7443

>  <SCORE.INTRA.DIHEDRAL.0>
47.8724

>  <SCORE.INTRA.POLAR>
0

>  <SCORE.INTRA.POLAR.0>
0

>  <SCORE.INTRA.REPUL>
0.0317182

>  <SCORE.INTRA.REPUL.0>
0

>  <SCORE.INTRA.SOLV>
0.916715

>  <SCORE.INTRA.SOLV.lig_0>
-115.677

>  <SCORE.INTRA.VDW>
0.857402

>  <SCORE.INTRA.VDW.0>
-7.4833

>  <SCORE.INTRA.norm>
-0.219189

>  <SCORE.RESTR>
0

>  <SCORE.RESTR.CAVITY>
0

>  <SCORE.RESTR.norm>
0

>  <SCORE.SYSTEM>
0

>  <SCORE.SYSTEM.CONST>
0

>  <SCORE.SYSTEM.DIHEDRAL>
0

>  <SCORE.SYSTEM.SOLV>
0

>  <SCORE.SYSTEM.norm>
0

>  <SCORE.heavy>
52

>  <SCORE.norm>
-0.522541

>  <RMSD>
8.214

$$$$
2be0_lig
 OpenBabel11021811423D
libRbt.so/2013.1/901 2013/11/27
 52 56  0  0  0  0  0  0  0  0999 V2000
   42.1384    7.4518   -0.4380 C   0  0  2  0  0  0  0  0  0  0  0  0
   41.9121    6.4586    0.5342 O   0  0  0  0  0  0  0  0  0  0  0  0
   41.6186    2.0752    0.2680 C   0  0  2  0  0  0  0  0  0  0  0  0
   41.1138    0.7317   -0.1314 N   0  0  0  0  0  0  0  0  0  0  0  0
   44.3264    4.9277   -2.2006 C   0  0  2  0  0  0  0  0  0  0  0  0
   44.8136    6.1415   -2.8086 O   0  0  0  0  0  0  0  0  0  0  0  0
   43.8082    5.0768   -6.9292 C   0  0  1  0  0  0  0  0  0  0  0  0
   43.4054   -1.7147   -3.4961 C   0  0  0  0  0  0  0  0  0  0  0  0
   42.9358    8.6771    0.1690 C   0  0  2  0  0  0  0  0  0  0  0  0
   44.1707    8.2025    0.7970 N   0  0  0  0  0  0  0  0  0  0  0  0
   40.4322    2.8982    0.9488 C   0  0  0  0  0  0  0  0  0  0  0  0
   44.3004    3.8587   -3.3047 C   0  0  2  0  0  0  0  0  0  0  0  0
   45.6959    3.3202   -3.3028 O   0  0  0  0  0  0  0  0  0  0  0  0
   42.2509    5.5415   -6.9239 C   0  0  2  0  0  0  0  0  0  0  0  0
   41.3849    4.3201   -6.9881 N   0  0  0  0  0  0  0  0  0  0  0  0
   42.3920   -2.3923   -2.7420 C   0  0  0  0  0  0  0  0  0  0  0  0
   41.4286   -3.1884   -3.4152 N   0  0  0  0  0  0  0  0  0  0  0  0
   42.0044    9.4658    1.2016 C   0  0  1  0  0  0  0  0  0  0  0  0
   42.7394   10.5543    1.7394 O   0  0  0  0  0  0  0  0  0  0  0  0
   40.9421    4.3866    1.3896 C   0  0  2  0  0  0  0  0  0  0  0  0
   39.8842    5.1367    2.0057 N   0  0  0  0  0  0  0  0  0  0  0  0
   43.8215    4.7396   -4.4741 C   0  0  2  0  0  0  0  0  0  0  0  0
   44.0046    4.2261   -5.7854 O   0  0  0  0  0  0  0  0  0  0  0  0
   42.0197    6.4536   -8.1663 C   0  0  1  0  0  0  0  0  0  0  0  0
   42.9016    7.6191   -7.9897 O   0  0  0  0  0  0  0  0  0  0  0  0
   41.4111   -3.3535   -4.8296 C   0  0  0  0  0  0  0  0  0  0  0  0
   40.7271    9.9435    0.4515 C   0  0  2  0  0  0  0  0  0  0  0  0
   39.8188   10.6812    1.3624 O   0  0  0  0  0  0  0  0  0  0  0  0
   41.4778    5.1688    0.1205 C   0  0  2  0  0  0  0  0  0  0  0  0
   44.5386    6.0875   -4.2235 C   0  0  1  0  0  0  0  0  0  0  0  0
   42.3839    5.6418   -9.5280 C   0  0  2  0  0  0  0  0  0  0  0  0
   41.5065    4.4751   -9.7110 O   0  0  0  0  0  0  0  0  0  0  0  0
   42.3885   -2.7090   -5.6272 C   0  0  0  0  0  0  0  0  0  0  0  0
   39.9473    8.7096   -0.1461 C   0  0  2  0  0  0  0  0  0  0  0  0
   40.8872    8.0290   -1.0225 O   0  0  0  0  0  0  0  0  0  0  0  0
   42.6301    4.3156   -0.5148 C   0  0  2  0  0  0  0  0  0  0  0  0
   43.0379    5.1094   -1.6224 O   0  0  0  0  0  0  0  0  0  0  0  0
   43.6533    7.2886   -4.5516 C   0  0  0  0  0  0  0  0  0  0  0  0
   43.9774    8.4817   -3.8789 O   0  0  0  0  0  0  0  0  0  0  0  0
   43.9071    5.1627   -9.4695 C   0  0  1  0  0  0  0  0  0  0  0  0
   44.0983    4.3204   -8.2251 O   0  0  0  0  0  0  0  0  0  0  0  0
   43.4157   -1.8660   -4.9725 C   0  0  0  0  0  0  0  0  0  0  0  0
   38.7665    9.2235   -0.8587 C   0  0  0  0  0  0  0  0  0  0  0  0
   37.9149    9.7648    0.0213 O   0  0  0  0  0  0  0  0  0  0  0  0
   42.0934    2.8899   -0.9585 C   0  0  1  0  0  0  0  0  0  0  0  0
   43.1277    2.1429   -1.5095 O   0  0  0  0  0  0  0  0  0  0  0  0
   46.2894    2.3043   -4.2039 C   0  0  0  0  0  0  0  0  0  0  0  0
   44.1929    4.3875  -10.7844 C   0  0  0  0  0  0  0  0  0  0  0  0
   45.5013    3.7832  -10.7429 N   0  0  0  0  0  0  0  0  0  0  0  0
   46.1889    0.9520   -3.4907 C   0  0  0  0  0  0  0  0  0  0  0  0
   44.7489    0.5501   -3.3840 N   0  0  0  0  0  0  0  0  0  0  0  0
   44.4834   -0.8220   -2.7078 C   0  0  0  0  0  0  0  0  0  0  0  0
  1  2  1  1  0  0  0
  1  9  1  0  0  0  0
  1 35  1  0  0  0  0
  3  4  1  6  0  0  0
  3 11  1  0  0  0  0
  3 45  1  0  0  0  0
  5  6  1  0  0  0  0
  5 12  1  0  0  0  0
  5 37  1  6  0  0  0
  6 30  1  0  0  0  0
  7 14  1  0  0  0  0
  7 41  1  0  0  0  0
  7 23  1  1  0  0  0
  8 16  2  0  0  0  0
  8 42  1  0  0  0  0
  9 10  1  1  0  0  0
  9 18  1  0  0  0  0
 11 20  1  0  0  0  0
 12 13  1  6  0  0  0
 12 22  1  0  0  0  0
 13 47  1  0  0  0  0
 14 15  1  6  0  0  0
 14 24  1  0  0  0  0
 16 17  1  0  0  0  0
 17 26  2  0  0  0  0
 18 19  1  6  0  0  0
 18 27  1  0  0  0  0
 20 21  1  6  0  0  0
 20 29  1  0  0  0  0
 22 23  1  6  0  0  0
 22 30  1  0  0  0  0
 24 25  1  1  0  0  0
 24 31  1  0  0  0  0
 26 33  1  0  0  0  0
 27 28  1  1  0  0  0
 27 34  1  0  0  0  0
 29  2  1  1  0  0  0
 29 36  1  0  0  0  0
 30 38  1  1  0  0  0
 31 32  1  1  0  0  0
 31 40  1  0  0  0  0
 33 42  2  0  0  0  0
 34 35  1  0  0  0  0
 34 43  1  6  0  0  0
 36 37  1  6  0  0  0
 36 45  1  0  0  0  0
 38 39  1  0  0  0  0
 40 41  1  0  0  0  0
 40 48  1  6  0  0  0
 43 44  1  0  0  0  0
 45 46  1  1  0  0  0
 47 50  1  0  0  0  0
 48 49  1  0  0  0  0
 50 51  1  0  0  0  0
 51 52  1  0  0  0  0
 52  8  1  0  0  0  0
M  END
>  <CHROM.1>
-166.30381345,-151.98724769,-62.64053306,-176.79259999,-95.65681513,-168.85865053
-165.32283476,39.10539399,-66.82409651,159.12690672,-173.17808617,67.64613366
178.73141525,-135.26940980,-135.90949120,42.68464535,4.62956290,-3.16871993
-2.74861669,-1.31000158,2.74235492

>  <Name>
2be0_lig

>  <RI>
2.75444e+07

>  <Rbt.Current_Directory>
/home/itssahil/PROJECTS/Mol_Feturizer/New_Systems/rnas/2be0

>  <Rbt.Executable>
rbdock ($Id: //depot/dev/client3/rdock/2013.1/src/exe/rbdock.cxx#4 $)

>  <Rbt.Library>
libRbt.so (2013.1, Build901 2013/11/27)

>  <Rbt.Parameter_File>
/export/apps/rDock/src/rDock_2013.1_src/data/scripts/dock_solv.prm

>  <Rbt.Receptor>
prm/pocket_docking_5.prm

>  <SCORE>
-23.9733

>  <SCORE.INTER>
-9.68863

>  <SCORE.INTER.CONST>
1

>  <SCORE.INTER.POLAR>
-1.13433

>  <SCORE.INTER.ROT>
15

>  <SCORE.INTER.SOLV>
19.0933

>  <SCORE.INTER.VDW>
-22.6424

>  <SCORE.INTER.norm>
-0.18632

>  <SCORE.INTRA>
-14.2862

>  <SCORE.INTRA.DIHEDRAL>
-31.3077

>  <SCORE.INTRA.DIHEDRAL.0>
47.8724

>  <SCORE.INTRA.POLAR>
0

>  <SCORE.INTRA.POLAR.0>
0

>  <SCORE.INTRA.REPUL>
0

>  <SCORE.INTRA.REPUL.0>
0

>  <SCORE.INTRA.SOLV>
-1.21922

>  <SCORE.INTRA.SOLV.lig_0>
-115.677

>  <SCORE.INTRA.VDW>
1.9773

>  <SCORE.INTRA.VDW.0>
-7.4833

>  <SCORE.INTRA.norm>
-0.274734

>  <SCORE.RESTR>
0.00155443

>  <SCORE.RESTR.CAVITY>
0.00155443

>  <SCORE.RESTR.norm>
2.98929e-05

>  <SCORE.SYSTEM>
0

>  <SCORE.SYSTEM.CONST>
0

>  <SCORE.SYSTEM.DIHEDRAL>
0

>  <SCORE.SYSTEM.SOLV>
0

>  <SCORE.SYSTEM.norm>
0

>  <SCORE.heavy>
52

>  <SCORE.norm>
-0.461024

>  <RMSD>
8.215

$$$$
2be0_lig
 OpenBabel11021811423D
libRbt.so/2013.1/901 2013/11/27
 52 56  0  0  0  0  0  0  0  0999 V2000
   44.5735   -0.5130   -3.5936 C   0  0  2  0  0  0  0  0  0  0  0  0
   43.6182    0.1105   -2.7681 O   0  0  0  0  0  0  0  0  0  0  0  0
   39.9857   -0.7260   -5.1082 C   0  0  2  0  0  0  0  0  0  0  0  0
   38.5404   -0.8144   -5.4584 N   0  0  0  0  0  0  0  0  0  0  0  0
   42.0082    3.2113   -5.0769 C   0  0  2  0  0  0  0  0  0  0  0  0
   43.1147    4.0959   -5.3482 O   0  0  0  0  0  0  0  0  0  0  0  0
   40.1127    6.1181   -2.1287 C   0  0  1  0  0  0  0  0  0  0  0  0
   43.8582    8.0496   -9.3536 C   0  0  0  0  0  0  0  0  0  0  0  0
   46.0256   -0.4046   -2.9728 C   0  0  2  0  0  0  0  0  0  0  0  0
   46.0212   -0.9327   -1.6069 N   0  0  0  0  0  0  0  0  0  0  0  0
   40.2453   -1.5298   -3.7536 C   0  0  0  0  0  0  0  0  0  0  0  0
   40.8984    4.0697   -4.4493 C   0  0  2  0  0  0  0  0  0  0  0  0
   40.1801    4.6332   -5.6341 O   0  0  0  0  0  0  0  0  0  0  0  0
   39.5183    7.6218   -1.9646 C   0  0  2  0  0  0  0  0  0  0  0  0
   40.6223    8.5280   -1.5110 N   0  0  0  0  0  0  0  0  0  0  0  0
   44.8479    8.8464   -8.6900 C   0  0  0  0  0  0  0  0  0  0  0  0
   45.1720   10.1318   -9.1978 N   0  0  0  0  0  0  0  0  0  0  0  0
   46.5205    1.1146   -3.0252 C   0  0  1  0  0  0  0  0  0  0  0  0
   47.8191    1.1912   -2.4579 O   0  0  0  0  0  0  0  0  0  0  0  0
   41.8201   -1.4455   -3.3261 C   0  0  2  0  0  0  0  0  0  0  0  0
   42.0674   -2.1669   -2.1097 N   0  0  0  0  0  0  0  0  0  0  0  0
   41.7755    4.9884   -3.5778 C   0  0  2  0  0  0  0  0  0  0  0  0
   41.1775    6.1822   -3.0944 O   0  0  0  0  0  0  0  0  0  0  0  0
   38.3717    7.5704   -0.9102 C   0  0  1  0  0  0  0  0  0  0  0  0
   37.3449    6.6723   -1.4638 O   0  0  0  0  0  0  0  0  0  0  0  0
   44.5564   10.6855  -10.3565 C   0  0  0  0  0  0  0  0  0  0  0  0
   46.5068    1.5891   -4.5074 C   0  0  2  0  0  0  0  0  0  0  0  0
   46.9543    2.9984   -4.6200 O   0  0  0  0  0  0  0  0  0  0  0  0
   42.2461    0.0691   -3.1409 C   0  0  2  0  0  0  0  0  0  0  0  0
   43.0271    5.2260   -4.4560 C   0  0  1  0  0  0  0  0  0  0  0  0
   38.9426    7.0087    0.5056 C   0  0  2  0  0  0  0  0  0  0  0  0
   39.9698    7.9012    1.0648 O   0  0  0  0  0  0  0  0  0  0  0  0
   43.5703    9.9448  -11.0535 C   0  0  0  0  0  0  0  0  0  0  0  0
   45.0530    1.4733   -5.1079 C   0  0  2  0  0  0  0  0  0  0  0  0
   44.6717    0.0771   -4.9655 O   0  0  0  0  0  0  0  0  0  0  0  0
   41.9617    0.8135   -4.4915 C   0  0  2  0  0  0  0  0  0  0  0  0
   42.3881    2.1423   -4.2163 O   0  0  0  0  0  0  0  0  0  0  0  0
   44.3172    5.2491   -3.6380 C   0  0  0  0  0  0  0  0  0  0  0  0
   44.5557    6.4339   -2.9165 O   0  0  0  0  0  0  0  0  0  0  0  0
   39.5600    5.5511    0.2886 C   0  0  1  0  0  0  0  0  0  0  0  0
   40.6351    5.6382   -0.7750 O   0  0  0  0  0  0  0  0  0  0  0  0
   43.1970    8.5973  -10.5643 C   0  0  0  0  0  0  0  0  0  0  0  0
   45.1074    1.9134   -6.5113 C   0  0  0  0  0  0  0  0  0  0  0  0
   43.9742    1.5637   -7.1328 O   0  0  0  0  0  0  0  0  0  0  0  0
   40.4204    0.7378   -4.8601 C   0  0  1  0  0  0  0  0  0  0  0  0
   40.1866    1.3926   -6.0635 O   0  0  0  0  0  0  0  0  0  0  0  0
   40.5548    5.8020   -6.4647 C   0  0  0  0  0  0  0  0  0  0  0  0
   40.0968    5.0728    1.6651 C   0  0  0  0  0  0  0  0  0  0  0  0
   39.0093    4.8588    2.5872 N   0  0  0  0  0  0  0  0  0  0  0  0
   41.7240    5.3690   -7.3551 C   0  0  0  0  0  0  0  0  0  0  0  0
   42.0194    6.4496   -8.3510 N   0  0  0  0  0  0  0  0  0  0  0  0
   43.5106    6.5996   -8.7560 C   0  0  0  0  0  0  0  0  0  0  0  0
  1  2  1  1  0  0  0
  1  9  1  0  0  0  0
  1 35  1  0  0  0  0
  3  4  1  1  0  0  0
  3 11  1  0  0  0  0
  3 45  1  0  0  0  0
  5  6  1  0  0  0  0
  5 12  1  0  0  0  0
  5 37  1  1  0  0  0
  6 30  1  0  0  0  0
  7 14  1  0  0  0  0
  7 41  1  0  0  0  0
  7 23  1  6  0  0  0
  8 16  2  0  0  0  0
  8 42  1  0  0  0  0
  9 10  1  1  0  0  0
  9 18  1  0  0  0  0
 11 20  1  0  0  0  0
 12 13  1  6  0  0  0
 12 22  1  0  0  0  0
 13 47  1  0  0  0  0
 14 15  1  1  0  0  0
 14 24  1  0  0  0  0
 16 17  1  0  0  0  0
 17 26  2  0  0  0  0
 18 19  1  6  0  0  0
 18 27  1  0  0  0  0
 20 21  1  1  0  0  0
 20 29  1  0  0  0  0
 22 23  1  6  0  0  0
 22 30  1  0  0  0  0
 24 25  1  6  0  0  0
 24 31  1  0  0  0  0
 26 33  1  0  0  0  0
 27 28  1  1  0  0  0
 27 34  1  0  0  0  0
 29  2  1  6  0  0  0
 29 36  1  0  0  0  0
 30 38  1  1  0  0  0
 31 32  1  6  0  0  0
 31 40  1  0  0  0  0
 33 42  2  0  0  0  0
 34 35  1  0  0  0  0
 34 43  1  6  0  0  0
 36 37  1  1  0  0  0
 36 45  1  0  0  0  0
 38 39  1  0  0  0  0
 40 41  1  0  0  0  0
 40 48  1  1  0  0  0
 43 44  1  0  0  0  0
 45 46  1  6  0  0  0
 47 50  1  0  0  0  0
 48 49  1  0  0  0  0
 50 51  1  0  0  0  0
 51 52  1  0  0  0  0
 52  8  1  0  0  0  0
M  END
>  <CHROM.1>
-177.63343752,-136.30626643,-171.72693849,-81.27571307,74.85787833,67.35260599
55.85658986,166.81929194,166.83806260,-164.97587576,67.21832458,172.12011238
147.03868724,-158.35343423,120.37184349,42.40671709,3.93236407,-4.23885069
-1.61310820,0.91878607,-0.51536705

>  <Name>
2be0_lig

>  <RI>
2.75444e+07

>  <Rbt.Current_Directory>
/home/itssahil/PROJECTS/Mol_Feturizer/New_Systems/rnas/2be0

>  <Rbt.Executable>
rbdock ($Id: //depot/dev/client3/rdock/2013.1/src/exe/rbdock.cxx#4 $)

>  <Rbt.Library>
libRbt.so (2013.1, Build901 2013/11/27)

>  <Rbt.Parameter_File>
/export/apps/rDock/src/rDock_2013.1_src/data/scripts/dock_solv.prm

>  <Rbt.Receptor>
prm/pocket_docking_5.prm

>  <SCORE>
-28.9228

>  <SCORE.INTER>
-13.1005

>  <SCORE.INTER.CONST>
1

>  <SCORE.INTER.POLAR>
-0.894427

>  <SCORE.INTER.ROT>
15

>  <SCORE.INTER.SOLV>
19.077

>  <SCORE.INTER.VDW>
-25.7113

>  <SCORE.INTER.norm>
-0.251933

>  <SCORE.INTRA>
-15.8222

>  <SCORE.INTRA.DIHEDRAL>
-33.4736

>  <SCORE.INTRA.DIHEDRAL.0>
47.8724

>  <SCORE.INTRA.POLAR>
0

>  <SCORE.INTRA.POLAR.0>
0

>  <SCORE.INTRA.REPUL>
0

>  <SCORE.INTRA.REPUL.0>
0

>  <SCORE.INTRA.SOLV>
-1.84785

>  <SCORE.INTRA.SOLV.lig_0>
-115.677

>  <SCORE.INTRA.VDW>
1.83846

>  <SCORE.INTRA.VDW.0>
-7.4833

>  <SCORE.INTRA.norm>
-0.304274

>  <SCORE.RESTR>
0

>  <SCORE.RESTR.CAVITY>
0

>  <SCORE.RESTR.norm>
0

>  <SCORE.SYSTEM>
0

>  <SCORE.SYSTEM.CONST>
0

>  <SCORE.SYSTEM.DIHEDRAL>
0

>  <SCORE.SYSTEM.SOLV>
0

>  <SCORE.SYSTEM.norm>
0

>  <SCORE.heavy>
52

>  <SCORE.norm>
-0.556207

>  <RMSD>
8.216

$$$$
2be0_lig
 OpenBabel11021811423D
libRbt.so/2013.1/901 2013/11/27
 52 56  0  0  0  0  0  0  0  0999 V2000
   40.2552    0.8216   -1.8872 C   0  0  2  0  0  0  0  0  0  0  0  0
   41.3404    0.1728   -2.5069 O   0  0  0  0  0  0  0  0  0  0  0  0
   42.9098   -0.5279   -6.5587 C   0  0  2  0  0  0  0  0  0  0  0  0
   42.9574   -0.5855   -8.0466 N   0  0  0  0  0  0  0  0  0  0  0  0
   43.4913    3.2214   -3.9216 C   0  0  2  0  0  0  0  0  0  0  0  0
   44.6831    2.6565   -3.3376 O   0  0  0  0  0  0  0  0  0  0  0  0
   42.4493    5.4466   -0.0524 C   0  0  1  0  0  0  0  0  0  0  0  0
   44.1324    8.3735   -8.8817 C   0  0  0  0  0  0  0  0  0  0  0  0
   38.9128    0.0053   -2.0807 C   0  0  2  0  0  0  0  0  0  0  0  0
   39.0974   -1.3700   -1.6124 N   0  0  0  0  0  0  0  0  0  0  0  0
   41.6681   -1.3878   -6.0419 C   0  0  0  0  0  0  0  0  0  0  0  0
   43.1165    4.4437   -3.0683 C   0  0  2  0  0  0  0  0  0  0  0  0
   43.9449    5.5443   -3.6511 O   0  0  0  0  0  0  0  0  0  0  0  0
   42.9674    6.7422    0.7809 C   0  0  2  0  0  0  0  0  0  0  0  0
   43.9192    6.2812    1.8427 N   0  0  0  0  0  0  0  0  0  0  0  0
   43.3226    7.9984  -10.0035 C   0  0  0  0  0  0  0  0  0  0  0  0
   43.1500    8.9063  -11.0810 N   0  0  0  0  0  0  0  0  0  0  0  0
   38.4669    0.0600   -3.6149 C   0  0  1  0  0  0  0  0  0  0  0  0
   37.2675   -0.6830   -3.7682 O   0  0  0  0  0  0  0  0  0  0  0  0
   41.5719   -1.3388   -4.4115 C   0  0  2  0  0  0  0  0  0  0  0  0
   40.4596   -2.1107   -3.9334 N   0  0  0  0  0  0  0  0  0  0  0  0
   43.4650    3.8769   -1.6790 C   0  0  2  0  0  0  0  0  0  0  0  0
   43.6092    4.8108   -0.6190 O   0  0  0  0  0  0  0  0  0  0  0  0
   41.7218    7.4340    1.4124 C   0  0  1  0  0  0  0  0  0  0  0  0
   40.8722    7.8565    0.2867 O   0  0  0  0  0  0  0  0  0  0  0  0
   43.7480   10.1984  -11.1096 C   0  0  0  0  0  0  0  0  0  0  0  0
   38.2815    1.5502   -4.0239 C   0  0  2  0  0  0  0  0  0  0  0  0
   37.8701    1.6659   -5.4439 O   0  0  0  0  0  0  0  0  0  0  0  0
   41.4235    0.1621   -3.9269 C   0  0  2  0  0  0  0  0  0  0  0  0
   44.7331    3.0313   -1.9456 C   0  0  1  0  0  0  0  0  0  0  0  0
   40.9370    6.3897    2.3817 C   0  0  2  0  0  0  0  0  0  0  0  0
   41.7803    5.9628    3.5090 O   0  0  0  0  0  0  0  0  0  0  0  0
   44.5598   10.6240  -10.0293 C   0  0  0  0  0  0  0  0  0  0  0  0
   39.6282    2.3464   -3.8238 C   0  0  2  0  0  0  0  0  0  0  0  0
   39.9790    2.1924   -2.4209 O   0  0  0  0  0  0  0  0  0  0  0  0
   42.6584    0.9628   -4.4684 C   0  0  2  0  0  0  0  0  0  0  0  0
   42.4289    2.2746   -3.9686 O   0  0  0  0  0  0  0  0  0  0  0  0
   44.7509    1.7361   -1.1356 C   0  0  0  0  0  0  0  0  0  0  0  0
   44.5774    1.8877    0.2530 O   0  0  0  0  0  0  0  0  0  0  0  0
   40.4891    5.1118    1.5337 C   0  0  1  0  0  0  0  0  0  0  0  0
   41.7215    4.4992    0.9007 O   0  0  0  0  0  0  0  0  0  0  0  0
   44.7706    9.7135   -8.8800 C   0  0  0  0  0  0  0  0  0  0  0  0
   39.3858    3.7472   -4.2047 C   0  0  0  0  0  0  0  0  0  0  0  0
   40.5298    4.4375   -4.1181 O   0  0  0  0  0  0  0  0  0  0  0  0
   42.7036    0.9198   -6.0538 C   0  0  1  0  0  0  0  0  0  0  0  0
   43.8083    1.6244   -6.5172 O   0  0  0  0  0  0  0  0  0  0  0  0
   43.7445    6.2657   -4.9301 C   0  0  0  0  0  0  0  0  0  0  0  0
   39.7583    4.1495    2.5091 C   0  0  0  0  0  0  0  0  0  0  0  0
   39.3571    2.9442    1.8272 N   0  0  0  0  0  0  0  0  0  0  0  0
   45.0274    7.0548   -5.2110 C   0  0  0  0  0  0  0  0  0  0  0  0
   44.7968    7.9890   -6.3603 N   0  0  0  0  0  0  0  0  0  0  0  0
   44.3114    7.3257   -7.6773 C   0  0  0  0  0  0  0  0  0  0  0  0
  1  2  1  6  0  0  0
  1  9  1  0  0  0  0
  1 35  1  0  0  0  0
  3  4  1  6  0  0  0
  3 11  1  0  0  0  0
  3 45  1  0  0  0  0
  5  6  1  0  0  0  0
  5 12  1  0  0  0  0
  5 37  1  1  0  0  0
  6 30  1  0  0  0  0
  7 14  1  0  0  0  0
  7 41  1  0  0  0  0
  7 23  1  1  0  0  0
  8 16  2  0  0  0  0
  8 42  1  0  0  0  0
  9 10  1  6  0  0  0
  9 18  1  0  0  0  0
 11 20  1  0  0  0  0
 12 13  1  6  0  0  0
 12 22  1  0  0  0  0
 13 47  1  0  0  0  0
 14 15  1  1  0  0  0
 14 24  1  0  0  0  0
 16 17  1  0  0  0  0
 17 26  2  0  0  0  0
 18 19  1  1  0  0  0
 18 27  1  0  0  0  0
 20 21  1  6  0  0  0
 20 29  1  0  0  0  0
 22 23  1  1  0  0  0
 22 30  1  0  0  0  0
 24 25  1  6  0  0  0
 24 31  1  0  0  0  0
 26 33  1  0  0  0  0
 27 28  1  6  0  0  0
 27 34  1  0  0  0  0
 29  2  1  1  0  0  0
 29 36  1  0  0  0  0
 30 38  1  1  0  0  0
 31 32  1  1  0  0  0
 31 40  1  0  0  0  0
 33 42  2  0  0  0  0
 34 35  1  0  0  0  0
 34 43  1  1  0  0  0
 36 37  1  6  0  0  0
 36 45  1  0  0  0  0
 38 39  1  0  0  0  0
 40 41  1  0  0  0  0
 40 48  1  1  0  0  0
 43 44  1  0  0  0  0
 45 46  1  1  0  0  0
 47 50  1  0  0  0  0
 48 49  1  0  0  0  0
 50 51  1  0  0  0  0
 51 52  1  0  0  0  0
 52  8  1  0  0  0  0
M  END
>  <CHROM.1>
71.88603544,-47.82954964,-163.15134439,74.51183608,-167.11447701,73.54550629
-126.15196523,-169.95569908,-176.56712254,162.63459604,-178.15161608,-170.12448688
-56.43250312,-178.01719173,-161.21283947,42.05099093,3.68245201,-3.38808655
2.62199540,1.18289207,1.20403187

>  <Name>
2be0_lig

>  <RI>
0

>  <Rbt.Current_Directory>
/home/itssahil/PROJECTS/Mol_Feturizer/New_Systems/rnas/2be0

>  <Rbt.Executable>
rbdock ($Id: //depot/dev/client3/rdock/2013.1/src/exe/rbdock.cxx#4 $)

>  <Rbt.Library>
libRbt.so (2013.1, Build901 2013/11/27)

>  <Rbt.Parameter_File>
/export/apps/rDock/src/rDock_2013.1_src/data/scripts/dock_solv.prm

>  <Rbt.Receptor>
prm/pocket_docking_4.prm

>  <SCORE>
-27.6625

>  <SCORE.INTER>
-14.2252

>  <SCORE.INTER.CONST>
1

>  <SCORE.INTER.POLAR>
-0.848097

>  <SCORE.INTER.ROT>
15

>  <SCORE.INTER.SOLV>
16.9479

>  <SCORE.INTER.VDW>
-25.9057

>  <SCORE.INTER.norm>
-0.273561

>  <SCORE.INTRA>
-13.4743

>  <SCORE.INTRA.DIHEDRAL>
-32.2521

>  <SCORE.INTRA.DIHEDRAL.0>
47.8724

>  <SCORE.INTRA.POLAR>
0

>  <SCORE.INTRA.POLAR.0>
0

>  <SCORE.INTRA.REPUL>
0.00758087

>  <SCORE.INTRA.REPUL.0>
0

>  <SCORE.INTRA.SOLV>
1.96605

>  <SCORE.INTRA.SOLV.lig_0>
-115.677

>  <SCORE.INTRA.VDW>
1.63083

>  <SCORE.INTRA.VDW.0>
-7.4833

>  <SCORE.INTRA.norm>
-0.259121

>  <SCORE.RESTR>
0.036907

>  <SCORE.RESTR.CAVITY>
0.036907

>  <SCORE.RESTR.norm>
0.000709751

>  <SCORE.SYSTEM>
0

>  <SCORE.SYSTEM.CONST>
0

>  <SCORE.SYSTEM.DIHEDRAL>
0

>  <SCORE.SYSTEM.SOLV>
0

>  <SCORE.SYSTEM.norm>
0

>  <SCORE.heavy>
52

>  <SCORE.norm>
-0.531972

>  <RMSD>
8.273

$$$$
2be0_lig
 OpenBabel11021811423D
libRbt.so/2013.1/901 2013/11/27
 52 56  0  0  0  0  0  0  0  0999 V2000
   40.8649    4.7480   -7.3383 C   0  0  2  0  0  0  0  0  0  0  0  0
   41.6976    3.6147   -7.2684 O   0  0  0  0  0  0  0  0  0  0  0  0
   40.0965    1.7675   -3.6084 C   0  0  2  0  0  0  0  0  0  0  0  0
   39.9045    0.7735   -2.5154 N   0  0  0  0  0  0  0  0  0  0  0  0
   43.7610    4.2095   -3.6616 C   0  0  2  0  0  0  0  0  0  0  0  0
   44.3753    5.5120   -3.7408 O   0  0  0  0  0  0  0  0  0  0  0  0
   48.2534    3.3484   -5.1489 C   0  0  1  0  0  0  0  0  0  0  0  0
   41.3642    6.2999    2.1465 C   0  0  0  0  0  0  0  0  0  0  0  0
   41.0970    5.5478   -8.6845 C   0  0  2  0  0  0  0  0  0  0  0  0
   40.9336    4.6491   -9.8292 N   0  0  0  0  0  0  0  0  0  0  0  0
   39.8575    1.0509   -5.0146 C   0  0  0  0  0  0  0  0  0  0  0  0
   44.8904    3.2028   -3.3904 C   0  0  2  0  0  0  0  0  0  0  0  0
   45.0427    3.2406   -1.9029 O   0  0  0  0  0  0  0  0  0  0  0  0
   48.9977    1.9058   -5.0694 C   0  0  2  0  0  0  0  0  0  0  0  0
   49.6864    1.7930   -3.7432 N   0  0  0  0  0  0  0  0  0  0  0  0
   40.1914    5.6369    1.6568 C   0  0  0  0  0  0  0  0  0  0  0  0
   38.9119    6.0314    2.1284 N   0  0  0  0  0  0  0  0  0  0  0  0
   42.5423    6.2306   -8.6616 C   0  0  1  0  0  0  0  0  0  0  0  0
   42.7334    6.9351   -9.8786 O   0  0  0  0  0  0  0  0  0  0  0  0
   40.0730    2.1062   -6.2434 C   0  0  2  0  0  0  0  0  0  0  0  0
   39.8585    1.4741   -7.5145 N   0  0  0  0  0  0  0  0  0  0  0  0
   45.9787    3.8225   -4.2872 C   0  0  2  0  0  0  0  0  0  0  0  0
   47.3171    3.4072   -4.0577 O   0  0  0  0  0  0  0  0  0  0  0  0
   50.0258    1.8330   -6.2385 C   0  0  1  0  0  0  0  0  0  0  0  0
   49.2426    1.9365   -7.4808 O   0  0  0  0  0  0  0  0  0  0  0  0
   38.7243    7.0710    3.0835 C   0  0  0  0  0  0  0  0  0  0  0  0
   42.6248    7.1742   -7.4267 C   0  0  2  0  0  0  0  0  0  0  0  0
   43.9495    7.8361   -7.3493 O   0  0  0  0  0  0  0  0  0  0  0  0
   41.5394    2.7029   -6.1881 C   0  0  2  0  0  0  0  0  0  0  0  0
   45.7574    5.3445   -4.1182 C   0  0  1  0  0  0  0  0  0  0  0  0
   51.0960    3.0517   -6.1149 C   0  0  2  0  0  0  0  0  0  0  0  0
   51.8822    2.9550   -4.8752 O   0  0  0  0  0  0  0  0  0  0  0  0
   39.8463    7.7629    3.6025 C   0  0  0  0  0  0  0  0  0  0  0  0
   42.3906    6.3599   -6.0964 C   0  0  2  0  0  0  0  0  0  0  0  0
   41.0848    5.7350   -6.2348 O   0  0  0  0  0  0  0  0  0  0  0  0
   41.7253    3.3836   -4.7877 C   0  0  2  0  0  0  0  0  0  0  0  0
   43.0535    3.8881   -4.8548 O   0  0  0  0  0  0  0  0  0  0  0  0
   45.9589    6.1113   -5.4242 C   0  0  0  0  0  0  0  0  0  0  0  0
   45.6730    7.4884   -5.3682 O   0  0  0  0  0  0  0  0  0  0  0  0
   50.3183    4.4471   -6.1485 C   0  0  1  0  0  0  0  0  0  0  0  0
   49.2992    4.4562   -5.0278 O   0  0  0  0  0  0  0  0  0  0  0  0
   41.2037    7.3883    3.1428 C   0  0  0  0  0  0  0  0  0  0  0  0
   42.4585    7.3050   -4.9702 C   0  0  0  0  0  0  0  0  0  0  0  0
   42.0515    6.6945   -3.8503 O   0  0  0  0  0  0  0  0  0  0  0  0
   41.5395    2.3251   -3.6203 C   0  0  1  0  0  0  0  0  0  0  0  0
   41.6970    2.9454   -2.3866 O   0  0  0  0  0  0  0  0  0  0  0  0
   43.9862    3.1366   -0.8687 C   0  0  0  0  0  0  0  0  0  0  0  0
   51.3850    5.5678   -6.0163 C   0  0  0  0  0  0  0  0  0  0  0  0
   50.7774    6.8668   -6.1657 N   0  0  0  0  0  0  0  0  0  0  0  0
   43.5450    4.5634   -0.5266 C   0  0  0  0  0  0  0  0  0  0  0  0
   42.7294    4.5453    0.7309 N   0  0  0  0  0  0  0  0  0  0  0  0
   42.7988    5.8336    1.5943 C   0  0  0  0  0  0  0  0  0  0  0  0
  1  2  1  1  0  0  0
  1  9  1  0  0  0  0
  1 35  1  0  0  0  0
  3  4  1  1  0  0  0
  3 11  1  0  0  0  0
  3 45  1  0  0  0  0
  5  6  1  0  0  0  0
  5 12  1  0  0  0  0
  5 37  1  6  0  0  0
  6 30  1  0  0  0  0
  7 14  1  0  0  0  0
  7 41  1  0  0  0  0
  7 23  1  1  0  0  0
  8 16  2  0  0  0  0
  8 42  1  0  0  0  0
  9 10  1  6  0  0  0
  9 18  1  0  0  0  0
 11 20  1  0  0  0  0
 12 13  1  1  0  0  0
 12 22  1  0  0  0  0
 13 47  1  0  0  0  0
 14 15  1  1  0  0  0
 14 24  1  0  0  0  0
 16 17  1  0  0  0  0
 17 26  2  0  0  0  0
 18 19  1  6  0  0  0
 18 27  1  0  0  0  0
 20 21  1  6  0  0  0
 20 29  1  0  0  0  0
 22 23  1  1  0  0  0
 22 30  1  0  0  0  0
 24 25  1  6  0  0  0
 24 31  1  0  0  0  0
 26 33  1  0  0  0  0
 27 28  1  1  0  0  0
 27 34  1  0  0  0  0
 29  2  1  6  0  0  0
 29 36  1  0  0  0  0
 30 38  1  6  0  0  0
 31 32  1  1  0  0  0
 31 40  1  0  0  0  0
 33 42  2  0  0  0  0
 34 35  1  0  0  0  0
 34 43  1  1  0  0  0
 36 37  1  6  0  0  0
 36 45  1  0  0  0  0
 38 39  1  0  0  0  0
 40 41  1  0  0  0  0
 40 48  1  1  0  0  0
 43 44  1  0  0  0  0
 45 46  1  1  0  0  0
 47 50  1  0  0  0  0
 48 49  1  0  0  0  0
 50 51  1  0  0  0  0
 51 52  1  0  0  0  0
 52  8  1  0  0  0  0
M  END
>  <CHROM.1>
-174.08502124,-131.75258418,-131.75784816,49.11821808,-92.52676442,148.46185076
61.01727593,59.03926075,170.02855900,-160.39139980,174.54112708,-166.43460989
150.52216269,136.45647893,-8.69822286,44.03123793,4.50827427,-4.20756786
2.53748171,-0.08386436,1.47705207

>  <Name>
2be0_lig

>  <RI>
2.10017e+07

>  <Rbt.Current_Directory>
/home/itssahil/PROJECTS/Mol_Feturizer/New_Systems/rnas/2be0

>  <Rbt.Executable>
rbdock ($Id: //depot/dev/client3/rdock/2013.1/src/exe/rbdock.cxx#4 $)

>  <Rbt.Library>
libRbt.so (2013.1, Build901 2013/11/27)

>  <Rbt.Parameter_File>
/export/apps/rDock/src/rDock_2013.1_src/data/scripts/dock_solv.prm

>  <Rbt.Receptor>
prm/pocket_docking_3.prm

>  <SCORE>
-8.15384

>  <SCORE.INTER>
-1.21893

>  <SCORE.INTER.CONST>
1

>  <SCORE.INTER.POLAR>
-0.106532

>  <SCORE.INTER.ROT>
15

>  <SCORE.INTER.SOLV>
22.3799

>  <SCORE.INTER.VDW>
-21.5175

>  <SCORE.INTER.norm>
-0.023441

>  <SCORE.INTRA>
-8.51948

>  <SCORE.INTRA.DIHEDRAL>
-20.5095

>  <SCORE.INTRA.DIHEDRAL.0>
47.8724

>  <SCORE.INTRA.POLAR>
0

>  <SCORE.INTRA.POLAR.0>
0

>  <SCORE.INTRA.REPUL>
0

>  <SCORE.INTRA.REPUL.0>
0

>  <SCORE.INTRA.SOLV>
-0.993006

>  <SCORE.INTRA.SOLV.lig_0>
-115.677

>  <SCORE.INTRA.VDW>
2.23176

>  <SCORE.INTRA.VDW.0>
-7.4833

>  <SCORE.INTRA.norm>
-0.163836

>  <SCORE.RESTR>
1.58457

>  <SCORE.RESTR.CAVITY>
1.58457

>  <SCORE.RESTR.norm>
0.0304725

>  <SCORE.SYSTEM>
0

>  <SCORE.SYSTEM.CONST>
0

>  <SCORE.SYSTEM.DIHEDRAL>
0

>  <SCORE.SYSTEM.SOLV>
0

>  <SCORE.SYSTEM.norm>
0

>  <SCORE.heavy>
52

>  <SCORE.norm>
-0.156805

>  <RMSD>
8.283

$$$$
2be0_lig
 OpenBabel11021811423D
libRbt.so/2013.1/901 2013/11/27
 52 56  0  0  0  0  0  0  0  0999 V2000
   41.5354    7.8305    1.5026 C   0  0  2  0  0  0  0  0  0  0  0  0
   40.4150    7.3905    0.7717 O   0  0  0  0  0  0  0  0  0  0  0  0
   41.2668    3.0746    0.6357 C   0  0  2  0  0  0  0  0  0  0  0  0
   41.1121    1.6311    0.3011 N   0  0  0  0  0  0  0  0  0  0  0  0
   40.9615    6.0405   -2.5726 C   0  0  2  0  0  0  0  0  0  0  0  0
   41.3609    4.8194   -3.2282 O   0  0  0  0  0  0  0  0  0  0  0  0
   44.0790    7.4670   -5.9452 C   0  0  1  0  0  0  0  0  0  0  0  0
   37.3771    1.7418   -6.5853 C   0  0  0  0  0  0  0  0  0  0  0  0
   41.2421    9.2065    2.2282 C   0  0  2  0  0  0  0  0  0  0  0  0
   40.0366    9.0857    3.0508 N   0  0  0  0  0  0  0  0  0  0  0  0
   39.9418    3.5873    1.3635 C   0  0  0  0  0  0  0  0  0  0  0  0
   41.1083    7.1674   -3.6075 C   0  0  2  0  0  0  0  0  0  0  0  0
   39.8140    7.1253   -4.3561 O   0  0  0  0  0  0  0  0  0  0  0  0
   44.0893    7.7656   -7.5427 C   0  0  2  0  0  0  0  0  0  0  0  0
   43.4882    6.5920   -8.2547 N   0  0  0  0  0  0  0  0  0  0  0  0
   37.0718    0.4736   -5.9909 C   0  0  0  0  0  0  0  0  0  0  0  0
   35.9918   -0.2976   -6.4950 N   0  0  0  0  0  0  0  0  0  0  0  0
   41.1098   10.3703    1.1401 C   0  0  1  0  0  0  0  0  0  0  0  0
   40.8398   11.5922    1.8097 O   0  0  0  0  0  0  0  0  0  0  0  0
   40.0654    5.1736    1.7354 C   0  0  2  0  0  0  0  0  0  0  0  0
   38.8801    5.6468    2.3930 N   0  0  0  0  0  0  0  0  0  0  0  0
   42.4039    6.6917   -4.2916 C   0  0  2  0  0  0  0  0  0  0  0  0
   42.7092    7.2561   -5.5584 O   0  0  0  0  0  0  0  0  0  0  0  0
   45.5697    7.9829   -7.9790 C   0  0  1  0  0  0  0  0  0  0  0  0
   46.0482    9.1601   -7.2357 O   0  0  0  0  0  0  0  0  0  0  0  0
   35.1754    0.1287   -7.5812 C   0  0  0  0  0  0  0  0  0  0  0  0
   42.4328   10.4373    0.3232 C   0  0  2  0  0  0  0  0  0  0  0  0
   42.3685   11.5002   -0.7089 O   0  0  0  0  0  0  0  0  0  0  0  0
   40.3136    6.0166    0.4174 C   0  0  2  0  0  0  0  0  0  0  0  0
   42.2530    5.1519   -4.3119 C   0  0  1  0  0  0  0  0  0  0  0  0
   46.4536    6.6643   -7.6241 C   0  0  2  0  0  0  0  0  0  0  0  0
   45.9807    5.4835   -8.3632 O   0  0  0  0  0  0  0  0  0  0  0  0
   35.4300    1.3728   -8.2092 C   0  0  0  0  0  0  0  0  0  0  0  0
   42.7077    9.0583   -0.3913 C   0  0  2  0  0  0  0  0  0  0  0  0
   42.7555    8.0622    0.6672 O   0  0  0  0  0  0  0  0  0  0  0  0
   41.6159    5.4677   -0.2622 C   0  0  2  0  0  0  0  0  0  0  0  0
   41.7459    6.2952   -1.4119 O   0  0  0  0  0  0  0  0  0  0  0  0
   43.5732    4.4332   -4.0389 C   0  0  0  0  0  0  0  0  0  0  0  0
   44.3147    4.9225   -2.9472 O   0  0  0  0  0  0  0  0  0  0  0  0
   46.3761    6.3798   -6.0537 C   0  0  1  0  0  0  0  0  0  0  0  0
   44.9204    6.2222   -5.6653 O   0  0  0  0  0  0  0  0  0  0  0  0
   36.5455    2.2156   -7.7197 C   0  0  0  0  0  0  0  0  0  0  0  0
   43.9769    9.1757   -1.1270 C   0  0  0  0  0  0  0  0  0  0  0  0
   43.7880    9.9144   -2.2276 O   0  0  0  0  0  0  0  0  0  0  0  0
   41.4498    3.9349   -0.6370 C   0  0  1  0  0  0  0  0  0  0  0  0
   42.6149    3.4611   -1.2284 O   0  0  0  0  0  0  0  0  0  0  0  0
   39.4544    6.2839   -5.5219 C   0  0  0  0  0  0  0  0  0  0  0  0
   47.2253    5.1094   -5.7772 C   0  0  0  0  0  0  0  0  0  0  0  0
   48.6125    5.3487   -6.0889 N   0  0  0  0  0  0  0  0  0  0  0  0
   38.9695    4.9369   -4.9762 C   0  0  0  0  0  0  0  0  0  0  0  0
   38.3873    4.1261   -6.0943 N   0  0  0  0  0  0  0  0  0  0  0  0
   38.6055    2.5922   -5.9953 C   0  0  0  0  0  0  0  0  0  0  0  0
  1  2  1  6  0  0  0
  1  9  1  0  0  0  0
  1 35  1  0  0  0  0
  3  4  1  6  0  0  0
  3 11  1  0  0  0  0
  3 45  1  0  0  0  0
  5  6  1  0  0  0  0
  5 12  1  0  0  0  0
  5 37  1  1  0  0  0
  6 30  1  0  0  0  0
  7 14  1  0  0  0  0
  7 41  1  0  0  0  0
  7 23  1  6  0  0  0
  8 16  2  0  0  0  0
  8 42  1  0  0  0  0
  9 10  1  6  0  0  0
  9 18  1  0  0  0  0
 11 20  1  0  0  0  0
 12 13  1  6  0  0  0
 12 22  1  0  0  0  0
 13 47  1  0  0  0  0
 14 15  1  6  0  0  0
 14 24  1  0  0  0  0
 16 17  1  0  0  0  0
 17 26  2  0  0  0  0
 18 19  1  1  0  0  0
 18 27  1  0  0  0  0
 20 21  1  6  0  0  0
 20 29  1  0  0  0  0
 22 23  1  6  0  0  0
 22 30  1  0  0  0  0
 24 25  1  1  0  0  0
 24 31  1  0  0  0  0
 26 33  1  0  0  0  0
 27 28  1  6  0  0  0
 27 34  1  0  0  0  0
 29  2  1  1  0  0  0
 29 36  1  0  0  0  0
 30 38  1  1  0  0  0
 31 32  1  6  0  0  0
 31 40  1  0  0  0  0
 33 42  2  0  0  0  0
 34 35  1  0  0  0  0
 34 43  1  1  0  0  0
 36 37  1  6  0  0  0
 36 45  1  0  0  0  0
 38 39  1  0  0  0  0
 40 41  1  0  0  0  0
 40 48  1  6  0  0  0
 43 44  1  0  0  0  0
 45 46  1  1  0  0  0
 47 50  1  0  0  0  0
 48 49  1  0  0  0  0
 50 51  1  0  0  0  0
 51 52  1  0  0  0  0
 52  8  1  0  0  0  0
M  END
>  <CHROM.1>
-159.84465713,-69.10123767,166.28648706,-85.89772242,85.18416822,147.07858861
69.04804389,-69.50369761,-74.68702290,-79.47498411,63.99927157,171.01778285
145.76661537,146.02123234,-147.73234586,41.73048404,6.01411532,-3.17552575
1.23425307,0.61686882,1.10459288

>  <Name>
2be0_lig

>  <RI>
2.75444e+07

>  <Rbt.Current_Directory>
/home/itssahil/PROJECTS/Mol_Feturizer/New_Systems/rnas/2be0

>  <Rbt.Executable>
rbdock ($Id: //depot/dev/client3/rdock/2013.1/src/exe/rbdock.cxx#4 $)

>  <Rbt.Library>
libRbt.so (2013.1, Build901 2013/11/27)

>  <Rbt.Parameter_File>
/export/apps/rDock/src/rDock_2013.1_src/data/scripts/dock_solv.prm

>  <Rbt.Receptor>
prm/pocket_docking_5.prm

>  <SCORE>
-35.3305

>  <SCORE.INTER>
-22.903

>  <SCORE.INTER.CONST>
1

>  <SCORE.INTER.POLAR>
-2.76594

>  <SCORE.INTER.ROT>
15

>  <SCORE.INTER.SOLV>
16.8436

>  <SCORE.INTER.VDW>
-25.2634

>  <SCORE.INTER.norm>
-0.440442

>  <SCORE.INTRA>
-12.4275

>  <SCORE.INTRA.DIHEDRAL>
-29.2178

>  <SCORE.INTRA.DIHEDRAL.0>
47.8724

>  <SCORE.INTRA.POLAR>
0

>  <SCORE.INTRA.POLAR.0>
0

>  <SCORE.INTRA.REPUL>
0

>  <SCORE.INTRA.REPUL.0>
0

>  <SCORE.INTRA.SOLV>
0.180538

>  <SCORE.INTRA.SOLV.lig_0>
-115.677

>  <SCORE.INTRA.VDW>
2.09111

>  <SCORE.INTRA.VDW.0>
-7.4833

>  <SCORE.INTRA.norm>
-0.238991

>  <SCORE.RESTR>
0

>  <SCORE.RESTR.CAVITY>
0

>  <SCORE.RESTR.norm>
0

>  <SCORE.SYSTEM>
0

>  <SCORE.SYSTEM.CONST>
0

>  <SCORE.SYSTEM.DIHEDRAL>
0

>  <SCORE.SYSTEM.SOLV>
0

>  <SCORE.SYSTEM.norm>
0

>  <SCORE.heavy>
52

>  <SCORE.norm>
-0.679433

>  <RMSD>
8.286

$$$$
2be0_lig
 OpenBabel11021811423D
libRbt.so/2013.1/901 2013/11/27
 52 56  0  0  0  0  0  0  0  0999 V2000
   46.5051    5.4472   -8.0461 C   0  0  2  0  0  0  0  0  0  0  0  0
   45.7324    4.2861   -8.2395 O   0  0  0  0  0  0  0  0  0  0  0  0
   41.7598    5.8679   -7.1967 C   0  0  2  0  0  0  0  0  0  0  0  0
   40.2773    5.9465   -7.0721 N   0  0  0  0  0  0  0  0  0  0  0  0
   44.1924    3.2253   -4.5283 C   0  0  2  0  0  0  0  0  0  0  0  0
   45.1897    2.3770   -3.9233 O   0  0  0  0  0  0  0  0  0  0  0  0
   41.1219   -0.1189   -4.7309 C   0  0  1  0  0  0  0  0  0  0  0  0
   41.2333    8.1365   -0.2941 C   0  0  0  0  0  0  0  0  0  0  0  0
   48.0501    5.1401   -8.2021 C   0  0  2  0  0  0  0  0  0  0  0  0
   48.2997    4.4982   -9.4944 N   0  0  0  0  0  0  0  0  0  0  0  0
   42.1456    5.6751   -8.7336 C   0  0  0  0  0  0  0  0  0  0  0  0
   42.8379    2.5256   -4.3325 C   0  0  2  0  0  0  0  0  0  0  0  0
   42.4107    2.9666   -2.9685 O   0  0  0  0  0  0  0  0  0  0  0  0
   40.4520   -1.4571   -4.0970 C   0  0  2  0  0  0  0  0  0  0  0  0
   41.3511   -2.6230   -4.3766 N   0  0  0  0  0  0  0  0  0  0  0  0
   41.6413    8.1481    1.0800 C   0  0  0  0  0  0  0  0  0  0  0  0
   41.7305    9.3817    1.7767 N   0  0  0  0  0  0  0  0  0  0  0  0
   48.5445    4.2361   -6.9797 C   0  0  1  0  0  0  0  0  0  0  0  0
   49.9282    3.9662   -7.1423 O   0  0  0  0  0  0  0  0  0  0  0  0
   43.7663    5.5697   -8.9122 C   0  0  2  0  0  0  0  0  0  0  0  0
   44.1268    5.3983  -10.2914 N   0  0  0  0  0  0  0  0  0  0  0  0
   43.2893    1.0706   -4.5601 C   0  0  2  0  0  0  0  0  0  0  0  0
   42.4121    0.0461   -4.1155 O   0  0  0  0  0  0  0  0  0  0  0  0
   39.0580   -1.6565   -4.7649 C   0  0  1  0  0  0  0  0  0  0  0  0
   38.2609   -0.4699   -4.4130 O   0  0  0  0  0  0  0  0  0  0  0  0
   41.4326   10.6365    1.1727 C   0  0  0  0  0  0  0  0  0  0  0  0
   48.2543    4.9958   -5.6527 C   0  0  2  0  0  0  0  0  0  0  0  0
   48.6893    4.2020   -4.4781 O   0  0  0  0  0  0  0  0  0  0  0  0
   44.3225    4.3535   -8.0632 C   0  0  2  0  0  0  0  0  0  0  0  0
   44.6900    1.0240   -3.9045 C   0  0  1  0  0  0  0  0  0  0  0  0
   39.2279   -1.7938   -6.3767 C   0  0  2  0  0  0  0  0  0  0  0  0
   40.0241   -2.9777   -6.7359 O   0  0  0  0  0  0  0  0  0  0  0  0
   41.0232   10.6875   -0.1826 C   0  0  0  0  0  0  0  0  0  0  0  0
   46.7114    5.2929   -5.5158 C   0  0  2  0  0  0  0  0  0  0  0  0
   46.3472    6.0660   -6.6924 O   0  0  0  0  0  0  0  0  0  0  0  0
   43.9085    4.5858   -6.5686 C   0  0  2  0  0  0  0  0  0  0  0  0
   44.4640    3.4557   -5.9070 O   0  0  0  0  0  0  0  0  0  0  0  0
   45.6780    0.1728   -4.7003 C   0  0  0  0  0  0  0  0  0  0  0  0
   47.0388    0.4431   -4.4628 O   0  0  0  0  0  0  0  0  0  0  0  0
   39.9330   -0.4798   -6.9504 C   0  0  1  0  0  0  0  0  0  0  0  0
   41.2598   -0.2984   -6.2423 O   0  0  0  0  0  0  0  0  0  0  0  0
   40.9151    9.4274   -0.9538 C   0  0  0  0  0  0  0  0  0  0  0  0
   46.5026    6.0283   -4.2582 C   0  0  0  0  0  0  0  0  0  0  0  0
   45.1898    6.1711   -4.0375 O   0  0  0  0  0  0  0  0  0  0  0  0
   42.3295    4.6524   -6.4277 C   0  0  1  0  0  0  0  0  0  0  0  0
   41.9793    4.8687   -5.1002 O   0  0  0  0  0  0  0  0  0  0  0  0
   42.3210    4.3466   -2.4358 C   0  0  0  0  0  0  0  0  0  0  0  0
   40.0782   -0.6721   -8.4846 C   0  0  0  0  0  0  0  0  0  0  0  0
   40.5348    0.5454   -9.1075 N   0  0  0  0  0  0  0  0  0  0  0  0
   41.8415    4.2418   -0.9844 C   0  0  0  0  0  0  0  0  0  0  0  0
   41.9157    5.5911   -0.3358 N   0  0  0  0  0  0  0  0  0  0  0  0
   41.1398    6.7259   -1.0570 C   0  0  0  0  0  0  0  0  0  0  0  0
  1  2  1  1  0  0  0
  1  9  1  0  0  0  0
  1 35  1  0  0  0  0
  3  4  1  6  0  0  0
  3 11  1  0  0  0  0
  3 45  1  0  0  0  0
  5  6  1  0  0  0  0
  5 12  1  0  0  0  0
  5 37  1  6  0  0  0
  6 30  1  0  0  0  0
  7 14  1  0  0  0  0
  7 41  1  0  0  0  0
  7 23  1  1  0  0  0
  8 16  2  0  0  0  0
  8 42  1  0  0  0  0
  9 10  1  6  0  0  0
  9 18  1  0  0  0  0
 11 20  1  0  0  0  0
 12 13  1  1  0  0  0
 12 22  1  0  0  0  0
 13 47  1  0  0  0  0
 14 15  1  6  0  0  0
 14 24  1  0  0  0  0
 16 17  1  0  0  0  0
 17 26  2  0  0  0  0
 18 19  1  6  0  0  0
 18 27  1  0  0  0  0
 20 21  1  6  0  0  0
 20 29  1  0  0  0  0
 22 23  1  1  0  0  0
 22 30  1  0  0  0  0
 24 25  1  6  0  0  0
 24 31  1  0  0  0  0
 26 33  1  0  0  0  0
 27 28  1  1  0  0  0
 27 34  1  0  0  0  0
 29  2  1  1  0  0  0
 29 36  1  0  0  0  0
 30 38  1  6  0  0  0
 31 32  1  1  0  0  0
 31 40  1  0  0  0  0
 33 42  2  0  0  0  0
 34 35  1  0  0  0  0
 34 43  1  1  0  0  0
 36 37  1  1  0  0  0
 36 45  1  0  0  0  0
 38 39  1  0  0  0  0
 40 41  1  0  0  0  0
 40 48  1  6  0  0  0
 43 44  1  0  0  0  0
 45 46  1  1  0  0  0
 47 50  1  0  0  0  0
 48 49  1  0  0  0  0
 50 51  1  0  0  0  0
 51 52  1  0  0  0  0
 52  8  1  0  0  0  0
M  END
>  <CHROM.1>
176.48396804,-158.40319274,174.29350516,52.03306001,-179.56457549,65.48779038
50.90611437,42.31746342,-173.36568503,-173.82134802,171.95127886,172.14303383
55.83676385,178.72756361,-17.65760213,43.35179669,3.58563280,-5.00615199
-1.38112810,-0.60798953,-2.51512127

>  <Name>
2be0_lig

>  <RI>
2.10017e+07

>  <Rbt.Current_Directory>
/home/itssahil/PROJECTS/Mol_Feturizer/New_Systems/rnas/2be0

>  <Rbt.Executable>
rbdock ($Id: //depot/dev/client3/rdock/2013.1/src/exe/rbdock.cxx#4 $)

>  <Rbt.Library>
libRbt.so (2013.1, Build901 2013/11/27)

>  <Rbt.Parameter_File>
/export/apps/rDock/src/rDock_2013.1_src/data/scripts/dock_solv.prm

>  <Rbt.Receptor>
prm/pocket_docking_3.prm

>  <SCORE>
-5.74903

>  <SCORE.INTER>
10.4647

>  <SCORE.INTER.CONST>
1

>  <SCORE.INTER.POLAR>
0

>  <SCORE.INTER.ROT>
15

>  <SCORE.INTER.SOLV>
12.2471

>  <SCORE.INTER.VDW>
-10.7059

>  <SCORE.INTER.norm>
0.201244

>  <SCORE.INTRA>
-17.4519

>  <SCORE.INTRA.DIHEDRAL>
-41.725

>  <SCORE.INTRA.DIHEDRAL.0>
47.8724

>  <SCORE.INTRA.POLAR>
0

>  <SCORE.INTRA.POLAR.0>
0

>  <SCORE.INTRA.REPUL>
0

>  <SCORE.INTRA.REPUL.0>
0

>  <SCORE.INTRA.SOLV>
-2.86751

>  <SCORE.INTRA.SOLV.lig_0>
-115.677

>  <SCORE.INTRA.VDW>
4.84437

>  <SCORE.INTRA.VDW.0>
-7.4833

>  <SCORE.INTRA.norm>
-0.335613

>  <SCORE.RESTR>
1.23817

>  <SCORE.RESTR.CAVITY>
1.23817

>  <SCORE.RESTR.norm>
0.0238109

>  <SCORE.SYSTEM>
0

>  <SCORE.SYSTEM.CONST>
0

>  <SCORE.SYSTEM.DIHEDRAL>
0

>  <SCORE.SYSTEM.SOLV>
0

>  <SCORE.SYSTEM.norm>
0

>  <SCORE.heavy>
52

>  <SCORE.norm>
-0.110558

>  <RMSD>
8.308

$$$$
2be0_lig
 OpenBabel11021811423D
libRbt.so/2013.1/901 2013/11/27
 52 56  0  0  0  0  0  0  0  0999 V2000
   46.1109    8.9562   -9.3838 C   0  0  2  0  0  0  0  0  0  0  0  0
   44.8888    8.6641   -8.7483 O   0  0  0  0  0  0  0  0  0  0  0  0
   41.4311    6.0041   -9.3309 C   0  0  2  0  0  0  0  0  0  0  0  0
   40.5915    4.9086   -9.8917 N   0  0  0  0  0  0  0  0  0  0  0  0
   45.2031    6.5607   -6.2117 C   0  0  2  0  0  0  0  0  0  0  0  0
   46.4059    7.3567   -6.2206 O   0  0  0  0  0  0  0  0  0  0  0  0
   49.0422    3.8410   -5.2758 C   0  0  1  0  0  0  0  0  0  0  0  0
   42.3012    7.3242    0.7334 C   0  0  0  0  0  0  0  0  0  0  0  0
   46.9209   10.0599   -8.5891 C   0  0  2  0  0  0  0  0  0  0  0  0
   47.0886    9.6437   -7.1951 N   0  0  0  0  0  0  0  0  0  0  0  0
   41.8737    6.9810  -10.5132 C   0  0  0  0  0  0  0  0  0  0  0  0
   45.4852    5.3417   -5.3190 C   0  0  2  0  0  0  0  0  0  0  0  0
   45.1859    5.8408   -3.9411 O   0  0  0  0  0  0  0  0  0  0  0  0
   50.0919    4.8275   -4.5232 C   0  0  2  0  0  0  0  0  0  0  0  0
   49.8019    6.2397   -4.9325 N   0  0  0  0  0  0  0  0  0  0  0  0
   43.2973    6.5507    1.4149 C   0  0  0  0  0  0  0  0  0  0  0  0
   43.0787    6.1503    2.7591 N   0  0  0  0  0  0  0  0  0  0  0  0
   46.1703   11.4665   -8.7072 C   0  0  1  0  0  0  0  0  0  0  0  0
   46.9074   12.4391   -7.9828 O   0  0  0  0  0  0  0  0  0  0  0  0
   42.8103    8.1913   -9.9407 C   0  0  2  0  0  0  0  0  0  0  0  0
   43.2136    9.0790  -10.9947 N   0  0  0  0  0  0  0  0  0  0  0  0
   46.9439    5.0762   -5.7369 C   0  0  2  0  0  0  0  0  0  0  0  0
   47.7183    4.2461   -4.8838 O   0  0  0  0  0  0  0  0  0  0  0  0
   51.5314    4.4089   -4.9495 C   0  0  1  0  0  0  0  0  0  0  0  0
   51.7100    3.0230   -4.4861 O   0  0  0  0  0  0  0  0  0  0  0  0
   41.8998    6.4830    3.4853 C   0  0  0  0  0  0  0  0  0  0  0  0
   46.0467   11.8369  -10.2138 C   0  0  2  0  0  0  0  0  0  0  0  0
   45.3523   13.1356  -10.3880 O   0  0  0  0  0  0  0  0  0  0  0  0
   44.0937    7.5892   -9.2339 C   0  0  2  0  0  0  0  0  0  0  0  0
   47.5261    6.4973   -5.9253 C   0  0  1  0  0  0  0  0  0  0  0  0
   51.6855    4.5130   -6.5654 C   0  0  2  0  0  0  0  0  0  0  0  0
   51.5078    5.8955   -7.0359 O   0  0  0  0  0  0  0  0  0  0  0  0
   40.8798    7.2447    2.8637 C   0  0  0  0  0  0  0  0  0  0  0  0
   45.2378   10.7261  -10.9881 C   0  0  2  0  0  0  0  0  0  0  0  0
   45.9629    9.4833  -10.7768 O   0  0  0  0  0  0  0  0  0  0  0  0
   43.6049    6.6321   -8.0919 C   0  0  2  0  0  0  0  0  0  0  0  0
   44.8239    6.1659   -7.5262 O   0  0  0  0  0  0  0  0  0  0  0  0
   48.4797    6.5833   -7.1159 C   0  0  0  0  0  0  0  0  0  0  0  0
   47.9357    6.2011   -8.3565 O   0  0  0  0  0  0  0  0  0  0  0  0
   50.6047    3.5662   -7.2642 C   0  0  1  0  0  0  0  0  0  0  0  0
   49.2267    3.9763   -6.7869 O   0  0  0  0  0  0  0  0  0  0  0  0
   41.0601    7.6879    1.4617 C   0  0  0  0  0  0  0  0  0  0  0  0
   45.1729   11.1193  -12.4048 C   0  0  0  0  0  0  0  0  0  0  0  0
   44.7646   10.0767  -13.1390 O   0  0  0  0  0  0  0  0  0  0  0  0
   42.7250    5.4531   -8.6861 C   0  0  1  0  0  0  0  0  0  0  0  0
   42.2913    4.6204   -7.6614 O   0  0  0  0  0  0  0  0  0  0  0  0
   44.5880    5.0994   -2.8056 C   0  0  0  0  0  0  0  0  0  0  0  0
   50.7913    3.7148   -8.7987 C   0  0  0  0  0  0  0  0  0  0  0  0
   49.5126    3.7601   -9.4633 N   0  0  0  0  0  0  0  0  0  0  0  0
   44.3481    6.1108   -1.6801 C   0  0  0  0  0  0  0  0  0  0  0  0
   42.9199    6.5646   -1.7133 N   0  0  0  0  0  0  0  0  0  0  0  0
   42.5746    7.7621   -0.7877 C   0  0  0  0  0  0  0  0  0  0  0  0
  1  2  1  1  0  0  0
  1  9  1  0  0  0  0
  1 35  1  0  0  0  0
  3  4  1  6  0  0  0
  3 11  1  0  0  0  0
  3 45  1  0  0  0  0
  5  6  1  0  0  0  0
  5 12  1  0  0  0  0
  5 37  1  6  0  0  0
  6 30  1  0  0  0  0
  7 14  1  0  0  0  0
  7 41  1  0  0  0  0
  7 23  1  6  0  0  0
  8 16  2  0  0  0  0
  8 42  1  0  0  0  0
  9 10  1  1  0  0  0
  9 18  1  0  0  0  0
 11 20  1  0  0  0  0
 12 13  1  1  0  0  0
 12 22  1  0  0  0  0
 13 47  1  0  0  0  0
 14 15  1  6  0  0  0
 14 24  1  0  0  0  0
 16 17  1  0  0  0  0
 17 26  2  0  0  0  0
 18 19  1  1  0  0  0
 18 27  1  0  0  0  0
 20 21  1  6  0  0  0
 20 29  1  0  0  0  0
 22 23  1  1  0  0  0
 22 30  1  0  0  0  0
 24 25  1  6  0  0  0
 24 31  1  0  0  0  0
 26 33  1  0  0  0  0
 27 28  1  1  0  0  0
 27 34  1  0  0  0  0
 29  2  1  1  0  0  0
 29 36  1  0  0  0  0
 30 38  1  6  0  0  0
 31 32  1  6  0  0  0
 31 40  1  0  0  0  0
 33 42  2  0  0  0  0
 34 35  1  0  0  0  0
 34 43  1  6  0  0  0
 36 37  1  6  0  0  0
 36 45  1  0  0  0  0
 38 39  1  0  0  0  0
 40 41  1  0  0  0  0
 40 48  1  6  0  0  0
 43 44  1  0  0  0  0
 45 46  1  1  0  0  0
 47 50  1  0  0  0  0
 48 49  1  0  0  0  0
 50 51  1  0  0  0  0
 51 52  1  0  0  0  0
 52  8  1  0  0  0  0
M  END
>  <CHROM.1>
-172.98882875,-115.46194179,98.79641779,144.70279490,-173.57248489,173.60140833
-108.87961574,-59.02898092,166.27200802,111.44519906,-139.41384032,97.49589820
-170.31053498,-82.31726924,53.94922403,45.84679953,6.96517563,-6.40159118
1.33041976,0.46915582,-1.20451043

>  <Name>
2be0_lig

>  <RI>
224

>  <Rbt.Current_Directory>
/home/itssahil/PROJECTS/Mol_Feturizer/New_Systems/rnas/2be0

>  <Rbt.Executable>
rbdock ($Id: //depot/dev/client3/rdock/2013.1/src/exe/rbdock.cxx#4 $)

>  <Rbt.Library>
libRbt.so (2013.1, Build901 2013/11/27)

>  <Rbt.Parameter_File>
/export/apps/rDock/src/rDock_2013.1_src/data/scripts/dock_solv.prm

>  <Rbt.Receptor>
prm/blind_docking_100.prm

>  <SCORE>
29.1933

>  <SCORE.INTER>
10.8145

>  <SCORE.INTER.CONST>
1

>  <SCORE.INTER.POLAR>
-0.157126

>  <SCORE.INTER.ROT>
15

>  <SCORE.INTER.SOLV>
38.4102

>  <SCORE.INTER.VDW>
-18.67

>  <SCORE.INTER.norm>
0.207971

>  <SCORE.INTRA>
7.65906

>  <SCORE.INTRA.DIHEDRAL>
-7.28047

>  <SCORE.INTRA.DIHEDRAL.0>
47.8724

>  <SCORE.INTRA.POLAR>
0

>  <SCORE.INTRA.POLAR.0>
0

>  <SCORE.INTRA.REPUL>
0.185493

>  <SCORE.INTRA.REPUL.0>
0

>  <SCORE.INTRA.SOLV>
10.0937

>  <SCORE.INTRA.SOLV.lig_0>
-115.677

>  <SCORE.INTRA.VDW>
5.32499

>  <SCORE.INTRA.VDW.0>
-7.4833

>  <SCORE.INTRA.norm>
0.14729

>  <SCORE.RESTR>
10.7197

>  <SCORE.RESTR.CAVITY>
10.7197

>  <SCORE.RESTR.norm>
0.206148

>  <SCORE.SYSTEM>
0

>  <SCORE.SYSTEM.CONST>
0

>  <SCORE.SYSTEM.DIHEDRAL>
0

>  <SCORE.SYSTEM.SOLV>
0

>  <SCORE.SYSTEM.norm>
0

>  <SCORE.heavy>
52

>  <SCORE.norm>
0.561409

>  <RMSD>
8.311

$$$$
2be0_lig
 OpenBabel11021811423D
libRbt.so/2013.1/901 2013/11/27
 52 56  0  0  0  0  0  0  0  0999 V2000
   45.2412    5.2328   -4.7445 C   0  0  2  0  0  0  0  0  0  0  0  0
   43.8625    5.1401   -4.4737 O   0  0  0  0  0  0  0  0  0  0  0  0
   43.3789    8.6297   -1.8355 C   0  0  2  0  0  0  0  0  0  0  0  0
   42.7277    9.6070   -0.9189 N   0  0  0  0  0  0  0  0  0  0  0  0
   42.8415    4.2118   -1.3963 C   0  0  2  0  0  0  0  0  0  0  0  0
   42.9368    3.4464   -0.1775 O   0  0  0  0  0  0  0  0  0  0  0  0
   42.9511    0.5239   -4.0285 C   0  0  1  0  0  0  0  0  0  0  0  0
   40.1547    6.5692    1.3092 C   0  0  0  0  0  0  0  0  0  0  0  0
   45.5364    5.0409   -6.2878 C   0  0  2  0  0  0  0  0  0  0  0  0
   44.7376    5.9894   -7.0667 N   0  0  0  0  0  0  0  0  0  0  0  0
   42.5505    8.5593   -3.1983 C   0  0  0  0  0  0  0  0  0  0  0  0
   42.4131    3.2332   -2.5015 C   0  0  2  0  0  0  0  0  0  0  0  0
   40.9223    3.2033   -2.3832 O   0  0  0  0  0  0  0  0  0  0  0  0
   41.7082    1.3115   -4.7186 C   0  0  2  0  0  0  0  0  0  0  0  0
   40.4276    0.7816   -4.1485 N   0  0  0  0  0  0  0  0  0  0  0  0
   39.2750    5.8337    2.1694 C   0  0  0  0  0  0  0  0  0  0  0  0
   39.6257    5.6356    3.5306 N   0  0  0  0  0  0  0  0  0  0  0  0
   45.2431    3.5262   -6.7067 C   0  0  1  0  0  0  0  0  0  0  0  0
   45.5063    3.3773   -8.0933 O   0  0  0  0  0  0  0  0  0  0  0  0
   43.2255    7.4852   -4.2282 C   0  0  2  0  0  0  0  0  0  0  0  0
   42.4906    7.4141   -5.4596 N   0  0  0  0  0  0  0  0  0  0  0  0
   43.2402    2.0089   -2.0658 C   0  0  2  0  0  0  0  0  0  0  0  0
   42.8671    0.7516   -2.6102 O   0  0  0  0  0  0  0  0  0  0  0  0
   41.7783    1.0624   -6.2555 C   0  0  1  0  0  0  0  0  0  0  0  0
   43.0586    1.6331   -6.7058 O   0  0  0  0  0  0  0  0  0  0  0  0
   40.8305    6.1362    4.1016 C   0  0  0  0  0  0  0  0  0  0  0  0
   46.1389    2.5912   -5.8433 C   0  0  2  0  0  0  0  0  0  0  0  0
   45.9075    1.1668   -6.1852 O   0  0  0  0  0  0  0  0  0  0  0  0
   43.2729    6.0521   -3.5549 C   0  0  2  0  0  0  0  0  0  0  0  0
   43.1769    2.0662   -0.5209 C   0  0  1  0  0  0  0  0  0  0  0  0
   41.7047   -0.5329   -6.5645 C   0  0  2  0  0  0  0  0  0  0  0  0
   40.4278   -1.1102   -6.1167 O   0  0  0  0  0  0  0  0  0  0  0  0
   41.7385    6.8715    3.3004 C   0  0  0  0  0  0  0  0  0  0  0  0
   45.8308    2.7971   -4.3103 C   0  0  2  0  0  0  0  0  0  0  0  0
   46.0712    4.2057   -4.0399 O   0  0  0  0  0  0  0  0  0  0  0  0
   44.0856    6.1786   -2.2198 C   0  0  2  0  0  0  0  0  0  0  0  0
   44.0745    4.8487   -1.7152 O   0  0  0  0  0  0  0  0  0  0  0  0
   44.4998    1.6682    0.1318 C   0  0  0  0  0  0  0  0  0  0  0  0
   45.1550    0.5668   -0.4502 O   0  0  0  0  0  0  0  0  0  0  0  0
   42.9146   -1.2729   -5.8287 C   0  0  1  0  0  0  0  0  0  0  0  0
   42.8355   -0.9663   -4.3473 O   0  0  0  0  0  0  0  0  0  0  0  0
   41.4188    7.1050    1.8730 C   0  0  0  0  0  0  0  0  0  0  0  0
   46.7194    1.9061   -3.5470 C   0  0  0  0  0  0  0  0  0  0  0  0
   46.4847    2.0568   -2.2375 O   0  0  0  0  0  0  0  0  0  0  0  0
   43.3864    7.2051   -1.2324 C   0  0  1  0  0  0  0  0  0  0  0  0
   44.1235    7.3137   -0.0593 O   0  0  0  0  0  0  0  0  0  0  0  0
   39.9307    4.0821   -3.0470 C   0  0  0  0  0  0  0  0  0  0  0  0
   42.7866   -2.7870   -6.1490 C   0  0  0  0  0  0  0  0  0  0  0  0
   41.5708   -3.3230   -5.5893 N   0  0  0  0  0  0  0  0  0  0  0  0
   40.0757    5.4766   -2.4292 C   0  0  0  0  0  0  0  0  0  0  0  0
   39.5981    5.4451   -1.0088 N   0  0  0  0  0  0  0  0  0  0  0  0
   39.7316    6.7792   -0.2261 C   0  0  0  0  0  0  0  0  0  0  0  0
  1  2  1  6  0  0  0
  1  9  1  0  0  0  0
  1 35  1  0  0  0  0
  3  4  1  1  0  0  0
  3 11  1  0  0  0  0
  3 45  1  0  0  0  0
  5  6  1  0  0  0  0
  5 12  1  0  0  0  0
  5 37  1  6  0  0  0
  6 30  1  0  0  0  0
  7 14  1  0  0  0  0
  7 41  1  0  0  0  0
  7 23  1  1  0  0  0
  8 16  2  0  0  0  0
  8 42  1  0  0  0  0
  9 10  1  6  0  0  0
  9 18  1  0  0  0  0
 11 20  1  0  0  0  0
 12 13  1  1  0  0  0
 12 22  1  0  0  0  0
 13 47  1  0  0  0  0
 14 15  1  1  0  0  0
 14 24  1  0  0  0  0
 16 17  1  0  0  0  0
 17 26  2  0  0  0  0
 18 19  1  6  0  0  0
 18 27  1  0  0  0  0
 20 21  1  6  0  0  0
 20 29  1  0  0  0  0
 22 23  1  6  0  0  0
 22 30  1  0  0  0  0
 24 25  1  1  0  0  0
 24 31  1  0  0  0  0
 26 33  1  0  0  0  0
 27 28  1  6  0  0  0
 27 34  1  0  0  0  0
 29  2  1  6  0  0  0
 29 36  1  0  0  0  0
 30 38  1  1  0  0  0
 31 32  1  1  0  0  0
 31 40  1  0  0  0  0
 33 42  2  0  0  0  0
 34 35  1  0  0  0  0
 34 43  1  1  0  0  0
 36 37  1  1  0  0  0
 36 45  1  0  0  0  0
 38 39  1  0  0  0  0
 40 41  1  0  0  0  0
 40 48  1  1  0  0  0
 43 44  1  0  0  0  0
 45 46  1  1  0  0  0
 47 50  1  0  0  0  0
 48 49  1  0  0  0  0
 50 51  1  0  0  0  0
 51 52  1  0  0  0  0
 52  8  1  0  0  0  0
M  END
>  <CHROM.1>
-138.35628153,-139.37346833,-74.91804564,88.96798634,-69.38801666,62.97037744
71.17620666,-157.75519731,179.93381045,-61.13302207,-64.08217364,-69.04414353
177.80337343,-142.15644425,-62.01227971,42.98403943,3.64347202,-2.94060967
-1.18748891,0.97072559,0.45459519

>  <Name>
2be0_lig

>  <RI>
0

>  <Rbt.Current_Directory>
/home/itssahil/PROJECTS/Mol_Feturizer/New_Systems/rnas/2be0

>  <Rbt.Executable>
rbdock ($Id: //depot/dev/client3/rdock/2013.1/src/exe/rbdock.cxx#4 $)

>  <Rbt.Library>
libRbt.so (2013.1, Build901 2013/11/27)

>  <Rbt.Parameter_File>
/export/apps/rDock/src/rDock_2013.1_src/data/scripts/dock_solv.prm

>  <Rbt.Receptor>
prm/pocket_docking_4.prm

>  <SCORE>
-13.8694

>  <SCORE.INTER>
-1.16899

>  <SCORE.INTER.CONST>
1

>  <SCORE.INTER.POLAR>
0

>  <SCORE.INTER.ROT>
15

>  <SCORE.INTER.SOLV>
10.9045

>  <SCORE.INTER.VDW>
-18.0142

>  <SCORE.INTER.norm>
-0.0224805

>  <SCORE.INTRA>
-12.702

>  <SCORE.INTRA.DIHEDRAL>
-27.5712

>  <SCORE.INTRA.DIHEDRAL.0>
47.8724

>  <SCORE.INTRA.POLAR>
0

>  <SCORE.INTRA.POLAR.0>
0

>  <SCORE.INTRA.REPUL>
0

>  <SCORE.INTRA.REPUL.0>
0

>  <SCORE.INTRA.SOLV>
7.74292

>  <SCORE.INTRA.SOLV.lig_0>
-115.677

>  <SCORE.INTRA.VDW>
-2.7879

>  <SCORE.INTRA.VDW.0>
-7.4833

>  <SCORE.INTRA.norm>
-0.24427

>  <SCORE.RESTR>
0.001569

>  <SCORE.RESTR.CAVITY>
0.001569

>  <SCORE.RESTR.norm>
3.01731e-05

>  <SCORE.SYSTEM>
0

>  <SCORE.SYSTEM.CONST>
0

>  <SCORE.SYSTEM.DIHEDRAL>
0

>  <SCORE.SYSTEM.SOLV>
0

>  <SCORE.SYSTEM.norm>
0

>  <SCORE.heavy>
52

>  <SCORE.norm>
-0.26672

>  <RMSD>
8.316

$$$$
2be0_lig
 OpenBabel11021811423D
libRbt.so/2013.1/901 2013/11/27
 52 56  0  0  0  0  0  0  0  0999 V2000
   48.8733    3.3995   -6.2454 C   0  0  2  0  0  0  0  0  0  0  0  0
   47.9794    4.1296   -5.4387 O   0  0  0  0  0  0  0  0  0  0  0  0
   44.9615    7.2371   -6.2176 C   0  0  2  0  0  0  0  0  0  0  0  0
   43.8676    7.9798   -6.9043 N   0  0  0  0  0  0  0  0  0  0  0  0
   44.6347    3.4524   -3.5082 C   0  0  2  0  0  0  0  0  0  0  0  0
   44.6784    2.0544   -3.1560 O   0  0  0  0  0  0  0  0  0  0  0  0
   40.5782    1.4748   -5.1762 C   0  0  1  0  0  0  0  0  0  0  0  0
   42.8097    9.1146   -0.2658 C   0  0  0  0  0  0  0  0  0  0  0  0
   49.5827    2.2503   -5.4198 C   0  0  2  0  0  0  0  0  0  0  0  0
   48.5731    1.4051   -4.7788 N   0  0  0  0  0  0  0  0  0  0  0  0
   46.1923    7.0738   -7.2210 C   0  0  0  0  0  0  0  0  0  0  0  0
   43.1501    3.8374   -3.6096 C   0  0  2  0  0  0  0  0  0  0  0  0
   42.7763    4.1633   -2.1984 O   0  0  0  0  0  0  0  0  0  0  0  0
   40.6347    2.2383   -6.6099 C   0  0  2  0  0  0  0  0  0  0  0  0
   39.9251    3.5520   -6.4828 N   0  0  0  0  0  0  0  0  0  0  0  0
   42.8293   10.2455    0.6148 C   0  0  0  0  0  0  0  0  0  0  0  0
   41.9961   11.3623    0.3438 N   0  0  0  0  0  0  0  0  0  0  0  0
   50.5868    2.8945   -4.3556 C   0  0  1  0  0  0  0  0  0  0  0  0
   51.2059    1.8493   -3.6218 O   0  0  0  0  0  0  0  0  0  0  0  0
   47.4108    6.2501   -6.5092 C   0  0  2  0  0  0  0  0  0  0  0  0
   48.5256    6.0983   -7.4011 N   0  0  0  0  0  0  0  0  0  0  0  0
   42.6169    2.5493   -4.2647 C   0  0  2  0  0  0  0  0  0  0  0  0
   41.2148    2.3308   -4.2105 O   0  0  0  0  0  0  0  0  0  0  0  0
   39.9360    1.3279   -7.6644 C   0  0  1  0  0  0  0  0  0  0  0  0
   40.7207    0.0833   -7.7166 O   0  0  0  0  0  0  0  0  0  0  0  0
   41.1237   11.4242   -0.7801 C   0  0  0  0  0  0  0  0  0  0  0  0
   51.6288    3.7619   -5.1198 C   0  0  2  0  0  0  0  0  0  0  0  0
   52.5890    4.3914   -4.1812 O   0  0  0  0  0  0  0  0  0  0  0  0
   46.8989    4.8224   -6.0518 C   0  0  2  0  0  0  0  0  0  0  0  0
   43.4511    1.4338   -3.5911 C   0  0  1  0  0  0  0  0  0  0  0  0
   38.3997    1.0359   -7.2165 C   0  0  2  0  0  0  0  0  0  0  0  0
   37.6094    2.2755   -7.1618 O   0  0  0  0  0  0  0  0  0  0  0  0
   41.0605   10.3358   -1.6848 C   0  0  0  0  0  0  0  0  0  0  0  0
   50.9034    4.8999   -5.9360 C   0  0  2  0  0  0  0  0  0  0  0  0
   49.9781    4.2227   -6.8303 O   0  0  0  0  0  0  0  0  0  0  0  0
   45.6874    5.0386   -5.0798 C   0  0  2  0  0  0  0  0  0  0  0  0
   45.3229    3.7095   -4.7279 O   0  0  0  0  0  0  0  0  0  0  0  0
   43.8350    0.3230   -4.5672 C   0  0  0  0  0  0  0  0  0  0  0  0
   44.3633    0.7544   -5.7984 O   0  0  0  0  0  0  0  0  0  0  0  0
   38.3893    0.3301   -5.7831 C   0  0  1  0  0  0  0  0  0  0  0  0
   39.1178    1.2250   -4.8017 O   0  0  0  0  0  0  0  0  0  0  0  0
   41.9111    9.1467   -1.4467 C   0  0  0  0  0  0  0  0  0  0  0  0
   51.9337    5.6699   -6.6513 C   0  0  0  0  0  0  0  0  0  0  0  0
   51.3989    6.8055   -7.1172 O   0  0  0  0  0  0  0  0  0  0  0  0
   44.5122    5.8135   -5.8118 C   0  0  1  0  0  0  0  0  0  0  0  0
   43.4512    6.0061   -4.9350 O   0  0  0  0  0  0  0  0  0  0  0  0
   42.8673    5.4685   -1.5024 C   0  0  0  0  0  0  0  0  0  0  0  0
   36.9030    0.0871   -5.4044 C   0  0  0  0  0  0  0  0  0  0  0  0
   36.8078   -0.6277   -4.1559 N   0  0  0  0  0  0  0  0  0  0  0  0
   44.3530    5.8319   -1.4133 C   0  0  0  0  0  0  0  0  0  0  0  0
   44.4930    7.3066   -1.1847 N   0  0  0  0  0  0  0  0  0  0  0  0
   43.7619    7.8642    0.0663 C   0  0  0  0  0  0  0  0  0  0  0  0
  1  2  1  1  0  0  0
  1  9  1  0  0  0  0
  1 35  1  0  0  0  0
  3  4  1  6  0  0  0
  3 11  1  0  0  0  0
  3 45  1  0  0  0  0
  5  6  1  0  0  0  0
  5 12  1  0  0  0  0
  5 37  1  6  0  0  0
  6 30  1  0  0  0  0
  7 14  1  0  0  0  0
  7 41  1  0  0  0  0
  7 23  1  1  0  0  0
  8 16  2  0  0  0  0
  8 42  1  0  0  0  0
  9 10  1  1  0  0  0
  9 18  1  0  0  0  0
 11 20  1  0  0  0  0
 12 13  1  1  0  0  0
 12 22  1  0  0  0  0
 13 47  1  0  0  0  0
 14 15  1  1  0  0  0
 14 24  1  0  0  0  0
 16 17  1  0  0  0  0
 17 26  2  0  0  0  0
 18 19  1  6  0  0  0
 18 27  1  0  0  0  0
 20 21  1  6  0  0  0
 20 29  1  0  0  0  0
 22 23  1  1  0  0  0
 22 30  1  0  0  0  0
 24 25  1  1  0  0  0
 24 31  1  0  0  0  0
 26 33  1  0  0  0  0
 27 28  1  1  0  0  0
 27 34  1  0  0  0  0
 29  2  1  1  0  0  0
 29 36  1  0  0  0  0
 30 38  1  6  0  0  0
 31 32  1  1  0  0  0
 31 40  1  0  0  0  0
 33 42  2  0  0  0  0
 34 35  1  0  0  0  0
 34 43  1  6  0  0  0
 36 37  1  6  0  0  0
 36 45  1  0  0  0  0
 38 39  1  0  0  0  0
 40 41  1  0  0  0  0
 40 48  1  1  0  0  0
 43 44  1  0  0  0  0
 45 46  1  1  0  0  0
 47 50  1  0  0  0  0
 48 49  1  0  0  0  0
 50 51  1  0  0  0  0
 51 52  1  0  0  0  0
 52  8  1  0  0  0  0
M  END
>  <CHROM.1>
-155.80035008,-164.17794581,-69.45454497,88.91106418,-64.81526878,156.76616613
-85.95508502,-68.74879279,-166.76278631,155.70202382,176.31140295,159.80629992
56.57170118,-127.88857567,-136.32603883,44.43974045,4.31297795,-4.58553904
-0.17407430,-0.15108402,-2.60892098

>  <Name>
2be0_lig

>  <RI>
0

>  <Rbt.Current_Directory>
/home/itssahil/PROJECTS/Mol_Feturizer/New_Systems/rnas/2be0

>  <Rbt.Executable>
rbdock ($Id: //depot/dev/client3/rdock/2013.1/src/exe/rbdock.cxx#4 $)

>  <Rbt.Library>
libRbt.so (2013.1, Build901 2013/11/27)

>  <Rbt.Parameter_File>
/export/apps/rDock/src/rDock_2013.1_src/data/scripts/dock_solv.prm

>  <Rbt.Receptor>
prm/pocket_docking_4.prm

>  <SCORE>
-20.5616

>  <SCORE.INTER>
-10.6182

>  <SCORE.INTER.CONST>
1

>  <SCORE.INTER.POLAR>
-1.68644

>  <SCORE.INTER.ROT>
15

>  <SCORE.INTER.SOLV>
16.5082

>  <SCORE.INTER.VDW>
-20.5601

>  <SCORE.INTER.norm>
-0.204196

>  <SCORE.INTRA>
-9.94339

>  <SCORE.INTRA.DIHEDRAL>
-28.2355

>  <SCORE.INTRA.DIHEDRAL.0>
47.8724

>  <SCORE.INTRA.POLAR>
0

>  <SCORE.INTRA.POLAR.0>
0

>  <SCORE.INTRA.REPUL>
0.0195845

>  <SCORE.INTRA.REPUL.0>
0

>  <SCORE.INTRA.SOLV>
0.677844

>  <SCORE.INTRA.SOLV.lig_0>
-115.677

>  <SCORE.INTRA.VDW>
3.73751

>  <SCORE.INTRA.VDW.0>
-7.4833

>  <SCORE.INTRA.norm>
-0.191219

>  <SCORE.RESTR>
0

>  <SCORE.RESTR.CAVITY>
0

>  <SCORE.RESTR.norm>
0

>  <SCORE.SYSTEM>
0

>  <SCORE.SYSTEM.CONST>
0

>  <SCORE.SYSTEM.DIHEDRAL>
0

>  <SCORE.SYSTEM.SOLV>
0

>  <SCORE.SYSTEM.norm>
0

>  <SCORE.heavy>
52

>  <SCORE.norm>
-0.395415

>  <RMSD>
8.345

$$$$
2be0_lig
 OpenBabel11021811423D
libRbt.so/2013.1/901 2013/11/27
 52 56  0  0  0  0  0  0  0  0999 V2000
   46.4149    1.7033   -8.1207 C   0  0  2  0  0  0  0  0  0  0  0  0
   45.1721    1.2637   -7.6257 O   0  0  0  0  0  0  0  0  0  0  0  0
   41.0293    2.0406   -8.8925 C   0  0  2  0  0  0  0  0  0  0  0  0
   39.8479    2.1887   -9.7879 N   0  0  0  0  0  0  0  0  0  0  0  0
   44.2330   -1.2989   -6.9250 C   0  0  2  0  0  0  0  0  0  0  0  0
   44.6505   -2.6663   -7.1154 O   0  0  0  0  0  0  0  0  0  0  0  0
   41.3471   -2.3137   -3.6371 C   0  0  1  0  0  0  0  0  0  0  0  0
   45.1490    1.9723   -1.4987 C   0  0  0  0  0  0  0  0  0  0  0  0
   47.6112    0.9143   -7.4484 C   0  0  2  0  0  0  0  0  0  0  0  0
   47.4093   -0.5267   -7.6137 N   0  0  0  0  0  0  0  0  0  0  0  0
   42.1964    3.0022   -9.4038 C   0  0  0  0  0  0  0  0  0  0  0  0
   43.4981   -1.2437   -5.5762 C   0  0  2  0  0  0  0  0  0  0  0  0
   44.6024   -1.0631   -4.5836 O   0  0  0  0  0  0  0  0  0  0  0  0
   41.1525   -3.0905   -2.2229 C   0  0  2  0  0  0  0  0  0  0  0  0
   40.5776   -4.4473   -2.4952 N   0  0  0  0  0  0  0  0  0  0  0  0
   44.7678    1.4234   -0.2306 C   0  0  0  0  0  0  0  0  0  0  0  0
   43.4972    1.7381    0.3187 N   0  0  0  0  0  0  0  0  0  0  0  0
   47.7307    1.3289   -5.9091 C   0  0  1  0  0  0  0  0  0  0  0  0
   48.8025    0.6059   -5.3238 O   0  0  0  0  0  0  0  0  0  0  0  0
   43.5186    2.8590   -8.4545 C   0  0  2  0  0  0  0  0  0  0  0  0
   44.5756    3.7210   -8.9028 N   0  0  0  0  0  0  0  0  0  0  0  0
   42.7549   -2.5905   -5.6577 C   0  0  2  0  0  0  0  0  0  0  0  0
   42.2301   -3.1119   -4.4455 O   0  0  0  0  0  0  0  0  0  0  0  0
   40.1864   -2.2434   -1.3408 C   0  0  1  0  0  0  0  0  0  0  0  0
   40.8551   -0.9495   -1.1257 O   0  0  0  0  0  0  0  0  0  0  0  0
   42.5600    2.5893   -0.3334 C   0  0  0  0  0  0  0  0  0  0  0  0
   47.9556    2.8667   -5.8264 C   0  0  2  0  0  0  0  0  0  0  0  0
   48.0706    3.3134   -4.4170 O   0  0  0  0  0  0  0  0  0  0  0  0
   44.0217    1.3569   -8.4571 C   0  0  2  0  0  0  0  0  0  0  0  0
   43.7783   -3.5224   -6.3492 C   0  0  1  0  0  0  0  0  0  0  0  0
   38.7627   -2.0497   -2.1033 C   0  0  2  0  0  0  0  0  0  0  0  0
   38.0887   -3.3390   -2.3221 O   0  0  0  0  0  0  0  0  0  0  0  0
   42.8807    3.1602   -1.5896 C   0  0  0  0  0  0  0  0  0  0  0  0
   46.7547    3.6347   -6.5012 C   0  0  2  0  0  0  0  0  0  0  0  0
   46.6919    3.1530   -7.8719 O   0  0  0  0  0  0  0  0  0  0  0  0
   42.8385    0.4563   -7.9589 C   0  0  2  0  0  0  0  0  0  0  0  0
   43.4005   -0.8500   -7.9894 O   0  0  0  0  0  0  0  0  0  0  0  0
   43.1175   -4.4834   -7.3362 C   0  0  0  0  0  0  0  0  0  0  0  0
   42.3284   -3.8797   -8.3332 O   0  0  0  0  0  0  0  0  0  0  0  0
   39.0060   -1.3273   -3.5075 C   0  0  1  0  0  0  0  0  0  0  0  0
   39.9847   -2.1580   -4.3118 O   0  0  0  0  0  0  0  0  0  0  0  0
   44.1950    2.8633   -2.2051 C   0  0  0  0  0  0  0  0  0  0  0  0
   47.0332    5.0770   -6.4116 C   0  0  0  0  0  0  0  0  0  0  0  0
   46.0002    5.7632   -6.9164 O   0  0  0  0  0  0  0  0  0  0  0  0
   41.5836    0.5966   -8.9196 C   0  0  1  0  0  0  0  0  0  0  0  0
   40.5411   -0.1989   -8.4591 O   0  0  0  0  0  0  0  0  0  0  0  0
   44.5066   -0.9904   -3.1065 C   0  0  0  0  0  0  0  0  0  0  0  0
   37.6198   -1.1801   -4.1918 C   0  0  0  0  0  0  0  0  0  0  0  0
   36.7524   -0.3390   -3.4050 N   0  0  0  0  0  0  0  0  0  0  0  0
   45.9337   -0.8547   -2.5659 C   0  0  0  0  0  0  0  0  0  0  0  0
   46.5485    0.4072   -3.0918 N   0  0  0  0  0  0  0  0  0  0  0  0
   46.5921    1.5979   -2.0967 C   0  0  0  0  0  0  0  0  0  0  0  0
  1  2  1  1  0  0  0
  1  9  1  0  0  0  0
  1 35  1  0  0  0  0
  3  4  1  6  0  0  0
  3 11  1  0  0  0  0
  3 45  1  0  0  0  0
  5  6  1  0  0  0  0
  5 12  1  0  0  0  0
  5 37  1  6  0  0  0
  6 30  1  0  0  0  0
  7 14  1  0  0  0  0
  7 41  1  0  0  0  0
  7 23  1  6  0  0  0
  8 16  2  0  0  0  0
  8 42  1  0  0  0  0
  9 10  1  1  0  0  0
  9 18  1  0  0  0  0
 11 20  1  0  0  0  0
 12 13  1  1  0  0  0
 12 22  1  0  0  0  0
 13 47  1  0  0  0  0
 14 15  1  6  0  0  0
 14 24  1  0  0  0  0
 16 17  1  0  0  0  0
 17 26  2  0  0  0  0
 18 19  1  6  0  0  0
 18 27  1  0  0  0  0
 20 21  1  6  0  0  0
 20 29  1  0  0  0  0
 22 23  1  1  0  0  0
 22 30  1  0  0  0  0
 24 25  1  6  0  0  0
 24 31  1  0  0  0  0
 26 33  1  0  0  0  0
 27 28  1  1  0  0  0
 27 34  1  0  0  0  0
 29  2  1  1  0  0  0
 29 36  1  0  0  0  0
 30 38  1  6  0  0  0
 31 32  1  6  0  0  0
 31 40  1  0  0  0  0
 33 42  2  0  0  0  0
 34 35  1  0  0  0  0
 34 43  1  6  0  0  0
 36 37  1  6  0  0  0
 36 45  1  0  0  0  0
 38 39  1  0  0  0  0
 40 41  1  0  0  0  0
 40 48  1  6  0  0  0
 43 44  1  0  0  0  0
 45 46  1  1  0  0  0
 47 50  1  0  0  0  0
 48 49  1  0  0  0  0
 50 51  1  0  0  0  0
 51 52  1  0  0  0  0
 52  8  1  0  0  0  0
M  END
>  <CHROM.1>
-151.55024618,177.37274359,-170.09754462,-177.65294372,177.83628486,54.52659544
-78.13115265,-61.09443303,-176.93035782,80.78003705,62.65083069,61.24293308
101.97538111,-55.28485929,95.54388126,43.49243491,0.18077274,-5.23765256
0.44326724,-0.62484936,-1.52533450

>  <Name>
2be0_lig

>  <RI>
0

>  <Rbt.Current_Directory>
/home/itssahil/PROJECTS/Mol_Feturizer/New_Systems/rnas/2be0

>  <Rbt.Executable>
rbdock ($Id: //depot/dev/client3/rdock/2013.1/src/exe/rbdock.cxx#4 $)

>  <Rbt.Library>
libRbt.so (2013.1, Build901 2013/11/27)

>  <Rbt.Parameter_File>
/export/apps/rDock/src/rDock_2013.1_src/data/scripts/dock_solv.prm

>  <Rbt.Receptor>
prm/pocket_docking_7.prm

>  <SCORE>
-19.0621

>  <SCORE.INTER>
-2.10828

>  <SCORE.INTER.CONST>
1

>  <SCORE.INTER.POLAR>
0

>  <SCORE.INTER.ROT>
15

>  <SCORE.INTER.SOLV>
9.31819

>  <SCORE.INTER.VDW>
-18.1116

>  <SCORE.INTER.norm>
-0.0405439

>  <SCORE.INTRA>
-16.9538

>  <SCORE.INTRA.DIHEDRAL>
-38.1909

>  <SCORE.INTRA.DIHEDRAL.0>
47.8724

>  <SCORE.INTRA.POLAR>
0

>  <SCORE.INTRA.POLAR.0>
0

>  <SCORE.INTRA.REPUL>
0

>  <SCORE.INTRA.REPUL.0>
0

>  <SCORE.INTRA.SOLV>
3.80619

>  <SCORE.INTRA.SOLV.lig_0>
-115.677

>  <SCORE.INTRA.VDW>
0.238532

>  <SCORE.INTRA.VDW.0>
-7.4833

>  <SCORE.INTRA.norm>
-0.326035

>  <SCORE.RESTR>
0

>  <SCORE.RESTR.CAVITY>
0

>  <SCORE.RESTR.norm>
0

>  <SCORE.SYSTEM>
0

>  <SCORE.SYSTEM.CONST>
0

>  <SCORE.SYSTEM.DIHEDRAL>
0

>  <SCORE.SYSTEM.SOLV>
0

>  <SCORE.SYSTEM.norm>
0

>  <SCORE.heavy>
52

>  <SCORE.norm>
-0.366579

>  <RMSD>
8.355

$$$$
2be0_lig
 OpenBabel11021811423D
libRbt.so/2013.1/901 2013/11/27
 52 56  0  0  0  0  0  0  0  0999 V2000
   40.9397    3.8142   -7.8260 C   0  0  2  0  0  0  0  0  0  0  0  0
   41.9524    4.5781   -7.2147 O   0  0  0  0  0  0  0  0  0  0  0  0
   44.5875    7.7434   -8.7666 C   0  0  2  0  0  0  0  0  0  0  0  0
   45.0104    8.9924   -9.4598 N   0  0  0  0  0  0  0  0  0  0  0  0
   42.7434    7.5464   -4.5803 C   0  0  2  0  0  0  0  0  0  0  0  0
   43.7714    6.7603   -3.9434 O   0  0  0  0  0  0  0  0  0  0  0  0
   40.9183    4.7747   -1.1222 C   0  0  1  0  0  0  0  0  0  0  0  0
   40.7850   10.3197    2.1362 C   0  0  0  0  0  0  0  0  0  0  0  0
   39.8983    3.2837   -6.7584 C   0  0  2  0  0  0  0  0  0  0  0  0
   39.3730    4.4063   -5.9784 N   0  0  0  0  0  0  0  0  0  0  0  0
   43.7836    6.8224   -9.7931 C   0  0  0  0  0  0  0  0  0  0  0  0
   41.6011    7.6904   -3.5619 C   0  0  2  0  0  0  0  0  0  0  0  0
   42.0147    8.8676   -2.7369 O   0  0  0  0  0  0  0  0  0  0  0  0
   40.1756    3.8033   -2.1928 C   0  0  2  0  0  0  0  0  0  0  0  0
   38.8116    4.3553   -2.4767 N   0  0  0  0  0  0  0  0  0  0  0  0
   40.3655   11.0851    3.2733 C   0  0  0  0  0  0  0  0  0  0  0  0
   41.2877   11.9515    3.9169 N   0  0  0  0  0  0  0  0  0  0  0  0
   40.5936    2.1836   -5.8300 C   0  0  1  0  0  0  0  0  0  0  0  0
   39.6469    1.7270   -4.8765 O   0  0  0  0  0  0  0  0  0  0  0  0
   43.2886    5.4453   -9.0663 C   0  0  2  0  0  0  0  0  0  0  0  0
   42.5658    4.6065   -9.9802 N   0  0  0  0  0  0  0  0  0  0  0  0
   41.6475    6.2757   -2.9543 C   0  0  2  0  0  0  0  0  0  0  0  0
   40.9881    6.0858   -1.7110 O   0  0  0  0  0  0  0  0  0  0  0  0
   40.0804    2.3812   -1.5624 C   0  0  1  0  0  0  0  0  0  0  0  0
   41.4664    1.9356   -1.3434 O   0  0  0  0  0  0  0  0  0  0  0  0
   42.6368   12.1048    3.4875 C   0  0  0  0  0  0  0  0  0  0  0  0
   41.1091    1.0266   -6.7344 C   0  0  2  0  0  0  0  0  0  0  0  0
   41.7702   -0.0269   -5.9268 O   0  0  0  0  0  0  0  0  0  0  0  0
   42.3684    5.7939   -7.8248 C   0  0  2  0  0  0  0  0  0  0  0  0
   43.1601    5.9520   -2.9169 C   0  0  1  0  0  0  0  0  0  0  0  0
   39.2560    2.4475   -0.1617 C   0  0  2  0  0  0  0  0  0  0  0  0
   37.8697    2.8925   -0.3728 O   0  0  0  0  0  0  0  0  0  0  0  0
   43.1082   11.3749    2.3685 C   0  0  0  0  0  0  0  0  0  0  0  0
   42.1442    1.5745   -7.7908 C   0  0  2  0  0  0  0  0  0  0  0  0
   41.4411    2.6006   -8.5443 O   0  0  0  0  0  0  0  0  0  0  0  0
   43.1990    6.7055   -6.8561 C   0  0  2  0  0  0  0  0  0  0  0  0
   42.2906    6.9418   -5.7873 O   0  0  0  0  0  0  0  0  0  0  0  0
   43.4528    4.4934   -3.2648 C   0  0  0  0  0  0  0  0  0  0  0  0
   42.4481    3.8317   -3.9956 O   0  0  0  0  0  0  0  0  0  0  0  0
   39.9932    3.4489    0.8416 C   0  0  1  0  0  0  0  0  0  0  0  0
   40.1062    4.8030    0.1722 O   0  0  0  0  0  0  0  0  0  0  0  0
   42.1850   10.4564    1.6625 C   0  0  0  0  0  0  0  0  0  0  0  0
   42.5778    0.4438   -8.6271 C   0  0  0  0  0  0  0  0  0  0  0  0
   41.5286   -0.0378   -9.3053 O   0  0  0  0  0  0  0  0  0  0  0  0
   43.6366    8.0455   -7.5842 C   0  0  1  0  0  0  0  0  0  0  0  0
   44.3798    8.8371   -6.7167 O   0  0  0  0  0  0  0  0  0  0  0  0
   41.1636    9.7492   -1.9033 C   0  0  0  0  0  0  0  0  0  0  0  0
   39.1588    3.4800    2.1510 C   0  0  0  0  0  0  0  0  0  0  0  0
   39.1432    2.1798    2.7737 N   0  0  0  0  0  0  0  0  0  0  0  0
   40.2776    8.8423   -1.0431 C   0  0  0  0  0  0  0  0  0  0  0  0
   39.4992    9.6796   -0.0737 N   0  0  0  0  0  0  0  0  0  0  0  0
   39.7199    9.3487    1.4270 C   0  0  0  0  0  0  0  0  0  0  0  0
  1  2  1  1  0  0  0
  1  9  1  0  0  0  0
  1 35  1  0  0  0  0
  3  4  1  6  0  0  0
  3 11  1  0  0  0  0
  3 45  1  0  0  0  0
  5  6  1  0  0  0  0
  5 12  1  0  0  0  0
  5 37  1  6  0  0  0
  6 30  1  0  0  0  0
  7 14  1  0  0  0  0
  7 41  1  0  0  0  0
  7 23  1  6  0  0  0
  8 16  2  0  0  0  0
  8 42  1  0  0  0  0
  9 10  1  1  0  0  0
  9 18  1  0  0  0  0
 11 20  1  0  0  0  0
 12 13  1  1  0  0  0
 12 22  1  0  0  0  0
 13 47  1  0  0  0  0
 14 15  1  1  0  0  0
 14 24  1  0  0  0  0
 16 17  1  0  0  0  0
 17 26  2  0  0  0  0
 18 19  1  1  0  0  0
 18 27  1  0  0  0  0
 20 21  1  6  0  0  0
 20 29  1  0  0  0  0
 22 23  1  1  0  0  0
 22 30  1  0  0  0  0
 24 25  1  1  0  0  0
 24 31  1  0  0  0  0
 26 33  1  0  0  0  0
 27 28  1  1  0  0  0
 27 34  1  0  0  0  0
 29  2  1  1  0  0  0
 29 36  1  0  0  0  0
 30 38  1  6  0  0  0
 31 32  1  6  0  0  0
 31 40  1  0  0  0  0
 33 42  2  0  0  0  0
 34 35  1  0  0  0  0
 34 43  1  6  0  0  0
 36 37  1  1  0  0  0
 36 45  1  0  0  0  0
 38 39  1  0  0  0  0
 40 41  1  0  0  0  0
 40 48  1  1  0  0  0
 43 44  1  0  0  0  0
 45 46  1  1  0  0  0
 47 50  1  0  0  0  0
 48 49  1  0  0  0  0
 50 51  1  0  0  0  0
 51 52  1  0  0  0  0
 52  8  1  0  0  0  0
M  END
>  <CHROM.1>
-136.62707885,-60.07366095,-58.27672599,158.55478806,48.24872035,176.18647129
-76.23082432,-94.70979788,63.36460532,169.10946818,63.26448803,173.98380528
-121.38328166,97.57817643,121.63583718,41.49531219,5.58998322,-3.60543958
-1.28650834,1.12140675,0.80228305

>  <Name>
2be0_lig

>  <RI>
3.37048e+07

>  <Rbt.Current_Directory>
/home/itssahil/PROJECTS/Mol_Feturizer/New_Systems/rnas/2be0

>  <Rbt.Executable>
rbdock ($Id: //depot/dev/client3/rdock/2013.1/src/exe/rbdock.cxx#4 $)

>  <Rbt.Library>
libRbt.so (2013.1, Build901 2013/11/27)

>  <Rbt.Parameter_File>
/export/apps/rDock/src/rDock_2013.1_src/data/scripts/dock_solv.prm

>  <Rbt.Receptor>
prm/pocket_docking_8.prm

>  <SCORE>
-20.4206

>  <SCORE.INTER>
-7.66839

>  <SCORE.INTER.CONST>
1

>  <SCORE.INTER.POLAR>
-0.959166

>  <SCORE.INTER.ROT>
15

>  <SCORE.INTER.SOLV>
10.4811

>  <SCORE.INTER.VDW>
-19.0087

>  <SCORE.INTER.norm>
-0.147469

>  <SCORE.INTRA>
-12.7523

>  <SCORE.INTRA.DIHEDRAL>
-30.941

>  <SCORE.INTRA.DIHEDRAL.0>
47.8724

>  <SCORE.INTRA.POLAR>
0

>  <SCORE.INTRA.POLAR.0>
0

>  <SCORE.INTRA.REPUL>
0.00230954

>  <SCORE.INTRA.REPUL.0>
0

>  <SCORE.INTRA.SOLV>
3.9114

>  <SCORE.INTRA.SOLV.lig_0>
-115.677

>  <SCORE.INTRA.VDW>
0.750994

>  <SCORE.INTRA.VDW.0>
-7.4833

>  <SCORE.INTRA.norm>
-0.245236

>  <SCORE.RESTR>
0

>  <SCORE.RESTR.CAVITY>
0

>  <SCORE.RESTR.norm>
0

>  <SCORE.SYSTEM>
0

>  <SCORE.SYSTEM.CONST>
0

>  <SCORE.SYSTEM.DIHEDRAL>
0

>  <SCORE.SYSTEM.SOLV>
0

>  <SCORE.SYSTEM.norm>
0

>  <SCORE.heavy>
52

>  <SCORE.norm>
-0.392705

>  <RMSD>
8.356

$$$$
2be0_lig
 OpenBabel11021811423D
libRbt.so/2013.1/901 2013/11/27
 52 56  0  0  0  0  0  0  0  0999 V2000
   42.4994   -0.1655   -4.3014 C   0  0  2  0  0  0  0  0  0  0  0  0
   43.2697   -0.5537   -5.4143 O   0  0  0  0  0  0  0  0  0  0  0  0
   45.0588    1.5637   -8.8329 C   0  0  2  0  0  0  0  0  0  0  0  0
   45.1697    2.4660  -10.0132 N   0  0  0  0  0  0  0  0  0  0  0  0
   45.0906    2.9613   -4.4886 C   0  0  2  0  0  0  0  0  0  0  0  0
   46.1667    2.2689   -3.8231 O   0  0  0  0  0  0  0  0  0  0  0  0
   42.9678    3.9533   -0.6229 C   0  0  1  0  0  0  0  0  0  0  0  0
   43.6496    8.4103   -8.5584 C   0  0  0  0  0  0  0  0  0  0  0  0
   42.5703   -1.2486   -3.1492 C   0  0  2  0  0  0  0  0  0  0  0  0
   43.9687   -1.5184   -2.8082 N   0  0  0  0  0  0  0  0  0  0  0  0
   43.8934    0.5041   -9.0927 C   0  0  0  0  0  0  0  0  0  0  0  0
   44.3792    3.8060   -3.4196 C   0  0  2  0  0  0  0  0  0  0  0  0
   45.1854    5.0651   -3.3755 O   0  0  0  0  0  0  0  0  0  0  0  0
   41.8801    2.7651   -0.4073 C   0  0  2  0  0  0  0  0  0  0  0  0
   41.7912    1.9606   -1.6684 N   0  0  0  0  0  0  0  0  0  0  0  0
   43.0180    8.1113   -9.8100 C   0  0  0  0  0  0  0  0  0  0  0  0
   43.3223    8.8925  -10.9556 N   0  0  0  0  0  0  0  0  0  0  0  0
   41.8003   -2.5724   -3.6079 C   0  0  1  0  0  0  0  0  0  0  0  0
   41.8820   -3.5320   -2.5655 O   0  0  0  0  0  0  0  0  0  0  0  0
   43.7295   -0.4979   -7.8125 C   0  0  2  0  0  0  0  0  0  0  0  0
   42.6852   -1.4578   -8.0346 N   0  0  0  0  0  0  0  0  0  0  0  0
   44.4504    2.8101   -2.2466 C   0  0  2  0  0  0  0  0  0  0  0  0
   44.2241    3.3298   -0.9446 O   0  0  0  0  0  0  0  0  0  0  0  0
   40.5095    3.4266   -0.0712 C   0  0  1  0  0  0  0  0  0  0  0  0
   40.7095    4.1706    1.1833 O   0  0  0  0  0  0  0  0  0  0  0  0
   44.2389    9.9821  -10.9298 C   0  0  0  0  0  0  0  0  0  0  0  0
   40.3258   -2.1987   -3.9370 C   0  0  2  0  0  0  0  0  0  0  0  0
   39.5589   -3.3903   -4.3741 O   0  0  0  0  0  0  0  0  0  0  0  0
   43.4084    0.3436   -6.5093 C   0  0  2  0  0  0  0  0  0  0  0  0
   45.8371    2.1471   -2.4241 C   0  0  1  0  0  0  0  0  0  0  0  0
   40.0602    4.4198   -1.2785 C   0  0  2  0  0  0  0  0  0  0  0  0
   39.8588    3.6830   -2.5358 O   0  0  0  0  0  0  0  0  0  0  0  0
   44.8946   10.3239   -9.7214 C   0  0  0  0  0  0  0  0  0  0  0  0
   40.2759   -1.1191   -5.0857 C   0  0  2  0  0  0  0  0  0  0  0  0
   41.0443    0.0164   -4.6007 O   0  0  0  0  0  0  0  0  0  0  0  0
   44.5741    1.3727   -6.3064 C   0  0  2  0  0  0  0  0  0  0  0  0
   44.1912    2.0543   -5.1180 O   0  0  0  0  0  0  0  0  0  0  0  0
   45.8153    0.6543   -2.0996 C   0  0  0  0  0  0  0  0  0  0  0  0
   45.4466    0.3264   -0.7814 O   0  0  0  0  0  0  0  0  0  0  0  0
   41.1788    5.5412   -1.4880 C   0  0  1  0  0  0  0  0  0  0  0  0
   42.5008    4.8554   -1.7648 O   0  0  0  0  0  0  0  0  0  0  0  0
   44.6106    9.5397   -8.4972 C   0  0  0  0  0  0  0  0  0  0  0  0
   38.8633   -0.7913   -5.3369 C   0  0  0  0  0  0  0  0  0  0  0  0
   38.3361   -0.2234   -4.2450 O   0  0  0  0  0  0  0  0  0  0  0  0
   44.6849    2.3480   -7.5529 C   0  0  1  0  0  0  0  0  0  0  0  0
   45.7280    3.2464   -7.3625 O   0  0  0  0  0  0  0  0  0  0  0  0
   45.5425    5.9666   -4.4963 C   0  0  0  0  0  0  0  0  0  0  0  0
   40.7029    6.4488   -2.6547 C   0  0  0  0  0  0  0  0  0  0  0  0
   41.6145    7.5494   -2.8457 N   0  0  0  0  0  0  0  0  0  0  0  0
   44.2312    6.4605   -5.1160 C   0  0  0  0  0  0  0  0  0  0  0  0
   44.5239    7.1688   -6.4041 N   0  0  0  0  0  0  0  0  0  0  0  0
   43.2874    7.5088   -7.2791 C   0  0  0  0  0  0  0  0  0  0  0  0
  1  2  1  6  0  0  0
  1  9  1  0  0  0  0
  1 35  1  0  0  0  0
  3  4  1  6  0  0  0
  3 11  1  0  0  0  0
  3 45  1  0  0  0  0
  5  6  1  0  0  0  0
  5 12  1  0  0  0  0
  5 37  1  1  0  0  0
  6 30  1  0  0  0  0
  7 14  1  0  0  0  0
  7 41  1  0  0  0  0
  7 23  1  6  0  0  0
  8 16  2  0  0  0  0
  8 42  1  0  0  0  0
  9 10  1  6  0  0  0
  9 18  1  0  0  0  0
 11 20  1  0  0  0  0
 12 13  1  1  0  0  0
 12 22  1  0  0  0  0
 13 47  1  0  0  0  0
 14 15  1  6  0  0  0
 14 24  1  0  0  0  0
 16 17  1  0  0  0  0
 17 26  2  0  0  0  0
 18 19  1  1  0  0  0
 18 27  1  0  0  0  0
 20 21  1  6  0  0  0
 20 29  1  0  0  0  0
 22 23  1  1  0  0  0
 22 30  1  0  0  0  0
 24 25  1  1  0  0  0
 24 31  1  0  0  0  0
 26 33  1  0  0  0  0
 27 28  1  6  0  0  0
 27 34  1  0  0  0  0
 29  2  1  1  0  0  0
 29 36  1  0  0  0  0
 30 38  1  6  0  0  0
 31 32  1  6  0  0  0
 31 40  1  0  0  0  0
 33 42  2  0  0  0  0
 34 35  1  0  0  0  0
 34 43  1  1  0  0  0
 36 37  1  1  0  0  0
 36 45  1  0  0  0  0
 38 39  1  0  0  0  0
 40 41  1  0  0  0  0
 40 48  1  6  0  0  0
 43 44  1  0  0  0  0
 45 46  1  1  0  0  0
 47 50  1  0  0  0  0
 48 49  1  0  0  0  0
 50 51  1  0  0  0  0
 51 52  1  0  0  0  0
 52  8  1  0  0  0  0
M  END
>  <CHROM.1>
-175.26277045,-73.21738094,76.78526554,54.05350654,59.09567330,60.56021556
-155.38949488,-177.10443900,63.99206775,171.46753586,175.86621854,-169.59693153
169.59998703,173.46003231,139.00838531,43.04491946,2.79986914,-4.65163433
-2.58530523,1.28456400,0.45350230

>  <Name>
2be0_lig

>  <RI>
3.37048e+07

>  <Rbt.Current_Directory>
/home/itssahil/PROJECTS/Mol_Feturizer/New_Systems/rnas/2be0

>  <Rbt.Executable>
rbdock ($Id: //depot/dev/client3/rdock/2013.1/src/exe/rbdock.cxx#4 $)

>  <Rbt.Library>
libRbt.so (2013.1, Build901 2013/11/27)

>  <Rbt.Parameter_File>
/export/apps/rDock/src/rDock_2013.1_src/data/scripts/dock_solv.prm

>  <Rbt.Receptor>
prm/pocket_docking_8.prm

>  <SCORE>
-24.1253

>  <SCORE.INTER>
-6.78492

>  <SCORE.INTER.CONST>
1

>  <SCORE.INTER.POLAR>
0

>  <SCORE.INTER.ROT>
15

>  <SCORE.INTER.SOLV>
13.5571

>  <SCORE.INTER.VDW>
-22.6423

>  <SCORE.INTER.norm>
-0.130479

>  <SCORE.INTRA>
-17.3404

>  <SCORE.INTRA.DIHEDRAL>
-40.6482

>  <SCORE.INTRA.DIHEDRAL.0>
47.8724

>  <SCORE.INTRA.POLAR>
0

>  <SCORE.INTRA.POLAR.0>
0

>  <SCORE.INTRA.REPUL>
0.114401

>  <SCORE.INTRA.REPUL.0>
0

>  <SCORE.INTRA.SOLV>
2.82891

>  <SCORE.INTRA.SOLV.lig_0>
-115.677

>  <SCORE.INTRA.VDW>
0.997257

>  <SCORE.INTRA.VDW.0>
-7.4833

>  <SCORE.INTRA.norm>
-0.333469

>  <SCORE.RESTR>
0

>  <SCORE.RESTR.CAVITY>
0

>  <SCORE.RESTR.norm>
0

>  <SCORE.SYSTEM>
0

>  <SCORE.SYSTEM.CONST>
0

>  <SCORE.SYSTEM.DIHEDRAL>
0

>  <SCORE.SYSTEM.SOLV>
0

>  <SCORE.SYSTEM.norm>
0

>  <SCORE.heavy>
52

>  <SCORE.norm>
-0.463949

>  <RMSD>
8.362

$$$$
2be0_lig
 OpenBabel11021811423D
libRbt.so/2013.1/901 2013/11/27
 52 56  0  0  0  0  0  0  0  0999 V2000
   40.2110    0.8023   -5.1301 C   0  0  2  0  0  0  0  0  0  0  0  0
   40.9155    1.0437   -6.3251 O   0  0  0  0  0  0  0  0  0  0  0  0
   41.5533    4.6961   -8.6967 C   0  0  2  0  0  0  0  0  0  0  0  0
   41.2422    5.8946   -9.5251 N   0  0  0  0  0  0  0  0  0  0  0  0
   41.3472    4.0650   -4.0219 C   0  0  2  0  0  0  0  0  0  0  0  0
   40.7818    3.6094   -2.7757 O   0  0  0  0  0  0  0  0  0  0  0  0
   39.1821    7.1782   -1.3986 C   0  0  1  0  0  0  0  0  0  0  0  0
   44.8847    7.9247   -7.5901 C   0  0  0  0  0  0  0  0  0  0  0  0
   40.7039   -0.5308   -4.4333 C   0  0  2  0  0  0  0  0  0  0  0  0
   42.1546   -0.4814   -4.2395 N   0  0  0  0  0  0  0  0  0  0  0  0
   40.9484    3.3997   -9.4052 C   0  0  0  0  0  0  0  0  0  0  0  0
   41.3038    5.6012   -3.9926 C   0  0  2  0  0  0  0  0  0  0  0  0
   42.5582    5.9725   -3.2675 O   0  0  0  0  0  0  0  0  0  0  0  0
   38.8610    8.7488   -1.1317 C   0  0  2  0  0  0  0  0  0  0  0  0
   40.1173    9.5384   -1.3411 N   0  0  0  0  0  0  0  0  0  0  0  0
   45.6765    8.9572   -8.1916 C   0  0  0  0  0  0  0  0  0  0  0  0
   45.2095    9.6095   -9.3627 N   0  0  0  0  0  0  0  0  0  0  0  0
   40.2601   -1.7915   -5.3105 C   0  0  1  0  0  0  0  0  0  0  0  0
   40.7176   -2.9743   -4.6734 O   0  0  0  0  0  0  0  0  0  0  0  0
   41.2564    2.0620   -8.5189 C   0  0  2  0  0  0  0  0  0  0  0  0
   40.7191    0.8879   -9.1469 N   0  0  0  0  0  0  0  0  0  0  0  0
   39.9384    5.7851   -3.3035 C   0  0  2  0  0  0  0  0  0  0  0  0
   39.6622    7.0634   -2.7502 O   0  0  0  0  0  0  0  0  0  0  0  0
   38.3523    8.8905    0.3346 C   0  0  1  0  0  0  0  0  0  0  0  0
   37.1168    8.0945    0.4193 O   0  0  0  0  0  0  0  0  0  0  0  0
   43.9716    9.2869   -9.9884 C   0  0  0  0  0  0  0  0  0  0  0  0
   38.7106   -1.7735   -5.4551 C   0  0  2  0  0  0  0  0  0  0  0  0
   38.2377   -2.9216   -6.2658 O   0  0  0  0  0  0  0  0  0  0  0  0
   40.6336    2.2216   -7.0711 C   0  0  2  0  0  0  0  0  0  0  0  0
   39.9014    4.6341   -2.2702 C   0  0  1  0  0  0  0  0  0  0  0  0
   39.4791    8.3391    1.3701 C   0  0  2  0  0  0  0  0  0  0  0  0
   40.7171    9.1299    1.2908 O   0  0  0  0  0  0  0  0  0  0  0  0
   43.1457    8.2757   -9.4386 C   0  0  0  0  0  0  0  0  0  0  0  0
   38.2392   -0.4386   -6.1504 C   0  0  2  0  0  0  0  0  0  0  0  0
   38.7341    0.6437   -5.3146 O   0  0  0  0  0  0  0  0  0  0  0  0
   41.2505    3.5107   -6.4256 C   0  0  2  0  0  0  0  0  0  0  0  0
   40.6379    3.5462   -5.1423 O   0  0  0  0  0  0  0  0  0  0  0  0
   38.5136    4.0075   -2.1452 C   0  0  0  0  0  0  0  0  0  0  0  0
   37.4998    4.8682   -1.6840 O   0  0  0  0  0  0  0  0  0  0  0  0
   39.7990    6.8086    1.0413 C   0  0  1  0  0  0  0  0  0  0  0  0
   40.2436    6.7104   -0.4034 O   0  0  0  0  0  0  0  0  0  0  0  0
   43.5886    7.5643   -8.2172 C   0  0  0  0  0  0  0  0  0  0  0  0
   36.7705   -0.4697   -6.2395 C   0  0  0  0  0  0  0  0  0  0  0  0
   36.3422    0.5993   -6.9224 O   0  0  0  0  0  0  0  0  0  0  0  0
   40.9067    4.7929   -7.2946 C   0  0  1  0  0  0  0  0  0  0  0  0
   41.4686    5.9244   -6.7154 O   0  0  0  0  0  0  0  0  0  0  0  0
   43.2227    7.2955   -3.2004 C   0  0  0  0  0  0  0  0  0  0  0  0
   40.8840    6.3420    2.0496 C   0  0  0  0  0  0  0  0  0  0  0  0
   40.3606    6.3393    3.3930 N   0  0  0  0  0  0  0  0  0  0  0  0
   43.5007    7.7366   -4.6411 C   0  0  0  0  0  0  0  0  0  0  0  0
   44.3058    6.6823   -5.3389 N   0  0  0  0  0  0  0  0  0  0  0  0
   45.4373    7.2049   -6.2646 C   0  0  0  0  0  0  0  0  0  0  0  0
  1  2  1  6  0  0  0
  1  9  1  0  0  0  0
  1 35  1  0  0  0  0
  3  4  1  6  0  0  0
  3 11  1  0  0  0  0
  3 45  1  0  0  0  0
  5  6  1  0  0  0  0
  5 12  1  0  0  0  0
  5 37  1  6  0  0  0
  6 30  1  0  0  0  0
  7 14  1  0  0  0  0
  7 41  1  0  0  0  0
  7 23  1  6  0  0  0
  8 16  2  0  0  0  0
  8 42  1  0  0  0  0
  9 10  1  6  0  0  0
  9 18  1  0  0  0  0
 11 20  1  0  0  0  0
 12 13  1  1  0  0  0
 12 22  1  0  0  0  0
 13 47  1  0  0  0  0
 14 15  1  1  0  0  0
 14 24  1  0  0  0  0
 16 17  1  0  0  0  0
 17 26  2  0  0  0  0
 18 19  1  1  0  0  0
 18 27  1  0  0  0  0
 20 21  1  6  0  0  0
 20 29  1  0  0  0  0
 22 23  1  1  0  0  0
 22 30  1  0  0  0  0
 24 25  1  6  0  0  0
 24 31  1  0  0  0  0
 26 33  1  0  0  0  0
 27 28  1  6  0  0  0
 27 34  1  0  0  0  0
 29  2  1  1  0  0  0
 29 36  1  0  0  0  0
 30 38  1  6  0  0  0
 31 32  1  6  0  0  0
 31 40  1  0  0  0  0
 33 42  2  0  0  0  0
 34 35  1  0  0  0  0
 34 43  1  1  0  0  0
 36 37  1  1  0  0  0
 36 45  1  0  0  0  0
 38 39  1  0  0  0  0
 40 41  1  0  0  0  0
 40 48  1  1  0  0  0
 43 44  1  0  0  0  0
 45 46  1  1  0  0  0
 47 50  1  0  0  0  0
 48 49  1  0  0  0  0
 50 51  1  0  0  0  0
 51 52  1  0  0  0  0
 52  8  1  0  0  0  0
M  END
>  <CHROM.1>
-178.20293381,-160.01736898,-175.60253770,164.54726247,-56.35477416,-130.19920872
-165.14460854,-178.93414626,-175.01744667,147.14632881,65.83884237,-55.77839315
-139.43654247,-69.88142075,151.16690020,40.75775658,4.58550229,-4.50547446
1.71527092,-1.00556904,-2.38779206

>  <Name>
2be0_lig

>  <RI>
2.75444e+07

>  <Rbt.Current_Directory>
/home/itssahil/PROJECTS/Mol_Feturizer/New_Systems/rnas/2be0

>  <Rbt.Executable>
rbdock ($Id: //depot/dev/client3/rdock/2013.1/src/exe/rbdock.cxx#4 $)

>  <Rbt.Library>
libRbt.so (2013.1, Build901 2013/11/27)

>  <Rbt.Parameter_File>
/export/apps/rDock/src/rDock_2013.1_src/data/scripts/dock_solv.prm

>  <Rbt.Receptor>
prm/pocket_docking_5.prm

>  <SCORE>
-21.1954

>  <SCORE.INTER>
-7.48831

>  <SCORE.INTER.CONST>
1

>  <SCORE.INTER.POLAR>
0

>  <SCORE.INTER.ROT>
15

>  <SCORE.INTER.SOLV>
13.7934

>  <SCORE.INTER.VDW>
-23.19

>  <SCORE.INTER.norm>
-0.144006

>  <SCORE.INTRA>
-13.7071

>  <SCORE.INTRA.DIHEDRAL>
-30.5683

>  <SCORE.INTRA.DIHEDRAL.0>
47.8724

>  <SCORE.INTRA.POLAR>
0

>  <SCORE.INTRA.POLAR.0>
0

>  <SCORE.INTRA.REPUL>
0

>  <SCORE.INTRA.REPUL.0>
0

>  <SCORE.INTRA.SOLV>
0.796658

>  <SCORE.INTRA.SOLV.lig_0>
-115.677

>  <SCORE.INTRA.VDW>
1.17873

>  <SCORE.INTRA.VDW.0>
-7.4833

>  <SCORE.INTRA.norm>
-0.263598

>  <SCORE.RESTR>
0

>  <SCORE.RESTR.CAVITY>
0

>  <SCORE.RESTR.norm>
0

>  <SCORE.SYSTEM>
0

>  <SCORE.SYSTEM.CONST>
0

>  <SCORE.SYSTEM.DIHEDRAL>
0

>  <SCORE.SYSTEM.SOLV>
0

>  <SCORE.SYSTEM.norm>
0

>  <SCORE.heavy>
52

>  <SCORE.norm>
-0.407604

>  <RMSD>
8.373

$$$$
2be0_lig
 OpenBabel11021811423D
libRbt.so/2013.1/901 2013/11/27
 52 56  0  0  0  0  0  0  0  0999 V2000
   47.9176    3.7838   -5.0495 C   0  0  2  0  0  0  0  0  0  0  0  0
   47.2004    4.8791   -4.5310 O   0  0  0  0  0  0  0  0  0  0  0  0
   42.9998    6.1152   -4.0859 C   0  0  2  0  0  0  0  0  0  0  0  0
   41.5414    6.2306   -4.3671 N   0  0  0  0  0  0  0  0  0  0  0  0
   45.0969    2.5776   -2.0098 C   0  0  2  0  0  0  0  0  0  0  0  0
   46.1474    1.6676   -1.6243 O   0  0  0  0  0  0  0  0  0  0  0  0
   42.4299   -0.8769   -3.4395 C   0  0  1  0  0  0  0  0  0  0  0  0
   40.7080    5.1422    2.4376 C   0  0  0  0  0  0  0  0  0  0  0  0
   49.4146    3.7835   -4.5350 C   0  0  2  0  0  0  0  0  0  0  0  0
   49.4356    3.8372   -3.0717 N   0  0  0  0  0  0  0  0  0  0  0  0
   43.8191    6.5801   -5.3746 C   0  0  0  0  0  0  0  0  0  0  0  0
   43.8007    1.7543   -2.0783 C   0  0  2  0  0  0  0  0  0  0  0  0
   43.3093    1.7578   -0.6656 O   0  0  0  0  0  0  0  0  0  0  0  0
   41.1263   -0.3926   -2.5985 C   0  0  2  0  0  0  0  0  0  0  0  0
   41.0183   -1.2259   -1.3577 N   0  0  0  0  0  0  0  0  0  0  0  0
   42.0232    5.7058    2.3506 C   0  0  0  0  0  0  0  0  0  0  0  0
   42.5094    6.5227    3.4048 N   0  0  0  0  0  0  0  0  0  0  0  0
   50.2082    5.0071   -5.1899 C   0  0  1  0  0  0  0  0  0  0  0  0
   51.5439    4.9933   -4.7106 O   0  0  0  0  0  0  0  0  0  0  0  0
   45.4269    6.4549   -5.1117 C   0  0  2  0  0  0  0  0  0  0  0  0
   46.1756    6.8725   -6.2634 N   0  0  0  0  0  0  0  0  0  0  0  0
   44.3753    0.4605   -2.6856 C   0  0  2  0  0  0  0  0  0  0  0  0
   43.5761   -0.7090   -2.5859 O   0  0  0  0  0  0  0  0  0  0  0  0
   39.8739   -0.5816   -3.5067 C   0  0  1  0  0  0  0  0  0  0  0  0
   40.0799    0.2884   -4.6763 O   0  0  0  0  0  0  0  0  0  0  0  0
   41.7459    6.8219    4.5691 C   0  0  0  0  0  0  0  0  0  0  0  0
   50.1469    4.8650   -6.7386 C   0  0  2  0  0  0  0  0  0  0  0  0
   50.8655    5.9781   -7.4047 O   0  0  0  0  0  0  0  0  0  0  0  0
   45.7974    4.9572   -4.7523 C   0  0  2  0  0  0  0  0  0  0  0  0
   45.7606    0.3322   -2.0085 C   0  0  1  0  0  0  0  0  0  0  0  0
   39.7386   -2.1407   -3.9502 C   0  0  2  0  0  0  0  0  0  0  0  0
   39.5328   -3.0164   -2.7861 O   0  0  0  0  0  0  0  0  0  0  0  0
   40.4397    6.2922    4.7114 C   0  0  0  0  0  0  0  0  0  0  0  0
   48.6487    4.8668   -7.2315 C   0  0  2  0  0  0  0  0  0  0  0  0
   48.0003    3.7616   -6.5438 O   0  0  0  0  0  0  0  0  0  0  0  0
   44.9606    4.5480   -3.4908 C   0  0  2  0  0  0  0  0  0  0  0  0
   45.3782    3.2089   -3.2547 O   0  0  0  0  0  0  0  0  0  0  0  0
   46.8323   -0.1839   -2.9672 C   0  0  0  0  0  0  0  0  0  0  0  0
   46.5432   -1.4096   -3.5959 O   0  0  0  0  0  0  0  0  0  0  0  0
   41.0596   -2.5878   -4.7300 C   0  0  1  0  0  0  0  0  0  0  0  0
   42.2540   -2.3437   -3.8308 O   0  0  0  0  0  0  0  0  0  0  0  0
   39.8859    5.4342    3.6384 C   0  0  0  0  0  0  0  0  0  0  0  0
   48.6543    4.7086   -8.6947 C   0  0  0  0  0  0  0  0  0  0  0  0
   47.3991    4.5426   -9.1303 O   0  0  0  0  0  0  0  0  0  0  0  0
   43.4061    4.6519   -3.7908 C   0  0  1  0  0  0  0  0  0  0  0  0
   42.6790    4.2963   -2.6610 O   0  0  0  0  0  0  0  0  0  0  0  0
   41.9651    1.3918   -0.1600 C   0  0  0  0  0  0  0  0  0  0  0  0
   40.8785   -4.0807   -5.1169 C   0  0  0  0  0  0  0  0  0  0  0  0
   39.9138   -4.2159   -6.1799 N   0  0  0  0  0  0  0  0  0  0  0  0
   41.0131    2.5311   -0.5380 C   0  0  0  0  0  0  0  0  0  0  0  0
   41.3248    3.7384    0.2940 N   0  0  0  0  0  0  0  0  0  0  0  0
   40.1845    4.2205    1.2307 C   0  0  0  0  0  0  0  0  0  0  0  0
  1  2  1  6  0  0  0
  1  9  1  0  0  0  0
  1 35  1  0  0  0  0
  3  4  1  6  0  0  0
  3 11  1  0  0  0  0
  3 45  1  0  0  0  0
  5  6  1  0  0  0  0
  5 12  1  0  0  0  0
  5 37  1  6  0  0  0
  6 30  1  0  0  0  0
  7 14  1  0  0  0  0
  7 41  1  0  0  0  0
  7 23  1  1  0  0  0
  8 16  2  0  0  0  0
  8 42  1  0  0  0  0
  9 10  1  1  0  0  0
  9 18  1  0  0  0  0
 11 20  1  0  0  0  0
 12 13  1  1  0  0  0
 12 22  1  0  0  0  0
 13 47  1  0  0  0  0
 14 15  1  1  0  0  0
 14 24  1  0  0  0  0
 16 17  1  0  0  0  0
 17 26  2  0  0  0  0
 18 19  1  1  0  0  0
 18 27  1  0  0  0  0
 20 21  1  6  0  0  0
 20 29  1  0  0  0  0
 22 23  1  1  0  0  0
 22 30  1  0  0  0  0
 24 25  1  6  0  0  0
 24 31  1  0  0  0  0
 26 33  1  0  0  0  0
 27 28  1  6  0  0  0
 27 34  1  0  0  0  0
 29  2  1  1  0  0  0
 29 36  1  0  0  0  0
 30 38  1  6  0  0  0
 31 32  1  1  0  0  0
 31 40  1  0  0  0  0
 33 42  2  0  0  0  0
 34 35  1  0  0  0  0
 34 43  1  6  0  0  0
 36 37  1  6  0  0  0
 36 45  1  0  0  0  0
 38 39  1  0  0  0  0
 40 41  1  0  0  0  0
 40 48  1  1  0  0  0
 43 44  1  0  0  0  0
 45 46  1  1  0  0  0
 47 50  1  0  0  0  0
 48 49  1  0  0  0  0
 50 51  1  0  0  0  0
 51 52  1  0  0  0  0
 52  8  1  0  0  0  0
M  END
>  <CHROM.1>
-172.45637523,-146.07538818,-96.46316367,164.98655112,-73.70612709,75.44260403
-138.08231034,-171.86749184,172.53522055,164.76936043,72.39122239,-70.77337741
-117.65217460,159.58712443,15.98909250,44.22129462,2.67985270,-3.07667111
0.03882696,-0.69142069,-2.48085460

>  <Name>
2be0_lig

>  <RI>
2.75444e+07

>  <Rbt.Current_Directory>
/home/itssahil/PROJECTS/Mol_Feturizer/New_Systems/rnas/2be0

>  <Rbt.Executable>
rbdock ($Id: //depot/dev/client3/rdock/2013.1/src/exe/rbdock.cxx#4 $)

>  <Rbt.Library>
libRbt.so (2013.1, Build901 2013/11/27)

>  <Rbt.Parameter_File>
/export/apps/rDock/src/rDock_2013.1_src/data/scripts/dock_solv.prm

>  <Rbt.Receptor>
prm/pocket_docking_5.prm

>  <SCORE>
-17.588

>  <SCORE.INTER>
-5.98525

>  <SCORE.INTER.CONST>
1

>  <SCORE.INTER.POLAR>
0

>  <SCORE.INTER.ROT>
15

>  <SCORE.INTER.SOLV>
21.1042

>  <SCORE.INTER.VDW>
-24.6249

>  <SCORE.INTER.norm>
-0.115101

>  <SCORE.INTRA>
-11.6027

>  <SCORE.INTRA.DIHEDRAL>
-24.6237

>  <SCORE.INTRA.DIHEDRAL.0>
47.8724

>  <SCORE.INTRA.POLAR>
0

>  <SCORE.INTRA.POLAR.0>
0

>  <SCORE.INTRA.REPUL>
0

>  <SCORE.INTRA.REPUL.0>
0

>  <SCORE.INTRA.SOLV>
0.602896

>  <SCORE.INTRA.SOLV.lig_0>
-115.677

>  <SCORE.INTRA.VDW>
0.40772

>  <SCORE.INTRA.VDW.0>
-7.4833

>  <SCORE.INTRA.norm>
-0.223129

>  <SCORE.RESTR>
0

>  <SCORE.RESTR.CAVITY>
0

>  <SCORE.RESTR.norm>
0

>  <SCORE.SYSTEM>
0

>  <SCORE.SYSTEM.CONST>
0

>  <SCORE.SYSTEM.DIHEDRAL>
0

>  <SCORE.SYSTEM.SOLV>
0

>  <SCORE.SYSTEM.norm>
0

>  <SCORE.heavy>
52

>  <SCORE.norm>
-0.33823

>  <RMSD>
8.382

$$$$
2be0_lig
 OpenBabel11021811423D
libRbt.so/2013.1/901 2013/11/27
 52 56  0  0  0  0  0  0  0  0999 V2000
   46.8991    1.6272   -6.1483 C   0  0  2  0  0  0  0  0  0  0  0  0
   46.8183    2.7531   -5.3064 O   0  0  0  0  0  0  0  0  0  0  0  0
   46.2624    6.9758   -6.4157 C   0  0  2  0  0  0  0  0  0  0  0  0
   45.6258    8.1985   -6.9807 N   0  0  0  0  0  0  0  0  0  0  0  0
   44.4780    5.2246   -2.8397 C   0  0  2  0  0  0  0  0  0  0  0  0
   44.3623    4.6484   -1.5225 O   0  0  0  0  0  0  0  0  0  0  0  0
   40.4545    2.7265   -2.2364 C   0  0  1  0  0  0  0  0  0  0  0  0
   42.1111   10.4382    0.3384 C   0  0  0  0  0  0  0  0  0  0  0  0
   46.3207    0.3368   -5.4370 C   0  0  2  0  0  0  0  0  0  0  0  0
   44.9594    0.5992   -4.9653 N   0  0  0  0  0  0  0  0  0  0  0  0
   46.3944    5.8764   -7.5655 C   0  0  0  0  0  0  0  0  0  0  0  0
   43.0515    5.3364   -3.4012 C   0  0  2  0  0  0  0  0  0  0  0  0
   42.5621    6.6400   -2.8549 O   0  0  0  0  0  0  0  0  0  0  0  0
   38.8629    2.7997   -2.5570 C   0  0  2  0  0  0  0  0  0  0  0  0
   38.3162    4.0733   -1.9870 N   0  0  0  0  0  0  0  0  0  0  0  0
   43.1921    9.6055    0.7776 C   0  0  0  0  0  0  0  0  0  0  0  0
   44.5098   10.1313    0.8265 N   0  0  0  0  0  0  0  0  0  0  0  0
   47.2925   -0.1013   -4.2456 C   0  0  1  0  0  0  0  0  0  0  0  0
   46.7529   -1.2536   -3.6170 O   0  0  0  0  0  0  0  0  0  0  0  0
   47.0768    4.5111   -6.9821 C   0  0  2  0  0  0  0  0  0  0  0  0
   47.2033    3.5144   -8.0077 N   0  0  0  0  0  0  0  0  0  0  0  0
   42.4792    4.0146   -2.8553 C   0  0  2  0  0  0  0  0  0  0  0  0
   41.0654    3.8825   -2.8374 O   0  0  0  0  0  0  0  0  0  0  0  0
   38.1851    1.5597   -1.8999 C   0  0  1  0  0  0  0  0  0  0  0  0
   38.7822    0.3771   -2.5421 O   0  0  0  0  0  0  0  0  0  0  0  0
   44.8251   11.4691    0.4537 C   0  0  0  0  0  0  0  0  0  0  0  0
   48.7075   -0.3716   -4.8346 C   0  0  2  0  0  0  0  0  0  0  0  0
   49.6580   -0.7796   -3.7720 O   0  0  0  0  0  0  0  0  0  0  0  0
   46.2018    3.9396   -5.7916 C   0  0  2  0  0  0  0  0  0  0  0  0
   43.1377    3.8887   -1.4608 C   0  0  1  0  0  0  0  0  0  0  0  0
   38.4602    1.5597   -0.2967 C   0  0  2  0  0  0  0  0  0  0  0  0
   37.8665    2.7392    0.3520 O   0  0  0  0  0  0  0  0  0  0  0  0
   43.7978   12.3391    0.0125 C   0  0  0  0  0  0  0  0  0  0  0  0
   49.2662    0.9243   -5.5389 C   0  0  2  0  0  0  0  0  0  0  0  0
   48.2936    1.2742   -6.5618 O   0  0  0  0  0  0  0  0  0  0  0  0
   46.0946    5.0584   -4.6980 C   0  0  2  0  0  0  0  0  0  0  0  0
   45.3098    4.4382   -3.6866 O   0  0  0  0  0  0  0  0  0  0  0  0
   43.5230    2.4487   -1.1260 C   0  0  0  0  0  0  0  0  0  0  0  0
   44.5669    1.9058   -1.8986 O   0  0  0  0  0  0  0  0  0  0  0  0
   40.0350    1.5363   -0.0279 C   0  0  1  0  0  0  0  0  0  0  0  0
   40.6586    2.7298   -0.7218 O   0  0  0  0  0  0  0  0  0  0  0  0
   42.4055   11.8381   -0.0573 C   0  0  0  0  0  0  0  0  0  0  0  0
   50.5912    0.6022   -6.0925 C   0  0  0  0  0  0  0  0  0  0  0  0
   50.4547   -0.2746   -7.0952 O   0  0  0  0  0  0  0  0  0  0  0  0
   45.4008    6.3567   -5.2898 C   0  0  1  0  0  0  0  0  0  0  0  0
   45.3226    7.3415   -4.3122 O   0  0  0  0  0  0  0  0  0  0  0  0
   42.1987    6.9714   -1.4568 C   0  0  0  0  0  0  0  0  0  0  0  0
   40.2358    1.5487    1.5120 C   0  0  0  0  0  0  0  0  0  0  0  0
   39.5648    0.4268    2.1201 N   0  0  0  0  0  0  0  0  0  0  0  0
   41.0970    8.0345   -1.5148 C   0  0  0  0  0  0  0  0  0  0  0  0
   40.6090    8.3232   -0.1273 N   0  0  0  0  0  0  0  0  0  0  0  0
   40.6304    9.8172    0.2944 C   0  0  0  0  0  0  0  0  0  0  0  0
  1  2  1  1  0  0  0
  1  9  1  0  0  0  0
  1 35  1  0  0  0  0
  3  4  1  6  0  0  0
  3 11  1  0  0  0  0
  3 45  1  0  0  0  0
  5  6  1  0  0  0  0
  5 12  1  0  0  0  0
  5 37  1  6  0  0  0
  6 30  1  0  0  0  0
  7 14  1  0  0  0  0
  7 41  1  0  0  0  0
  7 23  1  6  0  0  0
  8 16  2  0  0  0  0
  8 42  1  0  0  0  0
  9 10  1  1  0  0  0
  9 18  1  0  0  0  0
 11 20  1  0  0  0  0
 12 13  1  1  0  0  0
 12 22  1  0  0  0  0
 13 47  1  0  0  0  0
 14 15  1  1  0  0  0
 14 24  1  0  0  0  0
 16 17  1  0  0  0  0
 17 26  2  0  0  0  0
 18 19  1  6  0  0  0
 18 27  1  0  0  0  0
 20 21  1  6  0  0  0
 20 29  1  0  0  0  0
 22 23  1  1  0  0  0
 22 30  1  0  0  0  0
 24 25  1  6  0  0  0
 24 31  1  0  0  0  0
 26 33  1  0  0  0  0
 27 28  1  1  0  0  0
 27 34  1  0  0  0  0
 29  2  1  1  0  0  0
 29 36  1  0  0  0  0
 30 38  1  6  0  0  0
 31 32  1  6  0  0  0
 31 40  1  0  0  0  0
 33 42  2  0  0  0  0
 34 35  1  0  0  0  0
 34 43  1  6  0  0  0
 36 37  1  1  0  0  0
 36 45  1  0  0  0  0
 38 39  1  0  0  0  0
 40 41  1  0  0  0  0
 40 48  1  1  0  0  0
 43 44  1  0  0  0  0
 45 46  1  1  0  0  0
 47 50  1  0  0  0  0
 48 49  1  0  0  0  0
 50 51  1  0  0  0  0
 51 52  1  0  0  0  0
 52  8  1  0  0  0  0
M  END
>  <CHROM.1>
-127.75918777,-148.12450086,-172.80734123,-71.23345085,-149.03725084,-174.62819077
-65.16362446,-48.20026728,67.58698966,-151.02831471,57.55877512,175.23950923
126.32437095,-63.52027866,-36.00439954,43.92445942,4.15508422,-2.95739444
-0.63499317,0.58137989,0.14303448

>  <Name>
2be0_lig

>  <RI>
0

>  <Rbt.Current_Directory>
/home/itssahil/PROJECTS/Mol_Feturizer/New_Systems/rnas/2be0

>  <Rbt.Executable>
rbdock ($Id: //depot/dev/client3/rdock/2013.1/src/exe/rbdock.cxx#4 $)

>  <Rbt.Library>
libRbt.so (2013.1, Build901 2013/11/27)

>  <Rbt.Parameter_File>
/export/apps/rDock/src/rDock_2013.1_src/data/scripts/dock_solv.prm

>  <Rbt.Receptor>
prm/pocket_docking_7.prm

>  <SCORE>
-16.6737

>  <SCORE.INTER>
-8.247

>  <SCORE.INTER.CONST>
1

>  <SCORE.INTER.POLAR>
-1.72861

>  <SCORE.INTER.ROT>
15

>  <SCORE.INTER.SOLV>
14.1006

>  <SCORE.INTER.VDW>
-18.0362

>  <SCORE.INTER.norm>
-0.158596

>  <SCORE.INTRA>
-8.42666

>  <SCORE.INTRA.DIHEDRAL>
-25.5886

>  <SCORE.INTRA.DIHEDRAL.0>
47.8724

>  <SCORE.INTRA.POLAR>
0

>  <SCORE.INTRA.POLAR.0>
0

>  <SCORE.INTRA.REPUL>
0.0262582

>  <SCORE.INTRA.REPUL.0>
0

>  <SCORE.INTRA.SOLV>
0.185974

>  <SCORE.INTRA.SOLV.lig_0>
-115.677

>  <SCORE.INTRA.VDW>
4.14335

>  <SCORE.INTRA.VDW.0>
-7.4833

>  <SCORE.INTRA.norm>
-0.162051

>  <SCORE.RESTR>
0

>  <SCORE.RESTR.CAVITY>
0

>  <SCORE.RESTR.norm>
0

>  <SCORE.SYSTEM>
0

>  <SCORE.SYSTEM.CONST>
0

>  <SCORE.SYSTEM.DIHEDRAL>
0

>  <SCORE.SYSTEM.SOLV>
0

>  <SCORE.SYSTEM.norm>
0

>  <SCORE.heavy>
52

>  <SCORE.norm>
-0.320647

>  <RMSD>
8.385

$$$$
2be0_lig
 OpenBabel11021811423D
libRbt.so/2013.1/901 2013/11/27
 52 56  0  0  0  0  0  0  0  0999 V2000
   40.6592    8.7531   -1.2296 C   0  0  2  0  0  0  0  0  0  0  0  0
   41.1710    8.0825   -0.1022 O   0  0  0  0  0  0  0  0  0  0  0  0
   40.3161    4.2810    1.9444 C   0  0  2  0  0  0  0  0  0  0  0  0
   39.5350    3.1764    2.5683 N   0  0  0  0  0  0  0  0  0  0  0  0
   40.7849    4.8117   -2.5371 C   0  0  2  0  0  0  0  0  0  0  0  0
   42.1776    4.4371   -2.5148 O   0  0  0  0  0  0  0  0  0  0  0  0
   43.3886    6.8258   -5.9764 C   0  0  1  0  0  0  0  0  0  0  0  0
   41.5953   -0.4627   -2.1895 C   0  0  0  0  0  0  0  0  0  0  0  0
   41.5885    9.9648   -1.6467 C   0  0  2  0  0  0  0  0  0  0  0  0
   42.9615    9.4929   -1.8389 N   0  0  0  0  0  0  0  0  0  0  0  0
   39.9405    5.6567    2.6619 C   0  0  0  0  0  0  0  0  0  0  0  0
   40.4783    5.2923   -3.9645 C   0  0  2  0  0  0  0  0  0  0  0  0
   40.1679    4.0274   -4.7001 O   0  0  0  0  0  0  0  0  0  0  0  0
   43.2958    7.3302   -7.5186 C   0  0  2  0  0  0  0  0  0  0  0  0
   42.8722    6.1769   -8.3766 N   0  0  0  0  0  0  0  0  0  0  0  0
   40.5865   -0.6309   -1.1851 C   0  0  0  0  0  0  0  0  0  0  0  0
   40.1768   -1.9378   -0.8117 N   0  0  0  0  0  0  0  0  0  0  0  0
   41.5008   11.1152   -0.5400 C   0  0  1  0  0  0  0  0  0  0  0  0
   42.3457   12.1873   -0.9285 O   0  0  0  0  0  0  0  0  0  0  0  0
   40.7674    6.8986    1.9957 C   0  0  2  0  0  0  0  0  0  0  0  0
   40.4400    8.1423    2.6341 N   0  0  0  0  0  0  0  0  0  0  0  0
   41.7947    6.0399   -4.2492 C   0  0  2  0  0  0  0  0  0  0  0  0
   42.0860    6.3392   -5.6065 O   0  0  0  0  0  0  0  0  0  0  0  0
   44.7047    7.8480   -7.9380 C   0  0  1  0  0  0  0  0  0  0  0  0
   45.0078    8.9802   -7.0471 O   0  0  0  0  0  0  0  0  0  0  0  0
   40.7229   -3.1173   -1.3934 C   0  0  0  0  0  0  0  0  0  0  0  0
   40.0166   11.5650   -0.4099 C   0  0  2  0  0  0  0  0  0  0  0  0
   39.8706   12.6324    0.6092 O   0  0  0  0  0  0  0  0  0  0  0  0
   40.4399    6.9938    0.4487 C   0  0  2  0  0  0  0  0  0  0  0  0
   42.8629    5.1587   -3.5590 C   0  0  1  0  0  0  0  0  0  0  0  0
   45.8048    6.6610   -7.7754 C   0  0  2  0  0  0  0  0  0  0  0  0
   45.5079    5.5257   -8.6627 O   0  0  0  0  0  0  0  0  0  0  0  0
   41.7241   -3.0137   -2.3904 C   0  0  0  0  0  0  0  0  0  0  0  0
   39.1072   10.3451    0.0054 C   0  0  2  0  0  0  0  0  0  0  0  0
   39.2961    9.3366   -1.0251 O   0  0  0  0  0  0  0  0  0  0  0  0
   40.8156    5.6184   -0.2042 C   0  0  2  0  0  0  0  0  0  0  0  0
   40.4962    5.8213   -1.5754 O   0  0  0  0  0  0  0  0  0  0  0  0
   43.9553    5.9874   -2.8851 C   0  0  0  0  0  0  0  0  0  0  0  0
   44.6396    5.3476   -1.8345 O   0  0  0  0  0  0  0  0  0  0  0  0
   45.8282    6.1627   -6.2575 C   0  0  1  0  0  0  0  0  0  0  0  0
   44.4322    5.7136   -5.8777 O   0  0  0  0  0  0  0  0  0  0  0  0
   42.1855   -1.6720   -2.8159 C   0  0  0  0  0  0  0  0  0  0  0  0
   37.7186   10.8253    0.0912 C   0  0  0  0  0  0  0  0  0  0  0  0
   36.9675    9.9092    0.7154 O   0  0  0  0  0  0  0  0  0  0  0  0
   39.9733    4.4406    0.4443 C   0  0  1  0  0  0  0  0  0  0  0  0
   40.3249    3.2284   -0.1372 O   0  0  0  0  0  0  0  0  0  0  0  0
   39.1727    2.9850   -4.3549 C   0  0  0  0  0  0  0  0  0  0  0  0
   46.8837    5.0273   -6.1656 C   0  0  0  0  0  0  0  0  0  0  0  0
   46.4122    3.8408   -6.8356 N   0  0  0  0  0  0  0  0  0  0  0  0
   39.7936    2.1101   -3.2611 C   0  0  0  0  0  0  0  0  0  0  0  0
   41.1509    1.6504   -3.7006 N   0  0  0  0  0  0  0  0  0  0  0  0
   42.0403    1.0276   -2.5911 C   0  0  0  0  0  0  0  0  0  0  0  0
  1  2  1  1  0  0  0
  1  9  1  0  0  0  0
  1 35  1  0  0  0  0
  3  4  1  1  0  0  0
  3 11  1  0  0  0  0
  3 45  1  0  0  0  0
  5  6  1  0  0  0  0
  5 12  1  0  0  0  0
  5 37  1  1  0  0  0
  6 30  1  0  0  0  0
  7 14  1  0  0  0  0
  7 41  1  0  0  0  0
  7 23  1  6  0  0  0
  8 16  2  0  0  0  0
  8 42  1  0  0  0  0
  9 10  1  1  0  0  0
  9 18  1  0  0  0  0
 11 20  1  0  0  0  0
 12 13  1  6  0  0  0
 12 22  1  0  0  0  0
 13 47  1  0  0  0  0
 14 15  1  6  0  0  0
 14 24  1  0  0  0  0
 16 17  1  0  0  0  0
 17 26  2  0  0  0  0
 18 19  1  6  0  0  0
 18 27  1  0  0  0  0
 20 21  1  1  0  0  0
 20 29  1  0  0  0  0
 22 23  1  6  0  0  0
 22 30  1  0  0  0  0
 24 25  1  1  0  0  0
 24 31  1  0  0  0  0
 26 33  1  0  0  0  0
 27 28  1  1  0  0  0
 27 34  1  0  0  0  0
 29  2  1  6  0  0  0
 29 36  1  0  0  0  0
 30 38  1  1  0  0  0
 31 32  1  6  0  0  0
 31 40  1  0  0  0  0
 33 42  2  0  0  0  0
 34 35  1  0  0  0  0
 34 43  1  6  0  0  0
 36 37  1  6  0  0  0
 36 45  1  0  0  0  0
 38 39  1  0  0  0  0
 40 41  1  0  0  0  0
 40 48  1  6  0  0  0
 43 44  1  0  0  0  0
 45 46  1  6  0  0  0
 47 50  1  0  0  0  0
 48 49  1  0  0  0  0
 50 51  1  0  0  0  0
 51 52  1  0  0  0  0
 52  8  1  0  0  0  0
M  END
>  <CHROM.1>
177.64448320,-55.44031094,-169.36337622,54.14085880,-79.58594985,-169.37238419
-151.96671671,39.91525215,-166.63703979,175.68652886,-70.87518288,-51.63064528
166.73593219,75.39432551,-86.93234841,41.70341769,5.71430093,-2.52134775
-2.03902887,-0.99202994,-3.09820403

>  <Name>
2be0_lig

>  <RI>
0

>  <Rbt.Current_Directory>
/home/itssahil/PROJECTS/Mol_Feturizer/New_Systems/rnas/2be0

>  <Rbt.Executable>
rbdock ($Id: //depot/dev/client3/rdock/2013.1/src/exe/rbdock.cxx#4 $)

>  <Rbt.Library>
libRbt.so (2013.1, Build901 2013/11/27)

>  <Rbt.Parameter_File>
/export/apps/rDock/src/rDock_2013.1_src/data/scripts/dock_solv.prm

>  <Rbt.Receptor>
prm/pocket_docking_6.prm

>  <SCORE>
-29.9098

>  <SCORE.INTER>
-12.823

>  <SCORE.INTER.CONST>
1

>  <SCORE.INTER.POLAR>
-1.78814

>  <SCORE.INTER.ROT>
15

>  <SCORE.INTER.SOLV>
14.3282

>  <SCORE.INTER.VDW>
-20.9643

>  <SCORE.INTER.norm>
-0.246596

>  <SCORE.INTRA>
-17.0868

>  <SCORE.INTRA.DIHEDRAL>
-37.354

>  <SCORE.INTRA.DIHEDRAL.0>
47.8724

>  <SCORE.INTRA.POLAR>
0

>  <SCORE.INTRA.POLAR.0>
0

>  <SCORE.INTRA.REPUL>
0

>  <SCORE.INTRA.REPUL.0>
0

>  <SCORE.INTRA.SOLV>
0.726038

>  <SCORE.INTRA.SOLV.lig_0>
-115.677

>  <SCORE.INTRA.VDW>
1.22721

>  <SCORE.INTRA.VDW.0>
-7.4833

>  <SCORE.INTRA.norm>
-0.328592

>  <SCORE.RESTR>
0

>  <SCORE.RESTR.CAVITY>
0

>  <SCORE.RESTR.norm>
0

>  <SCORE.SYSTEM>
0

>  <SCORE.SYSTEM.CONST>
0

>  <SCORE.SYSTEM.DIHEDRAL>
0

>  <SCORE.SYSTEM.SOLV>
0

>  <SCORE.SYSTEM.norm>
0

>  <SCORE.heavy>
52

>  <SCORE.norm>
-0.575188

>  <RMSD>
8.390

$$$$
2be0_lig
 OpenBabel11021811423D
libRbt.so/2013.1/901 2013/11/27
 52 56  0  0  0  0  0  0  0  0999 V2000
   40.1748    2.5195   -3.4267 C   0  0  2  0  0  0  0  0  0  0  0  0
   39.5149    3.6307   -2.8676 O   0  0  0  0  0  0  0  0  0  0  0  0
   39.2711    5.6235    1.0490 C   0  0  2  0  0  0  0  0  0  0  0  0
   39.6391    6.0277    2.4349 N   0  0  0  0  0  0  0  0  0  0  0  0
   42.3015    5.8885   -2.0930 C   0  0  2  0  0  0  0  0  0  0  0  0
   42.7878    7.0799   -1.4416 O   0  0  0  0  0  0  0  0  0  0  0  0
   44.4722    6.6887   -5.9002 C   0  0  1  0  0  0  0  0  0  0  0  0
   42.4801   -0.9014   -3.3532 C   0  0  0  0  0  0  0  0  0  0  0  0
   40.0677    2.5240   -5.0061 C   0  0  2  0  0  0  0  0  0  0  0  0
   40.5556    3.8007   -5.5321 N   0  0  0  0  0  0  0  0  0  0  0  0
   39.1818    4.0314    0.9751 C   0  0  0  0  0  0  0  0  0  0  0  0
   43.1526    5.6968   -3.3585 C   0  0  2  0  0  0  0  0  0  0  0  0
   44.3541    4.9565   -2.8628 O   0  0  0  0  0  0  0  0  0  0  0  0
   45.9040    7.0911   -6.5553 C   0  0  2  0  0  0  0  0  0  0  0  0
   45.8921    8.5554   -6.8736 N   0  0  0  0  0  0  0  0  0  0  0  0
   41.2113   -1.5662   -3.4080 C   0  0  0  0  0  0  0  0  0  0  0  0
   41.0070   -2.6157   -4.3417 N   0  0  0  0  0  0  0  0  0  0  0  0
   38.5572    2.2351   -5.4430 C   0  0  1  0  0  0  0  0  0  0  0  0
   38.4814    2.2509   -6.8601 O   0  0  0  0  0  0  0  0  0  0  0  0
   38.7934    3.5454   -0.5357 C   0  0  2  0  0  0  0  0  0  0  0  0
   38.7077    2.1144   -0.6150 N   0  0  0  0  0  0  0  0  0  0  0  0
   43.2831    7.1725   -3.7804 C   0  0  2  0  0  0  0  0  0  0  0  0
   44.3041    7.4881   -4.7156 O   0  0  0  0  0  0  0  0  0  0  0  0
   46.0939    6.2419   -7.8484 C   0  0  1  0  0  0  0  0  0  0  0  0
   46.1065    4.8344   -7.4169 O   0  0  0  0  0  0  0  0  0  0  0  0
   42.0140   -3.0536   -5.2485 C   0  0  0  0  0  0  0  0  0  0  0  0
   38.1260    0.8601   -4.8551 C   0  0  2  0  0  0  0  0  0  0  0  0
   36.7266    0.5377   -5.2249 O   0  0  0  0  0  0  0  0  0  0  0  0
   39.8780    4.0699   -1.5643 C   0  0  2  0  0  0  0  0  0  0  0  0
   43.4163    7.9195   -2.4319 C   0  0  1  0  0  0  0  0  0  0  0  0
   44.8741    6.5278   -8.8858 C   0  0  2  0  0  0  0  0  0  0  0  0
   44.8550    7.9330   -9.3211 O   0  0  0  0  0  0  0  0  0  0  0  0
   43.2884   -2.4349   -5.2399 C   0  0  0  0  0  0  0  0  0  0  0  0
   38.2400    0.8751   -3.2821 C   0  0  2  0  0  0  0  0  0  0  0  0
   39.6263    1.1989   -2.9848 O   0  0  0  0  0  0  0  0  0  0  0  0
   39.9335    5.6324   -1.4442 C   0  0  2  0  0  0  0  0  0  0  0  0
   40.9166    5.9893   -2.4083 O   0  0  0  0  0  0  0  0  0  0  0  0
   42.6678    9.2513   -2.4270 C   0  0  0  0  0  0  0  0  0  0  0  0
   41.2973    9.1771   -2.7395 O   0  0  0  0  0  0  0  0  0  0  0  0
   43.4847    6.1651   -8.1852 C   0  0  1  0  0  0  0  0  0  0  0  0
   43.3629    6.9760   -6.9115 O   0  0  0  0  0  0  0  0  0  0  0  0
   43.5517   -1.3338   -4.2846 C   0  0  0  0  0  0  0  0  0  0  0  0
   37.8417   -0.4526   -2.7875 C   0  0  0  0  0  0  0  0  0  0  0  0
   36.5165   -0.5965   -2.9134 O   0  0  0  0  0  0  0  0  0  0  0  0
   40.3427    6.0680    0.0255 C   0  0  1  0  0  0  0  0  0  0  0  0
   40.3773    7.4543    0.1183 O   0  0  0  0  0  0  0  0  0  0  0  0
   44.6996    3.5290   -3.0611 C   0  0  0  0  0  0  0  0  0  0  0  0
   42.3616    6.4675   -9.2141 C   0  0  0  0  0  0  0  0  0  0  0  0
   42.3796    7.8591   -9.5906 N   0  0  0  0  0  0  0  0  0  0  0  0
   43.5814    2.6991   -2.4221 C   0  0  0  0  0  0  0  0  0  0  0  0
   43.8456    1.2423   -2.6557 N   0  0  0  0  0  0  0  0  0  0  0  0
   42.6834    0.2817   -2.2858 C   0  0  0  0  0  0  0  0  0  0  0  0
  1  2  1  1  0  0  0
  1  9  1  0  0  0  0
  1 35  1  0  0  0  0
  3  4  1  1  0  0  0
  3 11  1  0  0  0  0
  3 45  1  0  0  0  0
  5  6  1  0  0  0  0
  5 12  1  0  0  0  0
  5 37  1  6  0  0  0
  6 30  1  0  0  0  0
  7 14  1  0  0  0  0
  7 41  1  0  0  0  0
  7 23  1  1  0  0  0
  8 16  2  0  0  0  0
  8 42  1  0  0  0  0
  9 10  1  1  0  0  0
  9 18  1  0  0  0  0
 11 20  1  0  0  0  0
 12 13  1  1  0  0  0
 12 22  1  0  0  0  0
 13 47  1  0  0  0  0
 14 15  1  6  0  0  0
 14 24  1  0  0  0  0
 16 17  1  0  0  0  0
 17 26  2  0  0  0  0
 18 19  1  6  0  0  0
 18 27  1  0  0  0  0
 20 21  1  1  0  0  0
 20 29  1  0  0  0  0
 22 23  1  6  0  0  0
 22 30  1  0  0  0  0
 24 25  1  1  0  0  0
 24 31  1  0  0  0  0
 26 33  1  0  0  0  0
 27 28  1  1  0  0  0
 27 34  1  0  0  0  0
 29  2  1  6  0  0  0
 29 36  1  0  0  0  0
 30 38  1  6  0  0  0
 31 32  1  1  0  0  0
 31 40  1  0  0  0  0
 33 42  2  0  0  0  0
 34 35  1  0  0  0  0
 34 43  1  6  0  0  0
 36 37  1  6  0  0  0
 36 45  1  0  0  0  0
 38 39  1  0  0  0  0
 40 41  1  0  0  0  0
 40 48  1  6  0  0  0
 43 44  1  0  0  0  0
 45 46  1  6  0  0  0
 47 50  1  0  0  0  0
 48 49  1  0  0  0  0
 50 51  1  0  0  0  0
 51 52  1  0  0  0  0
 52  8  1  0  0  0  0
M  END
>  <CHROM.1>
-157.89368833,-86.26927562,-167.08112767,106.33193659,-61.02693231,47.00960785
-101.30901456,-60.27861319,-72.57824795,-81.01781328,-59.94985457,177.12430574
-169.83826900,139.16180787,-158.75026128,41.66036326,4.01503713,-3.89410421
-2.67178220,0.93998275,0.55240951

>  <Name>
2be0_lig

>  <RI>
2.75444e+07

>  <Rbt.Current_Directory>
/home/itssahil/PROJECTS/Mol_Feturizer/New_Systems/rnas/2be0

>  <Rbt.Executable>
rbdock ($Id: //depot/dev/client3/rdock/2013.1/src/exe/rbdock.cxx#4 $)

>  <Rbt.Library>
libRbt.so (2013.1, Build901 2013/11/27)

>  <Rbt.Parameter_File>
/export/apps/rDock/src/rDock_2013.1_src/data/scripts/dock_solv.prm

>  <Rbt.Receptor>
prm/pocket_docking_5.prm

>  <SCORE>
-15.1008

>  <SCORE.INTER>
-4.34014

>  <SCORE.INTER.CONST>
1

>  <SCORE.INTER.POLAR>
-0.947104

>  <SCORE.INTER.ROT>
15

>  <SCORE.INTER.SOLV>
18.5156

>  <SCORE.INTER.VDW>
-19.5083

>  <SCORE.INTER.norm>
-0.0834643

>  <SCORE.INTRA>
-10.7606

>  <SCORE.INTRA.DIHEDRAL>
-25.2561

>  <SCORE.INTRA.DIHEDRAL.0>
47.8724

>  <SCORE.INTRA.POLAR>
0

>  <SCORE.INTRA.POLAR.0>
0

>  <SCORE.INTRA.REPUL>
0

>  <SCORE.INTRA.REPUL.0>
0

>  <SCORE.INTRA.SOLV>
3.07113

>  <SCORE.INTRA.SOLV.lig_0>
-115.677

>  <SCORE.INTRA.VDW>
0.331851

>  <SCORE.INTRA.VDW.0>
-7.4833

>  <SCORE.INTRA.norm>
-0.206935

>  <SCORE.RESTR>
0

>  <SCORE.RESTR.CAVITY>
0

>  <SCORE.RESTR.norm>
0

>  <SCORE.SYSTEM>
0

>  <SCORE.SYSTEM.CONST>
0

>  <SCORE.SYSTEM.DIHEDRAL>
0

>  <SCORE.SYSTEM.SOLV>
0

>  <SCORE.SYSTEM.norm>
0

>  <SCORE.heavy>
52

>  <SCORE.norm>
-0.290399

>  <RMSD>
8.394

$$$$
2be0_lig
 OpenBabel11021811423D
libRbt.so/2013.1/901 2013/11/27
 52 56  0  0  0  0  0  0  0  0999 V2000
   40.5515    4.6125   -6.9833 C   0  0  2  0  0  0  0  0  0  0  0  0
   41.8562    5.1386   -6.9222 O   0  0  0  0  0  0  0  0  0  0  0  0
   43.9862    8.1055   -9.3783 C   0  0  2  0  0  0  0  0  0  0  0  0
   44.2500    9.3638  -10.1309 N   0  0  0  0  0  0  0  0  0  0  0  0
   44.0077    6.6475   -4.7132 C   0  0  2  0  0  0  0  0  0  0  0  0
   45.3864    7.0554   -4.8275 O   0  0  0  0  0  0  0  0  0  0  0  0
   46.7836    3.2659   -5.3017 C   0  0  1  0  0  0  0  0  0  0  0  0
   42.3325    5.5367    1.5427 C   0  0  0  0  0  0  0  0  0  0  0  0
   39.6681    5.1291   -5.7756 C   0  0  2  0  0  0  0  0  0  0  0  0
   39.6911    6.5928   -5.7354 N   0  0  0  0  0  0  0  0  0  0  0  0
   42.6630    7.4211   -9.9518 C   0  0  0  0  0  0  0  0  0  0  0  0
   43.9879    5.1150   -4.8301 C   0  0  2  0  0  0  0  0  0  0  0  0
   44.2583    4.6543   -3.4330 O   0  0  0  0  0  0  0  0  0  0  0  0
   48.0894    3.8870   -6.0436 C   0  0  2  0  0  0  0  0  0  0  0  0
   48.1503    3.3477   -7.4404 N   0  0  0  0  0  0  0  0  0  0  0  0
   41.0220    5.2101    1.0622 C   0  0  0  0  0  0  0  0  0  0  0  0
   39.8859    5.5110    1.8584 N   0  0  0  0  0  0  0  0  0  0  0  0
   40.1945    4.4848   -4.4105 C   0  0  1  0  0  0  0  0  0  0  0  0
   39.3952    4.9658   -3.3410 O   0  0  0  0  0  0  0  0  0  0  0  0
   42.3299    6.0417   -9.1416 C   0  0  2  0  0  0  0  0  0  0  0  0
   41.1424    5.4148   -9.6497 N   0  0  0  0  0  0  0  0  0  0  0  0
   45.0695    4.9476   -5.9141 C   0  0  2  0  0  0  0  0  0  0  0  0
   45.6305    3.6525   -6.0708 O   0  0  0  0  0  0  0  0  0  0  0  0
   49.3488    3.4645   -5.2283 C   0  0  1  0  0  0  0  0  0  0  0  0
   49.1900    4.0582   -3.8906 O   0  0  0  0  0  0  0  0  0  0  0  0
   39.9775    6.1312    3.1371 C   0  0  0  0  0  0  0  0  0  0  0  0
   40.1242    2.9350   -4.5349 C   0  0  2  0  0  0  0  0  0  0  0  0
   40.6056    2.2786   -3.2953 O   0  0  0  0  0  0  0  0  0  0  0  0
   42.1463    6.3552   -7.5997 C   0  0  2  0  0  0  0  0  0  0  0  0
   46.1055    6.0400   -5.5573 C   0  0  1  0  0  0  0  0  0  0  0  0
   49.4389    1.8425   -5.1447 C   0  0  2  0  0  0  0  0  0  0  0  0
   49.5974    1.2421   -6.4784 O   0  0  0  0  0  0  0  0  0  0  0  0
   41.2461    6.4781    3.6636 C   0  0  0  0  0  0  0  0  0  0  0  0
   41.0095    2.4401   -5.7427 C   0  0  2  0  0  0  0  0  0  0  0  0
   40.4932    3.1183   -6.9210 O   0  0  0  0  0  0  0  0  0  0  0  0
   43.4650    7.0338   -7.0903 C   0  0  2  0  0  0  0  0  0  0  0  0
   43.1946    7.2556   -5.7115 O   0  0  0  0  0  0  0  0  0  0  0  0
   46.6927    6.7134   -6.7966 C   0  0  0  0  0  0  0  0  0  0  0  0
   47.0703    5.8437   -7.8369 O   0  0  0  0  0  0  0  0  0  0  0  0
   48.1160    1.2718   -4.4540 C   0  0  1  0  0  0  0  0  0  0  0  0
   46.9166    1.7443   -5.2496 O   0  0  0  0  0  0  0  0  0  0  0  0
   42.4631    6.1843    2.8718 C   0  0  0  0  0  0  0  0  0  0  0  0
   40.8864    0.9757   -5.8229 C   0  0  0  0  0  0  0  0  0  0  0  0
   41.6663    0.5157   -6.8092 O   0  0  0  0  0  0  0  0  0  0  0  0
   43.7411    8.3841   -7.8764 C   0  0  1  0  0  0  0  0  0  0  0  0
   44.9175    8.9674   -7.4209 O   0  0  0  0  0  0  0  0  0  0  0  0
   43.8773    3.3697   -2.7998 C   0  0  0  0  0  0  0  0  0  0  0  0
   48.2533   -0.2744   -4.4120 C   0  0  0  0  0  0  0  0  0  0  0  0
   49.5553   -0.6551   -3.9234 N   0  0  0  0  0  0  0  0  0  0  0  0
   44.1005    3.5240   -1.2919 C   0  0  0  0  0  0  0  0  0  0  0  0
   43.2033    4.6016   -0.7625 N   0  0  0  0  0  0  0  0  0  0  0  0
   43.5998    5.1860    0.6200 C   0  0  0  0  0  0  0  0  0  0  0  0
  1  2  1  1  0  0  0
  1  9  1  0  0  0  0
  1 35  1  0  0  0  0
  3  4  1  6  0  0  0
  3 11  1  0  0  0  0
  3 45  1  0  0  0  0
  5  6  1  0  0  0  0
  5 12  1  0  0  0  0
  5 37  1  6  0  0  0
  6 30  1  0  0  0  0
  7 14  1  0  0  0  0
  7 41  1  0  0  0  0
  7 23  1  6  0  0  0
  8 16  2  0  0  0  0
  8 42  1  0  0  0  0
  9 10  1  1  0  0  0
  9 18  1  0  0  0  0
 11 20  1  0  0  0  0
 12 13  1  1  0  0  0
 12 22  1  0  0  0  0
 13 47  1  0  0  0  0
 14 15  1  6  0  0  0
 14 24  1  0  0  0  0
 16 17  1  0  0  0  0
 17 26  2  0  0  0  0
 18 19  1  1  0  0  0
 18 27  1  0  0  0  0
 20 21  1  6  0  0  0
 20 29  1  0  0  0  0
 22 23  1  1  0  0  0
 22 30  1  0  0  0  0
 24 25  1  1  0  0  0
 24 31  1  0  0  0  0
 26 33  1  0  0  0  0
 27 28  1  1  0  0  0
 27 34  1  0  0  0  0
 29  2  1  1  0  0  0
 29 36  1  0  0  0  0
 30 38  1  6  0  0  0
 31 32  1  6  0  0  0
 31 40  1  0  0  0  0
 33 42  2  0  0  0  0
 34 35  1  0  0  0  0
 34 43  1  6  0  0  0
 36 37  1  1  0  0  0
 36 45  1  0  0  0  0
 38 39  1  0  0  0  0
 40 41  1  0  0  0  0
 40 48  1  6  0  0  0
 43 44  1  0  0  0  0
 45 46  1  1  0  0  0
 47 50  1  0  0  0  0
 48 49  1  0  0  0  0
 50 51  1  0  0  0  0
 51 52  1  0  0  0  0
 52  8  1  0  0  0  0
M  END
>  <CHROM.1>
-91.50634621,60.02602403,-80.92911203,154.73816399,-167.26014863,-89.06295919
-78.58317398,-161.14249586,-177.72076291,119.21856462,46.97573130,62.43840919
-161.77982108,-143.01045508,3.92306219,43.90071302,4.64803296,-4.82177660
2.31991825,-0.44347344,1.83995543

>  <Name>
2be0_lig

>  <RI>
0

>  <Rbt.Current_Directory>
/home/itssahil/PROJECTS/Mol_Feturizer/New_Systems/rnas/2be0

>  <Rbt.Executable>
rbdock ($Id: //depot/dev/client3/rdock/2013.1/src/exe/rbdock.cxx#4 $)

>  <Rbt.Library>
libRbt.so (2013.1, Build901 2013/11/27)

>  <Rbt.Parameter_File>
/export/apps/rDock/src/rDock_2013.1_src/data/scripts/dock_solv.prm

>  <Rbt.Receptor>
prm/pocket_docking_7.prm

>  <SCORE>
-25.5956

>  <SCORE.INTER>
-17.4342

>  <SCORE.INTER.CONST>
1

>  <SCORE.INTER.POLAR>
-1.85359

>  <SCORE.INTER.ROT>
15

>  <SCORE.INTER.SOLV>
22.9479

>  <SCORE.INTER.VDW>
-26.6934

>  <SCORE.INTER.norm>
-0.335273

>  <SCORE.INTRA>
-8.16134

>  <SCORE.INTRA.DIHEDRAL>
-22.584

>  <SCORE.INTRA.DIHEDRAL.0>
47.8724

>  <SCORE.INTRA.POLAR>
0

>  <SCORE.INTRA.POLAR.0>
0

>  <SCORE.INTRA.REPUL>
0

>  <SCORE.INTRA.REPUL.0>
0

>  <SCORE.INTRA.SOLV>
3.3104

>  <SCORE.INTRA.SOLV.lig_0>
-115.677

>  <SCORE.INTRA.VDW>
1.47545

>  <SCORE.INTRA.VDW.0>
-7.4833

>  <SCORE.INTRA.norm>
-0.156949

>  <SCORE.RESTR>
0

>  <SCORE.RESTR.CAVITY>
0

>  <SCORE.RESTR.norm>
0

>  <SCORE.SYSTEM>
0

>  <SCORE.SYSTEM.CONST>
0

>  <SCORE.SYSTEM.DIHEDRAL>
0

>  <SCORE.SYSTEM.SOLV>
0

>  <SCORE.SYSTEM.norm>
0

>  <SCORE.heavy>
52

>  <SCORE.norm>
-0.492222

>  <RMSD>
8.396

$$$$
2be0_lig
 OpenBabel11021811423D
libRbt.so/2013.1/901 2013/11/27
 52 56  0  0  0  0  0  0  0  0999 V2000
   40.6654   -2.2408   -2.2949 C   0  0  2  0  0  0  0  0  0  0  0  0
   40.3839   -1.7712   -3.5922 O   0  0  0  0  0  0  0  0  0  0  0  0
   44.4868   -1.3696   -5.1337 C   0  0  2  0  0  0  0  0  0  0  0  0
   45.6007   -1.0678   -6.0758 N   0  0  0  0  0  0  0  0  0  0  0  0
   41.0071    1.3870   -4.5633 C   0  0  2  0  0  0  0  0  0  0  0  0
   41.9381    2.0873   -5.4137 O   0  0  0  0  0  0  0  0  0  0  0  0
   39.5601    5.1555   -2.5536 C   0  0  1  0  0  0  0  0  0  0  0  0
   34.0546   -1.3313   -4.6780 C   0  0  0  0  0  0  0  0  0  0  0  0
   39.3538   -2.7580   -1.5753 C   0  0  2  0  0  0  0  0  0  0  0  0
   38.6913   -3.7601   -2.4129 N   0  0  0  0  0  0  0  0  0  0  0  0
   43.4943   -2.4172   -5.8163 C   0  0  0  0  0  0  0  0  0  0  0  0
   40.0338    2.4403   -4.0103 C   0  0  2  0  0  0  0  0  0  0  0  0
   38.9963    2.5543   -5.0817 O   0  0  0  0  0  0  0  0  0  0  0  0
   39.1267    6.7178   -2.6660 C   0  0  2  0  0  0  0  0  0  0  0  0
   40.3557    7.5670   -2.5476 N   0  0  0  0  0  0  0  0  0  0  0  0
   33.2354   -2.2009   -3.8859 C   0  0  0  0  0  0  0  0  0  0  0  0
   32.0965   -2.8171   -4.4675 N   0  0  0  0  0  0  0  0  0  0  0  0
   38.3949   -1.5204   -1.2516 C   0  0  1  0  0  0  0  0  0  0  0  0
   37.2232   -2.0056   -0.6145 O   0  0  0  0  0  0  0  0  0  0  0  0
   42.2479   -2.7648   -4.8185 C   0  0  2  0  0  0  0  0  0  0  0  0
   41.3485   -3.7084   -5.4202 N   0  0  0  0  0  0  0  0  0  0  0  0
   41.0335    3.5908   -3.7874 C   0  0  2  0  0  0  0  0  0  0  0  0
   40.4916    4.8924   -3.6183 O   0  0  0  0  0  0  0  0  0  0  0  0
   38.1270    7.0212   -1.5094 C   0  0  1  0  0  0  0  0  0  0  0  0
   36.9619    6.1499   -1.7347 O   0  0  0  0  0  0  0  0  0  0  0  0
   31.7127   -2.6136   -5.8238 C   0  0  0  0  0  0  0  0  0  0  0  0
   39.1702   -0.5155   -0.3510 C   0  0  2  0  0  0  0  0  0  0  0  0
   38.3300    0.6606   -0.0192 O   0  0  0  0  0  0  0  0  0  0  0  0
   41.4617   -1.4375   -4.4585 C   0  0  2  0  0  0  0  0  0  0  0  0
   41.9975    3.4651   -4.9911 C   0  0  1  0  0  0  0  0  0  0  0  0
   38.8257    6.7090   -0.0740 C   0  0  2  0  0  0  0  0  0  0  0  0
   39.9913    7.5761    0.1580 O   0  0  0  0  0  0  0  0  0  0  0  0
   32.4845   -1.7655   -6.6556 C   0  0  0  0  0  0  0  0  0  0  0  0
   40.4728   -0.0124   -1.0843 C   0  0  2  0  0  0  0  0  0  0  0  0
   41.2483   -1.2054   -1.3849 O   0  0  0  0  0  0  0  0  0  0  0  0
   42.4807   -0.4419   -3.8032 C   0  0  2  0  0  0  0  0  0  0  0  0
   41.6731    0.6927   -3.5137 O   0  0  0  0  0  0  0  0  0  0  0  0
   43.4485    3.7518   -4.6082 C   0  0  0  0  0  0  0  0  0  0  0  0
   43.7149    5.0680   -4.1867 O   0  0  0  0  0  0  0  0  0  0  0  0
   39.2789    5.1777   -0.0256 C   0  0  1  0  0  0  0  0  0  0  0  0
   40.2099    4.9152   -1.1914 O   0  0  0  0  0  0  0  0  0  0  0  0
   33.6826   -1.0979   -6.0958 C   0  0  0  0  0  0  0  0  0  0  0  0
   41.1718    0.9140   -0.1792 C   0  0  0  0  0  0  0  0  0  0  0  0
   42.2402    1.4260   -0.8029 O   0  0  0  0  0  0  0  0  0  0  0  0
   43.6599   -0.1030   -4.8093 C   0  0  1  0  0  0  0  0  0  0  0  0
   44.5591    0.7715   -4.2107 O   0  0  0  0  0  0  0  0  0  0  0  0
   38.1457    1.4840   -5.6539 C   0  0  0  0  0  0  0  0  0  0  0  0
   39.9461    4.9422    1.3568 C   0  0  0  0  0  0  0  0  0  0  0  0
   40.4056    3.5806    1.4730 N   0  0  0  0  0  0  0  0  0  0  0  0
   37.3975    0.8283   -4.4888 C   0  0  0  0  0  0  0  0  0  0  0  0
   36.3695   -0.1205   -5.0270 N   0  0  0  0  0  0  0  0  0  0  0  0
   35.3379   -0.6490   -3.9941 C   0  0  0  0  0  0  0  0  0  0  0  0
  1  2  1  6  0  0  0
  1  9  1  0  0  0  0
  1 35  1  0  0  0  0
  3  4  1  6  0  0  0
  3 11  1  0  0  0  0
  3 45  1  0  0  0  0
  5  6  1  0  0  0  0
  5 12  1  0  0  0  0
  5 37  1  1  0  0  0
  6 30  1  0  0  0  0
  7 14  1  0  0  0  0
  7 41  1  0  0  0  0
  7 23  1  6  0  0  0
  8 16  2  0  0  0  0
  8 42  1  0  0  0  0
  9 10  1  6  0  0  0
  9 18  1  0  0  0  0
 11 20  1  0  0  0  0
 12 13  1  6  0  0  0
 12 22  1  0  0  0  0
 13 47  1  0  0  0  0
 14 15  1  1  0  0  0
 14 24  1  0  0  0  0
 16 17  1  0  0  0  0
 17 26  2  0  0  0  0
 18 19  1  1  0  0  0
 18 27  1  0  0  0  0
 20 21  1  6  0  0  0
 20 29  1  0  0  0  0
 22 23  1  6  0  0  0
 22 30  1  0  0  0  0
 24 25  1  6  0  0  0
 24 31  1  0  0  0  0
 26 33  1  0  0  0  0
 27 28  1  6  0  0  0
 27 34  1  0  0  0  0
 29  2  1  1  0  0  0
 29 36  1  0  0  0  0
 30 38  1  1  0  0  0
 31 32  1  6  0  0  0
 31 40  1  0  0  0  0
 33 42  2  0  0  0  0
 34 35  1  0  0  0  0
 34 43  1  1  0  0  0
 36 37  1  6  0  0  0
 36 45  1  0  0  0  0
 38 39  1  0  0  0  0
 40 41  1  0  0  0  0
 40 48  1  1  0  0  0
 43 44  1  0  0  0  0
 45 46  1  1  0  0  0
 47 50  1  0  0  0  0
 48 49  1  0  0  0  0
 50 51  1  0  0  0  0
 51 52  1  0  0  0  0
 52  8  1  0  0  0  0
M  END
>  <CHROM.1>
-171.45638126,-69.14553532,-179.03419596,57.04756751,55.75860773,58.28740482
66.92259573,178.93416132,-176.15229454,-60.48991066,-179.06975608,171.52401560
-168.16891690,164.71963769,161.55953186,39.64658856,1.20777448,-3.11977540
-2.16182652,0.06480781,0.37191972

>  <Name>
2be0_lig

>  <RI>
3.37048e+07

>  <Rbt.Current_Directory>
/home/itssahil/PROJECTS/Mol_Feturizer/New_Systems/rnas/2be0

>  <Rbt.Executable>
rbdock ($Id: //depot/dev/client3/rdock/2013.1/src/exe/rbdock.cxx#4 $)

>  <Rbt.Library>
libRbt.so (2013.1, Build901 2013/11/27)

>  <Rbt.Parameter_File>
/export/apps/rDock/src/rDock_2013.1_src/data/scripts/dock_solv.prm

>  <Rbt.Receptor>
prm/pocket_docking_8.prm

>  <SCORE>
-19.077

>  <SCORE.INTER>
2.74181

>  <SCORE.INTER.CONST>
1

>  <SCORE.INTER.POLAR>
0

>  <SCORE.INTER.ROT>
15

>  <SCORE.INTER.SOLV>
10.0973

>  <SCORE.INTER.VDW>
-15.1379

>  <SCORE.INTER.norm>
0.0527272

>  <SCORE.INTRA>
-21.8201

>  <SCORE.INTRA.DIHEDRAL>
-44.9092

>  <SCORE.INTRA.DIHEDRAL.0>
47.8724

>  <SCORE.INTRA.POLAR>
0

>  <SCORE.INTRA.POLAR.0>
0

>  <SCORE.INTRA.REPUL>
0

>  <SCORE.INTRA.REPUL.0>
0

>  <SCORE.INTRA.SOLV>
-0.67316

>  <SCORE.INTRA.SOLV.lig_0>
-115.677

>  <SCORE.INTRA.VDW>
0.971036

>  <SCORE.INTRA.VDW.0>
-7.4833

>  <SCORE.INTRA.norm>
-0.419618

>  <SCORE.RESTR>
0.00127992

>  <SCORE.RESTR.CAVITY>
0.00127992

>  <SCORE.RESTR.norm>
2.46138e-05

>  <SCORE.SYSTEM>
0

>  <SCORE.SYSTEM.CONST>
0

>  <SCORE.SYSTEM.DIHEDRAL>
0

>  <SCORE.SYSTEM.SOLV>
0

>  <SCORE.SYSTEM.norm>
0

>  <SCORE.heavy>
52

>  <SCORE.norm>
-0.366866

>  <RMSD>
8.399

$$$$
2be0_lig
 OpenBabel11021811423D
libRbt.so/2013.1/901 2013/11/27
 52 56  0  0  0  0  0  0  0  0999 V2000
   41.1129    9.0506    1.1190 C   0  0  2  0  0  0  0  0  0  0  0  0
   41.4243    7.6984    1.3589 O   0  0  0  0  0  0  0  0  0  0  0  0
   39.4874    4.4843    3.6586 C   0  0  2  0  0  0  0  0  0  0  0  0
   38.4078    3.6214    4.2148 N   0  0  0  0  0  0  0  0  0  0  0  0
   40.5109    4.0902   -0.5912 C   0  0  2  0  0  0  0  0  0  0  0  0
   41.3942    3.0349   -0.1593 O   0  0  0  0  0  0  0  0  0  0  0  0
   44.2722    3.5680   -3.4996 C   0  0  1  0  0  0  0  0  0  0  0  0
   38.8880    0.9599   -6.5757 C   0  0  0  0  0  0  0  0  0  0  0  0
   40.4855    9.2476   -0.3209 C   0  0  2  0  0  0  0  0  0  0  0  0
   39.3326    8.3596   -0.4847 N   0  0  0  0  0  0  0  0  0  0  0  0
   39.1869    6.0059    4.0362 C   0  0  0  0  0  0  0  0  0  0  0  0
   40.7400    4.2698   -2.1004 C   0  0  2  0  0  0  0  0  0  0  0  0
   39.8423    3.2432   -2.7148 O   0  0  0  0  0  0  0  0  0  0  0  0
   44.6435    3.5495   -5.0818 C   0  0  2  0  0  0  0  0  0  0  0  0
   43.8588    2.4596   -5.7466 N   0  0  0  0  0  0  0  0  0  0  0  0
   39.3984   -0.3527   -6.3089 C   0  0  0  0  0  0  0  0  0  0  0  0
   38.5489   -1.3342   -5.7344 N   0  0  0  0  0  0  0  0  0  0  0  0
   41.6032    8.9884   -1.4342 C   0  0  1  0  0  0  0  0  0  0  0  0
   41.0193    9.1624   -2.7160 O   0  0  0  0  0  0  0  0  0  0  0  0
   40.3432    6.9891    3.4310 C   0  0  2  0  0  0  0  0  0  0  0  0
   40.0856    8.3613    3.7658 N   0  0  0  0  0  0  0  0  0  0  0  0
   42.2669    4.0689   -2.1324 C   0  0  2  0  0  0  0  0  0  0  0  0
   42.8551    3.7949   -3.3955 O   0  0  0  0  0  0  0  0  0  0  0  0
   46.1750    3.2908   -5.2106 C   0  0  1  0  0  0  0  0  0  0  0  0
   46.8399    4.4217   -4.5426 O   0  0  0  0  0  0  0  0  0  0  0  0
   37.1881   -1.0815   -5.3991 C   0  0  0  0  0  0  0  0  0  0  0  0
   42.7800    9.9783   -1.1944 C   0  0  2  0  0  0  0  0  0  0  0  0
   43.8540    9.7824   -2.1980 O   0  0  0  0  0  0  0  0  0  0  0  0
   40.4125    6.8311    1.8563 C   0  0  2  0  0  0  0  0  0  0  0  0
   42.5042    2.9620   -1.0776 C   0  0  1  0  0  0  0  0  0  0  0  0
   46.5623    1.8790   -4.5017 C   0  0  2  0  0  0  0  0  0  0  0  0
   45.9009    0.7440   -5.1640 O   0  0  0  0  0  0  0  0  0  0  0  0
   36.6278    0.1970   -5.6409 C   0  0  0  0  0  0  0  0  0  0  0  0
   43.3910    9.7671    0.2442 C   0  0  2  0  0  0  0  0  0  0  0  0
   42.2942    9.9678    1.1778 O   0  0  0  0  0  0  0  0  0  0  0  0
   40.6979    5.3219    1.5401 C   0  0  2  0  0  0  0  0  0  0  0  0
   40.7512    5.3009    0.1188 O   0  0  0  0  0  0  0  0  0  0  0  0
   43.7741    3.1972   -0.2615 C   0  0  0  0  0  0  0  0  0  0  0  0
   44.0872    2.1934    0.6743 O   0  0  0  0  0  0  0  0  0  0  0  0
   46.1366    1.9232   -2.9623 C   0  0  1  0  0  0  0  0  0  0  0  0
   44.6539    2.2231   -2.8823 O   0  0  0  0  0  0  0  0  0  0  0  0
   37.4733    1.2564   -6.2383 C   0  0  0  0  0  0  0  0  0  0  0  0
   44.4802   10.7412    0.4199 C   0  0  0  0  0  0  0  0  0  0  0  0
   43.9706   11.9789    0.4550 O   0  0  0  0  0  0  0  0  0  0  0  0
   39.5416    4.3998    2.1148 C   0  0  1  0  0  0  0  0  0  0  0  0
   39.8142    3.0659    1.8357 O   0  0  0  0  0  0  0  0  0  0  0  0
   39.2554    3.2329   -4.0756 C   0  0  0  0  0  0  0  0  0  0  0  0
   46.5189    0.5513   -2.3431 C   0  0  0  0  0  0  0  0  0  0  0  0
   45.6074   -0.4756   -2.7830 N   0  0  0  0  0  0  0  0  0  0  0  0
   40.4140    3.3610   -5.0698 C   0  0  0  0  0  0  0  0  0  0  0  0
   39.8707    3.4030   -6.4662 N   0  0  0  0  0  0  0  0  0  0  0  0
   39.8714    2.0501   -7.2276 C   0  0  0  0  0  0  0  0  0  0  0  0
  1  2  1  6  0  0  0
  1  9  1  0  0  0  0
  1 35  1  0  0  0  0
  3  4  1  6  0  0  0
  3 11  1  0  0  0  0
  3 45  1  0  0  0  0
  5  6  1  0  0  0  0
  5 12  1  0  0  0  0
  5 37  1  1  0  0  0
  6 30  1  0  0  0  0
  7 14  1  0  0  0  0
  7 41  1  0  0  0  0
  7 23  1  6  0  0  0
  8 16  2  0  0  0  0
  8 42  1  0  0  0  0
  9 10  1  6  0  0  0
  9 18  1  0  0  0  0
 11 20  1  0  0  0  0
 12 13  1  6  0  0  0
 12 22  1  0  0  0  0
 13 47  1  0  0  0  0
 14 15  1  6  0  0  0
 14 24  1  0  0  0  0
 16 17  1  0  0  0  0
 17 26  2  0  0  0  0
 18 19  1  6  0  0  0
 18 27  1  0  0  0  0
 20 21  1  6  0  0  0
 20 29  1  0  0  0  0
 22 23  1  6  0  0  0
 22 30  1  0  0  0  0
 24 25  1  1  0  0  0
 24 31  1  0  0  0  0
 26 33  1  0  0  0  0
 27 28  1  6  0  0  0
 27 34  1  0  0  0  0
 29  2  1  1  0  0  0
 29 36  1  0  0  0  0
 30 38  1  1  0  0  0
 31 32  1  6  0  0  0
 31 40  1  0  0  0  0
 33 42  2  0  0  0  0
 34 35  1  0  0  0  0
 34 43  1  1  0  0  0
 36 37  1  6  0  0  0
 36 45  1  0  0  0  0
 38 39  1  0  0  0  0
 40 41  1  0  0  0  0
 40 48  1  6  0  0  0
 43 44  1  0  0  0  0
 45 46  1  1  0  0  0
 47 50  1  0  0  0  0
 48 49  1  0  0  0  0
 50 51  1  0  0  0  0
 51 52  1  0  0  0  0
 52  8  1  0  0  0  0
M  END
>  <CHROM.1>
-85.44619450,-55.73253967,-170.18662157,155.95404050,55.19818398,-178.70276981
-83.67359928,66.69582026,67.06281615,-157.17056100,-73.85841275,-178.08245852
-96.88010341,65.44601248,-130.00102106,41.80747904,4.57925149,-1.74354394
1.59558373,0.39312827,0.71306951

>  <Name>
2be0_lig

>  <RI>
0

>  <Rbt.Current_Directory>
/home/itssahil/PROJECTS/Mol_Feturizer/New_Systems/rnas/2be0

>  <Rbt.Executable>
rbdock ($Id: //depot/dev/client3/rdock/2013.1/src/exe/rbdock.cxx#4 $)

>  <Rbt.Library>
libRbt.so (2013.1, Build901 2013/11/27)

>  <Rbt.Parameter_File>
/export/apps/rDock/src/rDock_2013.1_src/data/scripts/dock_solv.prm

>  <Rbt.Receptor>
prm/pocket_docking_6.prm

>  <SCORE>
-22.9328

>  <SCORE.INTER>
-9.4284

>  <SCORE.INTER.CONST>
1

>  <SCORE.INTER.POLAR>
-0.979796

>  <SCORE.INTER.ROT>
15

>  <SCORE.INTER.SOLV>
11.8153

>  <SCORE.INTER.VDW>
-20.558

>  <SCORE.INTER.norm>
-0.181315

>  <SCORE.INTRA>
-13.5044

>  <SCORE.INTRA.DIHEDRAL>
-34.4774

>  <SCORE.INTRA.DIHEDRAL.0>
47.8724

>  <SCORE.INTRA.POLAR>
0

>  <SCORE.INTRA.POLAR.0>
0

>  <SCORE.INTRA.REPUL>
0

>  <SCORE.INTRA.REPUL.0>
0

>  <SCORE.INTRA.SOLV>
1.73915

>  <SCORE.INTRA.SOLV.lig_0>
-115.677

>  <SCORE.INTRA.VDW>
2.86479

>  <SCORE.INTRA.VDW.0>
-7.4833

>  <SCORE.INTRA.norm>
-0.259699

>  <SCORE.RESTR>
0

>  <SCORE.RESTR.CAVITY>
0

>  <SCORE.RESTR.norm>
0

>  <SCORE.SYSTEM>
0

>  <SCORE.SYSTEM.CONST>
0

>  <SCORE.SYSTEM.DIHEDRAL>
0

>  <SCORE.SYSTEM.SOLV>
0

>  <SCORE.SYSTEM.norm>
0

>  <SCORE.heavy>
52

>  <SCORE.norm>
-0.441015

>  <RMSD>
8.407

$$$$
2be0_lig
 OpenBabel11021811423D
libRbt.so/2013.1/901 2013/11/27
 52 56  0  0  0  0  0  0  0  0999 V2000
   47.9856    5.3021   -6.5428 C   0  0  2  0  0  0  0  0  0  0  0  0
   47.4801    4.0782   -6.0639 O   0  0  0  0  0  0  0  0  0  0  0  0
   44.2324    2.8110   -3.3773 C   0  0  2  0  0  0  0  0  0  0  0  0
   43.3180    2.7996   -2.2012 N   0  0  0  0  0  0  0  0  0  0  0  0
   44.0117    6.2993   -5.8809 C   0  0  2  0  0  0  0  0  0  0  0  0
   42.7667    6.0483   -6.5645 O   0  0  0  0  0  0  0  0  0  0  0  0
   45.1091    9.4121   -9.1766 C   0  0  1  0  0  0  0  0  0  0  0  0
   42.1516    7.3165   -0.4483 C   0  0  0  0  0  0  0  0  0  0  0  0
   48.1686    5.2708   -8.1149 C   0  0  2  0  0  0  0  0  0  0  0  0
   46.9078    4.8863   -8.7529 N   0  0  0  0  0  0  0  0  0  0  0  0
   45.7428    2.7392   -2.8658 C   0  0  0  0  0  0  0  0  0  0  0  0
   44.4718    7.7046   -6.3003 C   0  0  2  0  0  0  0  0  0  0  0  0
   43.7488    8.6068   -5.3513 O   0  0  0  0  0  0  0  0  0  0  0  0
   45.9838   10.2813   -8.1180 C   0  0  2  0  0  0  0  0  0  0  0  0
   45.1258   11.3848   -7.5776 N   0  0  0  0  0  0  0  0  0  0  0  0
   41.9461    8.7276   -0.3018 C   0  0  0  0  0  0  0  0  0  0  0  0
   41.5333    9.2518    0.9511 N   0  0  0  0  0  0  0  0  0  0  0  0
   49.3604    4.2764   -8.4976 C   0  0  1  0  0  0  0  0  0  0  0  0
   49.5028    4.2570   -9.9095 O   0  0  0  0  0  0  0  0  0  0  0  0
   46.7805    2.7637   -4.1278 C   0  0  2  0  0  0  0  0  0  0  0  0
   48.1433    2.6973   -3.6810 N   0  0  0  0  0  0  0  0  0  0  0  0
   44.0522    7.6576   -7.7817 C   0  0  2  0  0  0  0  0  0  0  0  0
   43.9673    8.8981   -8.4676 O   0  0  0  0  0  0  0  0  0  0  0  0
   47.2182   10.8565   -8.8760 C   0  0  1  0  0  0  0  0  0  0  0  0
   47.9904    9.6939   -9.3445 O   0  0  0  0  0  0  0  0  0  0  0  0
   41.3050    8.4358    2.0957 C   0  0  0  0  0  0  0  0  0  0  0  0
   50.6585    4.7640   -7.7909 C   0  0  2  0  0  0  0  0  0  0  0  0
   51.8028    3.8751   -8.1061 O   0  0  0  0  0  0  0  0  0  0  0  0
   46.5638    4.0841   -4.9759 C   0  0  2  0  0  0  0  0  0  0  0  0
   42.7230    6.8661   -7.7518 C   0  0  1  0  0  0  0  0  0  0  0  0
   46.7257   11.7766  -10.1237 C   0  0  2  0  0  0  0  0  0  0  0  0
   45.9528   12.9405   -9.6630 O   0  0  0  0  0  0  0  0  0  0  0  0
   41.4930    7.0342    2.0116 C   0  0  0  0  0  0  0  0  0  0  0  0
   50.4565    4.7887   -6.2269 C   0  0  2  0  0  0  0  0  0  0  0  0
   49.3247    5.6690   -5.9839 O   0  0  0  0  0  0  0  0  0  0  0  0
   45.0672    4.1109   -5.4433 C   0  0  2  0  0  0  0  0  0  0  0  0
   44.9922    5.3158   -6.1956 O   0  0  0  0  0  0  0  0  0  0  0  0
   42.5825    5.9178   -8.9414 C   0  0  0  0  0  0  0  0  0  0  0  0
   41.2638    5.5555   -9.2747 O   0  0  0  0  0  0  0  0  0  0  0  0
   45.8307   10.8964  -11.1122 C   0  0  1  0  0  0  0  0  0  0  0  0
   44.6716   10.3198  -10.3257 O   0  0  0  0  0  0  0  0  0  0  0  0
   41.9226    6.4376    0.7256 C   0  0  0  0  0  0  0  0  0  0  0  0
   51.7044    5.2763   -5.6177 C   0  0  0  0  0  0  0  0  0  0  0  0
   52.0278    6.4612   -6.1508 O   0  0  0  0  0  0  0  0  0  0  0  0
   44.0892    4.1171   -4.1939 C   0  0  1  0  0  0  0  0  0  0  0  0
   42.7679    4.1306   -4.6245 O   0  0  0  0  0  0  0  0  0  0  0  0
   43.2142    8.2864   -4.0067 C   0  0  0  0  0  0  0  0  0  0  0  0
   45.3823   11.8261  -12.2724 C   0  0  0  0  0  0  0  0  0  0  0  0
   45.2905   11.0880  -13.5075 N   0  0  0  0  0  0  0  0  0  0  0  0
   41.8752    7.5701   -4.2103 C   0  0  0  0  0  0  0  0  0  0  0  0
   41.5086    6.8324   -2.9580 N   0  0  0  0  0  0  0  0  0  0  0  0
   42.6200    6.7514   -1.8771 C   0  0  0  0  0  0  0  0  0  0  0  0
  1  2  1  1  0  0  0
  1  9  1  0  0  0  0
  1 35  1  0  0  0  0
  3  4  1  1  0  0  0
  3 11  1  0  0  0  0
  3 45  1  0  0  0  0
  5  6  1  0  0  0  0
  5 12  1  0  0  0  0
  5 37  1  6  0  0  0
  6 30  1  0  0  0  0
  7 14  1  0  0  0  0
  7 41  1  0  0  0  0
  7 23  1  1  0  0  0
  8 16  2  0  0  0  0
  8 42  1  0  0  0  0
  9 10  1  6  0  0  0
  9 18  1  0  0  0  0
 11 20  1  0  0  0  0
 12 13  1  1  0  0  0
 12 22  1  0  0  0  0
 13 47  1  0  0  0  0
 14 15  1  6  0  0  0
 14 24  1  0  0  0  0
 16 17  1  0  0  0  0
 17 26  2  0  0  0  0
 18 19  1  6  0  0  0
 18 27  1  0  0  0  0
 20 21  1  1  0  0  0
 20 29  1  0  0  0  0
 22 23  1  1  0  0  0
 22 30  1  0  0  0  0
 24 25  1  6  0  0  0
 24 31  1  0  0  0  0
 26 33  1  0  0  0  0
 27 28  1  1  0  0  0
 27 34  1  0  0  0  0
 29  2  1  6  0  0  0
 29 36  1  0  0  0  0
 30 38  1  6  0  0  0
 31 32  1  1  0  0  0
 31 40  1  0  0  0  0
 33 42  2  0  0  0  0
 34 35  1  0  0  0  0
 34 43  1  1  0  0  0
 36 37  1  1  0  0  0
 36 45  1  0  0  0  0
 38 39  1  0  0  0  0
 40 41  1  0  0  0  0
 40 48  1  6  0  0  0
 43 44  1  0  0  0  0
 45 46  1  6  0  0  0
 47 50  1  0  0  0  0
 48 49  1  0  0  0  0
 50 51  1  0  0  0  0
 51 52  1  0  0  0  0
 52  8  1  0  0  0  0
M  END
>  <CHROM.1>
-143.90267819,-87.31601634,-87.98514205,23.85897156,-80.24048909,91.37422424
-148.05430051,86.80206750,55.03998313,-125.66932362,146.28379299,161.48164205
-9.91260643,124.66283588,-70.41424812,45.45426985,6.83234858,-6.12191021
-0.92180872,-0.62549491,2.25845238

>  <Name>
2be0_lig

>  <RI>
224

>  <Rbt.Current_Directory>
/home/itssahil/PROJECTS/Mol_Feturizer/New_Systems/rnas/2be0

>  <Rbt.Executable>
rbdock ($Id: //depot/dev/client3/rdock/2013.1/src/exe/rbdock.cxx#4 $)

>  <Rbt.Library>
libRbt.so (2013.1, Build901 2013/11/27)

>  <Rbt.Parameter_File>
/export/apps/rDock/src/rDock_2013.1_src/data/scripts/dock_solv.prm

>  <Rbt.Receptor>
prm/blind_docking_100.prm

>  <SCORE>
26.1364

>  <SCORE.INTER>
-1.90178

>  <SCORE.INTER.CONST>
1

>  <SCORE.INTER.POLAR>
-0.226017

>  <SCORE.INTER.ROT>
15

>  <SCORE.INTER.SOLV>
23.8495

>  <SCORE.INTER.VDW>
-22.0643

>  <SCORE.INTER.norm>
-0.0365727

>  <SCORE.INTRA>
5.84695

>  <SCORE.INTRA.DIHEDRAL>
-5.79774

>  <SCORE.INTRA.DIHEDRAL.0>
47.8724

>  <SCORE.INTRA.POLAR>
0

>  <SCORE.INTRA.POLAR.0>
0

>  <SCORE.INTRA.REPUL>
0

>  <SCORE.INTRA.REPUL.0>
0

>  <SCORE.INTRA.SOLV>
-0.237951

>  <SCORE.INTRA.SOLV.lig_0>
-115.677

>  <SCORE.INTRA.VDW>
8.86479

>  <SCORE.INTRA.VDW.0>
-7.4833

>  <SCORE.INTRA.norm>
0.112441

>  <SCORE.RESTR>
22.1912

>  <SCORE.RESTR.CAVITY>
22.1912

>  <SCORE.RESTR.norm>
0.426755

>  <SCORE.SYSTEM>
0

>  <SCORE.SYSTEM.CONST>
0

>  <SCORE.SYSTEM.DIHEDRAL>
0

>  <SCORE.SYSTEM.SOLV>
0

>  <SCORE.SYSTEM.norm>
0

>  <SCORE.heavy>
52

>  <SCORE.norm>
0.502623

>  <RMSD>
8.412

$$$$
2be0_lig
 OpenBabel11021811423D
libRbt.so/2013.1/901 2013/11/27
 52 56  0  0  0  0  0  0  0  0999 V2000
   41.5064    4.4904   -4.2358 C   0  0  2  0  0  0  0  0  0  0  0  0
   42.5516    5.4227   -4.3816 O   0  0  0  0  0  0  0  0  0  0  0  0
   46.6901    4.8842   -5.7794 C   0  0  2  0  0  0  0  0  0  0  0  0
   48.1100    4.4337   -5.7971 N   0  0  0  0  0  0  0  0  0  0  0  0
   43.3260    2.0834   -6.7251 C   0  0  2  0  0  0  0  0  0  0  0  0
   43.4088    2.6378   -8.0540 O   0  0  0  0  0  0  0  0  0  0  0  0
   40.0673    0.3390   -8.9214 C   0  0  1  0  0  0  0  0  0  0  0  0
   41.6961   -2.4066   -4.6367 C   0  0  0  0  0  0  0  0  0  0  0  0
   40.1024    5.2144   -4.1344 C   0  0  2  0  0  0  0  0  0  0  0  0
   39.9183    6.1017   -5.2847 N   0  0  0  0  0  0  0  0  0  0  0  0
   46.4189    5.7050   -4.4373 C   0  0  0  0  0  0  0  0  0  0  0  0
   42.0630    1.2082   -6.6880 C   0  0  2  0  0  0  0  0  0  0  0  0
   42.5326   -0.1061   -7.2260 O   0  0  0  0  0  0  0  0  0  0  0  0
   40.1299    0.8820  -10.4520 C   0  0  2  0  0  0  0  0  0  0  0  0
   38.8875    1.6715  -10.7329 N   0  0  0  0  0  0  0  0  0  0  0  0
   42.4847   -2.5020   -3.4435 C   0  0  0  0  0  0  0  0  0  0  0  0
   42.3460   -1.5196   -2.4283 N   0  0  0  0  0  0  0  0  0  0  0  0
   40.0040    6.0042   -2.7479 C   0  0  1  0  0  0  0  0  0  0  0  0
   38.7428    6.6514   -2.6802 O   0  0  0  0  0  0  0  0  0  0  0  0
   44.8650    6.2061   -4.3723 C   0  0  2  0  0  0  0  0  0  0  0  0
   44.6085    6.9481   -3.1702 N   0  0  0  0  0  0  0  0  0  0  0  0
   41.1359    2.0964   -7.5391 C   0  0  2  0  0  0  0  0  0  0  0  0
   39.9641    1.4895   -8.0634 O   0  0  0  0  0  0  0  0  0  0  0  0
   40.2283   -0.3552  -11.3947 C   0  0  1  0  0  0  0  0  0  0  0  0
   41.4832   -1.0402  -11.0434 O   0  0  0  0  0  0  0  0  0  0  0  0
   41.4484   -0.4189   -2.5321 C   0  0  0  0  0  0  0  0  0  0  0  0
   40.1971    4.9885   -1.5846 C   0  0  2  0  0  0  0  0  0  0  0  0
   40.1197    5.6657   -0.2676 O   0  0  0  0  0  0  0  0  0  0  0  0
   43.8941    4.9563   -4.4419 C   0  0  2  0  0  0  0  0  0  0  0  0
   42.0828    2.6681   -8.6211 C   0  0  1  0  0  0  0  0  0  0  0  0
   38.9445   -1.3287  -11.1708 C   0  0  2  0  0  0  0  0  0  0  0  0
   37.6865   -0.6505  -11.5196 O   0  0  0  0  0  0  0  0  0  0  0  0
   40.6422   -0.2727   -3.6878 C   0  0  0  0  0  0  0  0  0  0  0  0
   41.6001    4.2777   -1.7031 C   0  0  2  0  0  0  0  0  0  0  0  0
   41.6156    3.6391   -3.0095 O   0  0  0  0  0  0  0  0  0  0  0  0
   44.2080    4.1814   -5.7686 C   0  0  2  0  0  0  0  0  0  0  0  0
   43.2816    3.1026   -5.7317 O   0  0  0  0  0  0  0  0  0  0  0  0
   41.7738    4.1267   -8.9544 C   0  0  0  0  0  0  0  0  0  0  0  0
   40.6841    4.3322   -9.8212 O   0  0  0  0  0  0  0  0  0  0  0  0
   38.8943   -1.7991   -9.6447 C   0  0  1  0  0  0  0  0  0  0  0  0
   38.8471   -0.5677   -8.7637 O   0  0  0  0  0  0  0  0  0  0  0  0
   40.7503   -1.2713   -4.7766 C   0  0  0  0  0  0  0  0  0  0  0  0
   41.7156    3.3179   -0.5934 C   0  0  0  0  0  0  0  0  0  0  0  0
   41.9791    3.9777    0.5415 O   0  0  0  0  0  0  0  0  0  0  0  0
   45.7144    3.6836   -5.7846 C   0  0  1  0  0  0  0  0  0  0  0  0
   45.9795    3.0083   -6.9700 O   0  0  0  0  0  0  0  0  0  0  0  0
   43.5640   -1.0115   -6.6668 C   0  0  0  0  0  0  0  0  0  0  0  0
   37.6480   -2.7124   -9.4889 C   0  0  0  0  0  0  0  0  0  0  0  0
   37.8172   -3.9334  -10.2367 N   0  0  0  0  0  0  0  0  0  0  0  0
   43.4578   -2.3405   -7.4217 C   0  0  0  0  0  0  0  0  0  0  0  0
   42.1055   -2.9421   -7.1846 N   0  0  0  0  0  0  0  0  0  0  0  0
   41.8729   -3.5331   -5.7680 C   0  0  0  0  0  0  0  0  0  0  0  0
  1  2  1  1  0  0  0
  1  9  1  0  0  0  0
  1 35  1  0  0  0  0
  3  4  1  1  0  0  0
  3 11  1  0  0  0  0
  3 45  1  0  0  0  0
  5  6  1  0  0  0  0
  5 12  1  0  0  0  0
  5 37  1  1  0  0  0
  6 30  1  0  0  0  0
  7 14  1  0  0  0  0
  7 41  1  0  0  0  0
  7 23  1  1  0  0  0
  8 16  2  0  0  0  0
  8 42  1  0  0  0  0
  9 10  1  6  0  0  0
  9 18  1  0  0  0  0
 11 20  1  0  0  0  0
 12 13  1  6  0  0  0
 12 22  1  0  0  0  0
 13 47  1  0  0  0  0
 14 15  1  6  0  0  0
 14 24  1  0  0  0  0
 16 17  1  0  0  0  0
 17 26  2  0  0  0  0
 18 19  1  1  0  0  0
 18 27  1  0  0  0  0
 20 21  1  1  0  0  0
 20 29  1  0  0  0  0
 22 23  1  6  0  0  0
 22 30  1  0  0  0  0
 24 25  1  1  0  0  0
 24 31  1  0  0  0  0
 26 33  1  0  0  0  0
 27 28  1  1  0  0  0
 27 34  1  0  0  0  0
 29  2  1  6  0  0  0
 29 36  1  0  0  0  0
 30 38  1  1  0  0  0
 31 32  1  1  0  0  0
 31 40  1  0  0  0  0
 33 42  2  0  0  0  0
 34 35  1  0  0  0  0
 34 43  1  1  0  0  0
 36 37  1  1  0  0  0
 36 45  1  0  0  0  0
 38 39  1  0  0  0  0
 40 41  1  0  0  0  0
 40 48  1  6  0  0  0
 43 44  1  0  0  0  0
 45 46  1  6  0  0  0
 47 50  1  0  0  0  0
 48 49  1  0  0  0  0
 50 51  1  0  0  0  0
 51 52  1  0  0  0  0
 52  8  1  0  0  0  0
M  END
>  <CHROM.1>
177.82592144,-47.78117115,-91.64266887,61.87670033,168.35719448,-58.44420111
-171.07245819,164.33395825,-76.26656030,-174.50498033,66.73938473,-62.10472417
-72.70376922,73.15732473,-129.58992890,41.74918883,1.94945971,-6.08985229
0.91100007,1.04301976,1.38515295

>  <Name>
2be0_lig

>  <RI>
2.75444e+07

>  <Rbt.Current_Directory>
/home/itssahil/PROJECTS/Mol_Feturizer/New_Systems/rnas/2be0

>  <Rbt.Executable>
rbdock ($Id: //depot/dev/client3/rdock/2013.1/src/exe/rbdock.cxx#4 $)

>  <Rbt.Library>
libRbt.so (2013.1, Build901 2013/11/27)

>  <Rbt.Parameter_File>
/export/apps/rDock/src/rDock_2013.1_src/data/scripts/dock_solv.prm

>  <Rbt.Receptor>
prm/pocket_docking_5.prm

>  <SCORE>
-12.7775

>  <SCORE.INTER>
6.48974

>  <SCORE.INTER.CONST>
1

>  <SCORE.INTER.POLAR>
-0.741468

>  <SCORE.INTER.ROT>
15

>  <SCORE.INTER.SOLV>
12.1199

>  <SCORE.INTER.VDW>
-10.8419

>  <SCORE.INTER.norm>
0.124803

>  <SCORE.INTRA>
-19.2677

>  <SCORE.INTRA.DIHEDRAL>
-38.6508

>  <SCORE.INTRA.DIHEDRAL.0>
47.8724

>  <SCORE.INTRA.POLAR>
0

>  <SCORE.INTRA.POLAR.0>
0

>  <SCORE.INTRA.REPUL>
0.005985

>  <SCORE.INTRA.REPUL.0>
0

>  <SCORE.INTRA.SOLV>
-1.222

>  <SCORE.INTRA.SOLV.lig_0>
-115.677

>  <SCORE.INTRA.VDW>
0.638827

>  <SCORE.INTRA.VDW.0>
-7.4833

>  <SCORE.INTRA.norm>
-0.370532

>  <SCORE.RESTR>
0.000453195

>  <SCORE.RESTR.CAVITY>
0.000453195

>  <SCORE.RESTR.norm>
8.71529e-06

>  <SCORE.SYSTEM>
0

>  <SCORE.SYSTEM.CONST>
0

>  <SCORE.SYSTEM.DIHEDRAL>
0

>  <SCORE.SYSTEM.SOLV>
0

>  <SCORE.SYSTEM.norm>
0

>  <SCORE.heavy>
52

>  <SCORE.norm>
-0.24572

>  <RMSD>
8.431

$$$$
2be0_lig
 OpenBabel11021811423D
libRbt.so/2013.1/901 2013/11/27
 52 56  0  0  0  0  0  0  0  0999 V2000
   48.8468    3.7489   -6.2030 C   0  0  2  0  0  0  0  0  0  0  0  0
   48.0398    4.6914   -5.5372 O   0  0  0  0  0  0  0  0  0  0  0  0
   45.3924    7.8515   -7.0787 C   0  0  2  0  0  0  0  0  0  0  0  0
   44.3150    8.5056   -7.8729 N   0  0  0  0  0  0  0  0  0  0  0  0
   44.2735    5.1994   -3.7514 C   0  0  2  0  0  0  0  0  0  0  0  0
   44.3836    4.7563   -2.3832 O   0  0  0  0  0  0  0  0  0  0  0  0
   42.6495    0.7053   -3.3105 C   0  0  1  0  0  0  0  0  0  0  0  0
   40.0266   10.1655   -0.9978 C   0  0  0  0  0  0  0  0  0  0  0  0
   49.3669    2.6341   -5.2068 C   0  0  2  0  0  0  0  0  0  0  0  0
   48.2324    2.0228   -4.5113 N   0  0  0  0  0  0  0  0  0  0  0  0
   46.4113    7.1308   -8.0741 C   0  0  0  0  0  0  0  0  0  0  0  0
   43.1455    4.3765   -4.3941 C   0  0  2  0  0  0  0  0  0  0  0  0
   41.9086    5.1351   -4.0304 O   0  0  0  0  0  0  0  0  0  0  0  0
   43.6080   -0.0074   -4.4126 C   0  0  2  0  0  0  0  0  0  0  0  0
   42.9087    0.0060   -5.7379 N   0  0  0  0  0  0  0  0  0  0  0  0
   39.0154    9.3474   -0.3952 C   0  0  0  0  0  0  0  0  0  0  0  0
   37.8671    9.9555    0.1764 N   0  0  0  0  0  0  0  0  0  0  0  0
   50.4197    3.2731   -4.1875 C   0  0  1  0  0  0  0  0  0  0  0  0
   50.8674    2.2604   -3.2997 O   0  0  0  0  0  0  0  0  0  0  0  0
   47.6034    6.3873   -7.2399 C   0  0  2  0  0  0  0  0  0  0  0  0
   48.5285    5.7367   -8.1244 N   0  0  0  0  0  0  0  0  0  0  0  0
   43.4347    3.0188   -3.7265 C   0  0  2  0  0  0  0  0  0  0  0  0
   42.3995    2.0475   -3.7653 O   0  0  0  0  0  0  0  0  0  0  0  0
   43.8765   -1.4680   -3.9397 C   0  0  1  0  0  0  0  0  0  0  0  0
   44.5751   -1.3594   -2.6483 O   0  0  0  0  0  0  0  0  0  0  0  0
   37.6598   11.3644    0.1865 C   0  0  0  0  0  0  0  0  0  0  0  0
   51.5928    3.8857   -5.0065 C   0  0  2  0  0  0  0  0  0  0  0  0
   52.6037    4.4995   -4.1118 O   0  0  0  0  0  0  0  0  0  0  0  0
   46.9804    5.3222   -6.2465 C   0  0  2  0  0  0  0  0  0  0  0  0
   43.8729    3.4102   -2.2951 C   0  0  1  0  0  0  0  0  0  0  0  0
   42.4697   -2.2691   -3.7815 C   0  0  2  0  0  0  0  0  0  0  0  0
   41.7657   -2.3811   -5.0685 O   0  0  0  0  0  0  0  0  0  0  0  0
   38.6244   12.2235   -0.3953 C   0  0  0  0  0  0  0  0  0  0  0  0
   51.0551    4.9929   -5.9926 C   0  0  2  0  0  0  0  0  0  0  0  0
   50.0708    4.3333   -6.8358 O   0  0  0  0  0  0  0  0  0  0  0  0
   45.9826    6.0773   -5.3014 C   0  0  2  0  0  0  0  0  0  0  0  0
   45.5002    5.0396   -4.4565 O   0  0  0  0  0  0  0  0  0  0  0  0
   45.0114    2.5347   -1.7742 C   0  0  0  0  0  0  0  0  0  0  0  0
   44.6676    1.1998   -1.4899 O   0  0  0  0  0  0  0  0  0  0  0  0
   41.5409   -1.5085   -2.7272 C   0  0  1  0  0  0  0  0  0  0  0  0
   41.3448   -0.0829   -3.2004 O   0  0  0  0  0  0  0  0  0  0  0  0
   39.8412   11.6381   -1.0044 C   0  0  0  0  0  0  0  0  0  0  0  0
   52.2018    5.5177   -6.7513 C   0  0  0  0  0  0  0  0  0  0  0  0
   52.8072    4.5130   -7.3968 O   0  0  0  0  0  0  0  0  0  0  0  0
   44.8228    6.7608   -6.1410 C   0  0  1  0  0  0  0  0  0  0  0  0
   43.9535    7.4339   -5.2908 O   0  0  0  0  0  0  0  0  0  0  0  0
   41.5392    5.7139   -2.7171 C   0  0  0  0  0  0  0  0  0  0  0  0
   40.2140   -2.3089   -2.6264 C   0  0  0  0  0  0  0  0  0  0  0  0
   39.4332   -1.8573   -1.5016 N   0  0  0  0  0  0  0  0  0  0  0  0
   41.3142    7.2143   -2.9303 C   0  0  0  0  0  0  0  0  0  0  0  0
   41.2320    7.9004   -1.6002 N   0  0  0  0  0  0  0  0  0  0  0  0
   41.3145    9.4502   -1.6382 C   0  0  0  0  0  0  0  0  0  0  0  0
  1  2  1  1  0  0  0
  1  9  1  0  0  0  0
  1 35  1  0  0  0  0
  3  4  1  6  0  0  0
  3 11  1  0  0  0  0
  3 45  1  0  0  0  0
  5  6  1  0  0  0  0
  5 12  1  0  0  0  0
  5 37  1  6  0  0  0
  6 30  1  0  0  0  0
  7 14  1  0  0  0  0
  7 41  1  0  0  0  0
  7 23  1  6  0  0  0
  8 16  2  0  0  0  0
  8 42  1  0  0  0  0
  9 10  1  1  0  0  0
  9 18  1  0  0  0  0
 11 20  1  0  0  0  0
 12 13  1  1  0  0  0
 12 22  1  0  0  0  0
 13 47  1  0  0  0  0
 14 15  1  6  0  0  0
 14 24  1  0  0  0  0
 16 17  1  0  0  0  0
 17 26  2  0  0  0  0
 18 19  1  1  0  0  0
 18 27  1  0  0  0  0
 20 21  1  6  0  0  0
 20 29  1  0  0  0  0
 22 23  1  1  0  0  0
 22 30  1  0  0  0  0
 24 25  1  1  0  0  0
 24 31  1  0  0  0  0
 26 33  1  0  0  0  0
 27 28  1  1  0  0  0
 27 34  1  0  0  0  0
 29  2  1  1  0  0  0
 29 36  1  0  0  0  0
 30 38  1  6  0  0  0
 31 32  1  6  0  0  0
 31 40  1  0  0  0  0
 33 42  2  0  0  0  0
 34 35  1  0  0  0  0
 34 43  1  6  0  0  0
 36 37  1  1  0  0  0
 36 45  1  0  0  0  0
 38 39  1  0  0  0  0
 40 41  1  0  0  0  0
 40 48  1  6  0  0  0
 43 44  1  0  0  0  0
 45 46  1  1  0  0  0
 47 50  1  0  0  0  0
 48 49  1  0  0  0  0
 50 51  1  0  0  0  0
 51 52  1  0  0  0  0
 52  8  1  0  0  0  0
M  END
>  <CHROM.1>
-148.55180549,-135.80466522,-71.57943198,-44.80427252,122.32928781,172.39700177
-74.08596736,173.81544013,57.51686357,-159.48454273,168.04004619,-167.78581934
167.25240766,121.38668918,4.18330942,44.71205101,4.28398913,-4.03127469,-0.36705086
0.40421270,0.00175154

>  <Name>
2be0_lig

>  <RI>
0

>  <Rbt.Current_Directory>
/home/itssahil/PROJECTS/Mol_Feturizer/New_Systems/rnas/2be0

>  <Rbt.Executable>
rbdock ($Id: //depot/dev/client3/rdock/2013.1/src/exe/rbdock.cxx#4 $)

>  <Rbt.Library>
libRbt.so (2013.1, Build901 2013/11/27)

>  <Rbt.Parameter_File>
/export/apps/rDock/src/rDock_2013.1_src/data/scripts/dock_solv.prm

>  <Rbt.Receptor>
prm/pocket_docking_4.prm

>  <SCORE>
-18.5756

>  <SCORE.INTER>
-11.9778

>  <SCORE.INTER.CONST>
1

>  <SCORE.INTER.POLAR>
-0.765836

>  <SCORE.INTER.ROT>
15

>  <SCORE.INTER.SOLV>
17.1031

>  <SCORE.INTER.VDW>
-24.7334

>  <SCORE.INTER.norm>
-0.230342

>  <SCORE.INTRA>
-6.60153

>  <SCORE.INTRA.DIHEDRAL>
-22.3646

>  <SCORE.INTRA.DIHEDRAL.0>
47.8724

>  <SCORE.INTRA.POLAR>
0

>  <SCORE.INTRA.POLAR.0>
0

>  <SCORE.INTRA.REPUL>
0

>  <SCORE.INTRA.REPUL.0>
0

>  <SCORE.INTRA.SOLV>
0.109574

>  <SCORE.INTRA.SOLV.lig_0>
-115.677

>  <SCORE.INTRA.VDW>
4.52598

>  <SCORE.INTRA.VDW.0>
-7.4833

>  <SCORE.INTRA.norm>
-0.126953

>  <SCORE.RESTR>
0.00374552

>  <SCORE.RESTR.CAVITY>
0.00374552

>  <SCORE.RESTR.norm>
7.20291e-05

>  <SCORE.SYSTEM>
0

>  <SCORE.SYSTEM.CONST>
0

>  <SCORE.SYSTEM.DIHEDRAL>
0

>  <SCORE.SYSTEM.SOLV>
0

>  <SCORE.SYSTEM.norm>
0

>  <SCORE.heavy>
52

>  <SCORE.norm>
-0.357222

>  <RMSD>
8.440

$$$$
2be0_lig
 OpenBabel11021811423D
libRbt.so/2013.1/901 2013/11/27
 52 56  0  0  0  0  0  0  0  0999 V2000
   44.5690    4.6383   -2.2084 C   0  0  2  0  0  0  0  0  0  0  0  0
   43.8474    4.4181   -3.3973 O   0  0  0  0  0  0  0  0  0  0  0  0
   46.7195    6.0621   -6.2989 C   0  0  2  0  0  0  0  0  0  0  0  0
   47.3251    6.4265   -7.6104 N   0  0  0  0  0  0  0  0  0  0  0  0
   42.5949    7.2244   -5.5959 C   0  0  2  0  0  0  0  0  0  0  0  0
   41.2961    7.6849   -5.1701 O   0  0  0  0  0  0  0  0  0  0  0  0
   39.6248    3.4432   -5.5084 C   0  0  1  0  0  0  0  0  0  0  0  0
   44.2198   10.1466  -10.1453 C   0  0  0  0  0  0  0  0  0  0  0  0
   43.9426    3.8306   -0.9997 C   0  0  2  0  0  0  0  0  0  0  0  0
   43.8416    2.4125   -1.3507 N   0  0  0  0  0  0  0  0  0  0  0  0
   46.4595    4.4875   -6.2627 C   0  0  0  0  0  0  0  0  0  0  0  0
   42.3612    5.9701   -6.4530 C   0  0  2  0  0  0  0  0  0  0  0  0
   42.0912    6.5236   -7.8161 O   0  0  0  0  0  0  0  0  0  0  0  0
   40.6227    2.5562   -4.5817 C   0  0  2  0  0  0  0  0  0  0  0  0
   41.5666    1.8071   -5.4725 N   0  0  0  0  0  0  0  0  0  0  0  0
   44.5440   11.3218  -10.8995 C   0  0  0  0  0  0  0  0  0  0  0  0
   45.3944   12.3078  -10.3341 N   0  0  0  0  0  0  0  0  0  0  0  0
   42.5216    4.4544   -0.6155 C   0  0  1  0  0  0  0  0  0  0  0  0
   41.9744    3.7125    0.4634 O   0  0  0  0  0  0  0  0  0  0  0  0
   45.7811    4.0478   -4.8428 C   0  0  2  0  0  0  0  0  0  0  0  0
   45.5440    2.6325   -4.7967 N   0  0  0  0  0  0  0  0  0  0  0  0
   41.2132    5.3407   -5.6413 C   0  0  2  0  0  0  0  0  0  0  0  0
   40.4433    4.3361   -6.2851 O   0  0  0  0  0  0  0  0  0  0  0  0
   39.7501    1.5737   -3.7437 C   0  0  1  0  0  0  0  0  0  0  0  0
   38.8810    2.4124   -2.9019 O   0  0  0  0  0  0  0  0  0  0  0  0
   45.9543   12.1932   -9.0298 C   0  0  0  0  0  0  0  0  0  0  0  0
   42.7223    5.9528   -0.2455 C   0  0  2  0  0  0  0  0  0  0  0  0
   41.4330    6.5892    0.1177 O   0  0  0  0  0  0  0  0  0  0  0  0
   44.4142    4.8218   -4.6379 C   0  0  2  0  0  0  0  0  0  0  0  0
   40.3865    6.5654   -5.1823 C   0  0  1  0  0  0  0  0  0  0  0  0
   38.8731    0.6262   -4.7331 C   0  0  2  0  0  0  0  0  0  0  0  0
   39.7353   -0.2148   -5.5780 O   0  0  0  0  0  0  0  0  0  0  0  0
   45.6702   11.0534   -8.2379 C   0  0  0  0  0  0  0  0  0  0  0  0
   43.3471    6.7399   -1.4610 C   0  0  2  0  0  0  0  0  0  0  0  0
   44.5999    6.0691   -1.7701 O   0  0  0  0  0  0  0  0  0  0  0  0
   44.7229    6.3583   -4.6925 C   0  0  2  0  0  0  0  0  0  0  0  0
   43.4437    6.9456   -4.4871 O   0  0  0  0  0  0  0  0  0  0  0  0
   39.8535    6.4087   -3.7591 C   0  0  0  0  0  0  0  0  0  0  0  0
   39.1945    5.1945   -3.4895 O   0  0  0  0  0  0  0  0  0  0  0  0
   37.9440    1.5398   -5.6578 C   0  0  1  0  0  0  0  0  0  0  0  0
   38.8266    2.5089   -6.4171 O   0  0  0  0  0  0  0  0  0  0  0  0
   44.7872    9.9959   -8.7821 C   0  0  0  0  0  0  0  0  0  0  0  0
   43.5326    8.1396   -1.0456 C   0  0  0  0  0  0  0  0  0  0  0  0
   42.3388    8.6943   -0.8010 O   0  0  0  0  0  0  0  0  0  0  0  0
   45.3515    6.7549   -6.0942 C   0  0  1  0  0  0  0  0  0  0  0  0
   45.6287    8.1165   -6.1229 O   0  0  0  0  0  0  0  0  0  0  0  0
   42.0061    5.7938   -9.1032 C   0  0  0  0  0  0  0  0  0  0  0  0
   37.1424    0.5856   -6.5844 C   0  0  0  0  0  0  0  0  0  0  0  0
   36.3667    1.3382   -7.5386 N   0  0  0  0  0  0  0  0  0  0  0  0
   42.0513    6.8402  -10.2213 C   0  0  0  0  0  0  0  0  0  0  0  0
   43.2786    7.6862  -10.0636 N   0  0  0  0  0  0  0  0  0  0  0  0
   43.2564    9.0469  -10.8107 C   0  0  0  0  0  0  0  0  0  0  0  0
  1  2  1  6  0  0  0
  1  9  1  0  0  0  0
  1 35  1  0  0  0  0
  3  4  1  6  0  0  0
  3 11  1  0  0  0  0
  3 45  1  0  0  0  0
  5  6  1  0  0  0  0
  5 12  1  0  0  0  0
  5 37  1  1  0  0  0
  6 30  1  0  0  0  0
  7 14  1  0  0  0  0
  7 41  1  0  0  0  0
  7 23  1  6  0  0  0
  8 16  2  0  0  0  0
  8 42  1  0  0  0  0
  9 10  1  6  0  0  0
  9 18  1  0  0  0  0
 11 20  1  0  0  0  0
 12 13  1  6  0  0  0
 12 22  1  0  0  0  0
 13 47  1  0  0  0  0
 14 15  1  6  0  0  0
 14 24  1  0  0  0  0
 16 17  1  0  0  0  0
 17 26  2  0  0  0  0
 18 19  1  1  0  0  0
 18 27  1  0  0  0  0
 20 21  1  6  0  0  0
 20 29  1  0  0  0  0
 22 23  1  6  0  0  0
 22 30  1  0  0  0  0
 24 25  1  1  0  0  0
 24 31  1  0  0  0  0
 26 33  1  0  0  0  0
 27 28  1  6  0  0  0
 27 34  1  0  0  0  0
 29  2  1  1  0  0  0
 29 36  1  0  0  0  0
 30 38  1  1  0  0  0
 31 32  1  6  0  0  0
 31 40  1  0  0  0  0
 33 42  2  0  0  0  0
 34 35  1  0  0  0  0
 34 43  1  1  0  0  0
 36 37  1  6  0  0  0
 36 45  1  0  0  0  0
 38 39  1  0  0  0  0
 40 41  1  0  0  0  0
 40 48  1  6  0  0  0
 43 44  1  0  0  0  0
 45 46  1  1  0  0  0
 47 50  1  0  0  0  0
 48 49  1  0  0  0  0
 50 51  1  0  0  0  0
 51 52  1  0  0  0  0
 52  8  1  0  0  0  0
M  END
>  <CHROM.1>
-166.68159631,173.94592109,-64.54582320,169.36014214,-166.55060900,162.26815491
60.16759060,-165.93421386,-64.26510111,-89.27241330,-174.73720218,55.14724941
-161.32496537,154.95772155,165.17332701,42.52618590,5.58468901,-5.22542913
-2.31757125,-0.78553814,-1.22348820

>  <Name>
2be0_lig

>  <RI>
0

>  <Rbt.Current_Directory>
/home/itssahil/PROJECTS/Mol_Feturizer/New_Systems/rnas/2be0

>  <Rbt.Executable>
rbdock ($Id: //depot/dev/client3/rdock/2013.1/src/exe/rbdock.cxx#4 $)

>  <Rbt.Library>
libRbt.so (2013.1, Build901 2013/11/27)

>  <Rbt.Parameter_File>
/export/apps/rDock/src/rDock_2013.1_src/data/scripts/dock_solv.prm

>  <Rbt.Receptor>
prm/pocket_docking_4.prm

>  <SCORE>
-35.9228

>  <SCORE.INTER>
-19.4694

>  <SCORE.INTER.CONST>
1

>  <SCORE.INTER.POLAR>
-1.21281

>  <SCORE.INTER.ROT>
15

>  <SCORE.INTER.SOLV>
18.9896

>  <SCORE.INTER.VDW>
-28.8668

>  <SCORE.INTER.norm>
-0.374411

>  <SCORE.INTRA>
-16.5421

>  <SCORE.INTRA.DIHEDRAL>
-37.6423

>  <SCORE.INTRA.DIHEDRAL.0>
47.8724

>  <SCORE.INTRA.POLAR>
0

>  <SCORE.INTRA.POLAR.0>
0

>  <SCORE.INTRA.REPUL>
0

>  <SCORE.INTRA.REPUL.0>
0

>  <SCORE.INTRA.SOLV>
0.143223

>  <SCORE.INTRA.SOLV.lig_0>
-115.677

>  <SCORE.INTRA.VDW>
2.20745

>  <SCORE.INTRA.VDW.0>
-7.4833

>  <SCORE.INTRA.norm>
-0.318117

>  <SCORE.RESTR>
0.0886614

>  <SCORE.RESTR.CAVITY>
0.0886614

>  <SCORE.RESTR.norm>
0.00170503

>  <SCORE.SYSTEM>
0

>  <SCORE.SYSTEM.CONST>
0

>  <SCORE.SYSTEM.DIHEDRAL>
0

>  <SCORE.SYSTEM.SOLV>
0

>  <SCORE.SYSTEM.norm>
0

>  <SCORE.heavy>
52

>  <SCORE.norm>
-0.690823

>  <RMSD>
8.453

$$$$
2be0_lig
 OpenBabel11021811423D
libRbt.so/2013.1/901 2013/11/27
 52 56  0  0  0  0  0  0  0  0999 V2000
   41.4152    8.2068    1.6161 C   0  0  2  0  0  0  0  0  0  0  0  0
   40.1780    7.8564    1.0421 O   0  0  0  0  0  0  0  0  0  0  0  0
   39.7481    3.7610    2.5957 C   0  0  2  0  0  0  0  0  0  0  0  0
   39.1000    2.4806    2.9955 N   0  0  0  0  0  0  0  0  0  0  0  0
   40.4157    4.7143   -1.6971 C   0  0  2  0  0  0  0  0  0  0  0  0
   41.8198    4.3851   -1.7169 O   0  0  0  0  0  0  0  0  0  0  0  0
   42.9305    6.6021   -5.2149 C   0  0  1  0  0  0  0  0  0  0  0  0
   39.7443   -0.5444   -4.0190 C   0  0  0  0  0  0  0  0  0  0  0  0
   41.3698    9.6652    2.2299 C   0  0  2  0  0  0  0  0  0  0  0  0
   40.2539    9.7717    3.1722 N   0  0  0  0  0  0  0  0  0  0  0  0
   39.0413    4.9674    3.3659 C   0  0  0  0  0  0  0  0  0  0  0  0
   40.0575    5.2122   -3.1064 C   0  0  2  0  0  0  0  0  0  0  0  0
   39.7693    3.9523   -3.8594 O   0  0  0  0  0  0  0  0  0  0  0  0
   42.8317    7.1557   -6.7398 C   0  0  2  0  0  0  0  0  0  0  0  0
   42.1572    6.1181   -7.5848 N   0  0  0  0  0  0  0  0  0  0  0  0
   40.7714   -0.9220   -4.9449 C   0  0  0  0  0  0  0  0  0  0  0  0
   41.9916   -1.4615   -4.4599 N   0  0  0  0  0  0  0  0  0  0  0  0
   41.2630   10.7409    1.0521 C   0  0  1  0  0  0  0  0  0  0  0  0
   41.2160   12.0394    1.6231 O   0  0  0  0  0  0  0  0  0  0  0  0
   39.7153    6.3947    2.9434 C   0  0  2  0  0  0  0  0  0  0  0  0
   39.0896    7.4885    3.6315 N   0  0  0  0  0  0  0  0  0  0  0  0
   41.3413    6.0079   -3.4086 C   0  0  2  0  0  0  0  0  0  0  0  0
   41.5881    6.3427   -4.7664 O   0  0  0  0  0  0  0  0  0  0  0  0
   44.2809    7.4285   -7.2443 C   0  0  1  0  0  0  0  0  0  0  0  0
   44.8355    8.4656   -6.3587 O   0  0  0  0  0  0  0  0  0  0  0  0
   42.2589   -1.6511   -3.0741 C   0  0  0  0  0  0  0  0  0  0  0  0
   42.4890   10.5665    0.1094 C   0  0  2  0  0  0  0  0  0  0  0  0
   42.4432   11.5385   -1.0097 O   0  0  0  0  0  0  0  0  0  0  0  0
   39.5855    6.6080    1.3790 C   0  0  2  0  0  0  0  0  0  0  0  0
   42.4546    5.1489   -2.7631 C   0  0  1  0  0  0  0  0  0  0  0  0
   45.1612    6.0625   -7.1731 C   0  0  2  0  0  0  0  0  0  0  0  0
   44.6124    5.0211   -8.0556 O   0  0  0  0  0  0  0  0  0  0  0  0
   41.2809   -1.2974   -2.1121 C   0  0  0  0  0  0  0  0  0  0  0  0
   42.5171    9.1085   -0.4914 C   0  0  2  0  0  0  0  0  0  0  0  0
   42.5576    8.2070    0.6490 O   0  0  0  0  0  0  0  0  0  0  0  0
   40.2838    5.3947    0.6723 C   0  0  2  0  0  0  0  0  0  0  0  0
   40.1193    5.6951   -0.7083 O   0  0  0  0  0  0  0  0  0  0  0  0
   43.5366    5.9996   -2.1000 C   0  0  0  0  0  0  0  0  0  0  0  0
   44.4940    6.5500   -2.9728 O   0  0  0  0  0  0  0  0  0  0  0  0
   45.1913    5.5278   -5.6677 C   0  0  1  0  0  0  0  0  0  0  0  0
   43.7645    5.3215   -5.2026 O   0  0  0  0  0  0  0  0  0  0  0  0
   39.9908   -0.7293   -2.5671 C   0  0  0  0  0  0  0  0  0  0  0  0
   43.7048    8.9977   -1.3534 C   0  0  0  0  0  0  0  0  0  0  0  0
   43.5145    9.7126   -2.4693 O   0  0  0  0  0  0  0  0  0  0  0  0
   39.5856    4.0297    1.0808 C   0  0  1  0  0  0  0  0  0  0  0  0
   40.2219    2.9643    0.4550 O   0  0  0  0  0  0  0  0  0  0  0  0
   39.2576    3.8058   -5.2426 C   0  0  0  0  0  0  0  0  0  0  0  0
   46.0323    4.2223   -5.6634 C   0  0  0  0  0  0  0  0  0  0  0  0
   47.3967    4.4966   -6.0402 N   0  0  0  0  0  0  0  0  0  0  0  0
   39.2179    2.3063   -5.5547 C   0  0  0  0  0  0  0  0  0  0  0  0
   38.3325    1.6137   -4.5632 N   0  0  0  0  0  0  0  0  0  0  0  0
   38.3733    0.0621   -4.5961 C   0  0  0  0  0  0  0  0  0  0  0  0
  1  2  1  6  0  0  0
  1  9  1  0  0  0  0
  1 35  1  0  0  0  0
  3  4  1  1  0  0  0
  3 11  1  0  0  0  0
  3 45  1  0  0  0  0
  5  6  1  0  0  0  0
  5 12  1  0  0  0  0
  5 37  1  1  0  0  0
  6 30  1  0  0  0  0
  7 14  1  0  0  0  0
  7 41  1  0  0  0  0
  7 23  1  6  0  0  0
  8 16  2  0  0  0  0
  8 42  1  0  0  0  0
  9 10  1  1  0  0  0
  9 18  1  0  0  0  0
 11 20  1  0  0  0  0
 12 13  1  6  0  0  0
 12 22  1  0  0  0  0
 13 47  1  0  0  0  0
 14 15  1  6  0  0  0
 14 24  1  0  0  0  0
 16 17  1  0  0  0  0
 17 26  2  0  0  0  0
 18 19  1  1  0  0  0
 18 27  1  0  0  0  0
 20 21  1  1  0  0  0
 20 29  1  0  0  0  0
 22 23  1  6  0  0  0
 22 30  1  0  0  0  0
 24 25  1  1  0  0  0
 24 31  1  0  0  0  0
 26 33  1  0  0  0  0
 27 28  1  6  0  0  0
 27 34  1  0  0  0  0
 29  2  1  6  0  0  0
 29 36  1  0  0  0  0
 30 38  1  1  0  0  0
 31 32  1  6  0  0  0
 31 40  1  0  0  0  0
 33 42  2  0  0  0  0
 34 35  1  0  0  0  0
 34 43  1  6  0  0  0
 36 37  1  6  0  0  0
 36 45  1  0  0  0  0
 38 39  1  0  0  0  0
 40 41  1  0  0  0  0
 40 48  1  6  0  0  0
 43 44  1  0  0  0  0
 45 46  1  6  0  0  0
 47 50  1  0  0  0  0
 48 49  1  0  0  0  0
 50 51  1  0  0  0  0
 51 52  1  0  0  0  0
 52  8  1  0  0  0  0
M  END
>  <CHROM.1>
-130.47612130,-65.41596747,-172.03338157,174.31101657,176.78066277,-155.98924506
43.92482513,164.13424432,-71.75221899,-169.00204208,63.75951652,58.83569384
-170.19041370,71.61857831,-97.68179289,41.66886735,5.50291135,-2.20325118
1.78753952,0.98558938,0.63088264

>  <Name>
2be0_lig

>  <RI>
2.75444e+07

>  <Rbt.Current_Directory>
/home/itssahil/PROJECTS/Mol_Feturizer/New_Systems/rnas/2be0

>  <Rbt.Executable>
rbdock ($Id: //depot/dev/client3/rdock/2013.1/src/exe/rbdock.cxx#4 $)

>  <Rbt.Library>
libRbt.so (2013.1, Build901 2013/11/27)

>  <Rbt.Parameter_File>
/export/apps/rDock/src/rDock_2013.1_src/data/scripts/dock_solv.prm

>  <Rbt.Receptor>
prm/pocket_docking_5.prm

>  <SCORE>
-31.3065

>  <SCORE.INTER>
-19.5441

>  <SCORE.INTER.CONST>
1

>  <SCORE.INTER.POLAR>
-3.69678

>  <SCORE.INTER.ROT>
15

>  <SCORE.INTER.SOLV>
11.4647

>  <SCORE.INTER.VDW>
-18.1284

>  <SCORE.INTER.norm>
-0.375848

>  <SCORE.INTRA>
-11.7624

>  <SCORE.INTRA.DIHEDRAL>
-33.5163

>  <SCORE.INTRA.DIHEDRAL.0>
47.8724

>  <SCORE.INTRA.POLAR>
0

>  <SCORE.INTRA.POLAR.0>
0

>  <SCORE.INTRA.REPUL>
0.00497305

>  <SCORE.INTRA.REPUL.0>
0

>  <SCORE.INTRA.SOLV>
2.37588

>  <SCORE.INTRA.SOLV.lig_0>
-115.677

>  <SCORE.INTRA.VDW>
3.78295

>  <SCORE.INTRA.VDW.0>
-7.4833

>  <SCORE.INTRA.norm>
-0.2262

>  <SCORE.RESTR>
0

>  <SCORE.RESTR.CAVITY>
0

>  <SCORE.RESTR.norm>
0

>  <SCORE.SYSTEM>
0

>  <SCORE.SYSTEM.CONST>
0

>  <SCORE.SYSTEM.DIHEDRAL>
0

>  <SCORE.SYSTEM.SOLV>
0

>  <SCORE.SYSTEM.norm>
0

>  <SCORE.heavy>
52

>  <SCORE.norm>
-0.602047

>  <RMSD>
8.463

$$$$
2be0_lig
 OpenBabel11021811423D
libRbt.so/2013.1/901 2013/11/27
 52 56  0  0  0  0  0  0  0  0999 V2000
   43.6625    5.6220   -4.1018 C   0  0  2  0  0  0  0  0  0  0  0  0
   42.4195    5.9616   -3.5341 O   0  0  0  0  0  0  0  0  0  0  0  0
   43.5110    8.7520   -0.3102 C   0  0  2  0  0  0  0  0  0  0  0  0
   43.4323    9.4962    0.9780 N   0  0  0  0  0  0  0  0  0  0  0  0
   42.8637    4.3837   -0.4063 C   0  0  2  0  0  0  0  0  0  0  0  0
   43.5410    3.4513    0.4610 O   0  0  0  0  0  0  0  0  0  0  0  0
   41.6396    0.8637   -3.1899 C   0  0  1  0  0  0  0  0  0  0  0  0
   39.1097    6.9839    2.9789 C   0  0  0  0  0  0  0  0  0  0  0  0
   44.4029    6.9015   -4.6679 C   0  0  2  0  0  0  0  0  0  0  0  0
   44.5144    7.9151   -3.6167 N   0  0  0  0  0  0  0  0  0  0  0  0
   42.1719    9.0038   -1.1419 C   0  0  0  0  0  0  0  0  0  0  0  0
   41.8116    3.5791   -1.1862 C   0  0  2  0  0  0  0  0  0  0  0  0
   40.6347    3.5558   -0.2633 O   0  0  0  0  0  0  0  0  0  0  0  0
   40.7742   -0.5100   -3.2625 C   0  0  2  0  0  0  0  0  0  0  0  0
   41.5671   -1.6114   -2.6269 N   0  0  0  0  0  0  0  0  0  0  0  0
   40.2391    7.8023    3.3098 C   0  0  0  0  0  0  0  0  0  0  0  0
   40.1128    9.2160    3.2906 N   0  0  0  0  0  0  0  0  0  0  0  0
   43.6212    7.4520   -5.9492 C   0  0  1  0  0  0  0  0  0  0  0  0
   44.2958    8.6017   -6.4360 O   0  0  0  0  0  0  0  0  0  0  0  0
   42.2123    8.1915   -2.5591 C   0  0  2  0  0  0  0  0  0  0  0  0
   41.0137    8.4116   -3.3182 N   0  0  0  0  0  0  0  0  0  0  0  0
   42.6254    2.2926   -1.4213 C   0  0  2  0  0  0  0  0  0  0  0  0
   41.9012    1.1315   -1.8005 O   0  0  0  0  0  0  0  0  0  0  0  0
   40.4946   -0.8203   -4.7640 C   0  0  1  0  0  0  0  0  0  0  0  0
   39.7031    0.3103   -5.2764 O   0  0  0  0  0  0  0  0  0  0  0  0
   38.9002    9.8816    2.9517 C   0  0  0  0  0  0  0  0  0  0  0  0
   43.5605    6.3206   -7.0161 C   0  0  2  0  0  0  0  0  0  0  0  0
   42.8405    6.7722   -8.2314 O   0  0  0  0  0  0  0  0  0  0  0  0
   42.3897    6.6413   -2.2849 C   0  0  2  0  0  0  0  0  0  0  0  0
   43.4254    2.1304   -0.1069 C   0  0  1  0  0  0  0  0  0  0  0  0
   41.8985   -0.9692   -5.5721 C   0  0  2  0  0  0  0  0  0  0  0  0
   42.6952   -2.0972   -5.0650 O   0  0  0  0  0  0  0  0  0  0  0  0
   37.7502    9.1252    2.6167 C   0  0  0  0  0  0  0  0  0  0  0  0
   42.8204    5.0554   -6.4338 C   0  0  2  0  0  0  0  0  0  0  0  0
   43.5678    4.6652   -5.2489 O   0  0  0  0  0  0  0  0  0  0  0  0
   43.7089    6.4506   -1.4589 C   0  0  2  0  0  0  0  0  0  0  0  0
   43.7720    5.0403   -1.2846 O   0  0  0  0  0  0  0  0  0  0  0  0
   44.8462    1.6231   -0.3481 C   0  0  0  0  0  0  0  0  0  0  0  0
   44.9517    0.4858   -1.1707 O   0  0  0  0  0  0  0  0  0  0  0  0
   42.7370    0.3838   -5.4339 C   0  0  1  0  0  0  0  0  0  0  0  0
   42.9449    0.6720   -3.9614 O   0  0  0  0  0  0  0  0  0  0  0  0
   37.8304    7.6460    2.6212 C   0  0  0  0  0  0  0  0  0  0  0  0
   42.8134    4.0164   -7.4762 C   0  0  0  0  0  0  0  0  0  0  0  0
   42.0637    2.9834   -7.0715 O   0  0  0  0  0  0  0  0  0  0  0  0
   43.6232    7.2266   -0.0776 C   0  0  1  0  0  0  0  0  0  0  0  0
   44.8027    7.0564    0.6374 O   0  0  0  0  0  0  0  0  0  0  0  0
   40.5298    2.9289    1.0754 C   0  0  0  0  0  0  0  0  0  0  0  0
   44.0652    0.1796   -6.2121 C   0  0  0  0  0  0  0  0  0  0  0  0
   44.9807   -0.6317   -5.4490 N   0  0  0  0  0  0  0  0  0  0  0  0
   39.1235    3.2256    1.6059 C   0  0  0  0  0  0  0  0  0  0  0  0
   38.9144    4.7087    1.6628 N   0  0  0  0  0  0  0  0  0  0  0  0
   39.2811    5.3870    3.0103 C   0  0  0  0  0  0  0  0  0  0  0  0
  1  2  1  6  0  0  0
  1  9  1  0  0  0  0
  1 35  1  0  0  0  0
  3  4  1  1  0  0  0
  3 11  1  0  0  0  0
  3 45  1  0  0  0  0
  5  6  1  0  0  0  0
  5 12  1  0  0  0  0
  5 37  1  6  0  0  0
  6 30  1  0  0  0  0
  7 14  1  0  0  0  0
  7 41  1  0  0  0  0
  7 23  1  1  0  0  0
  8 16  2  0  0  0  0
  8 42  1  0  0  0  0
  9 10  1  1  0  0  0
  9 18  1  0  0  0  0
 11 20  1  0  0  0  0
 12 13  1  1  0  0  0
 12 22  1  0  0  0  0
 13 47  1  0  0  0  0
 14 15  1  6  0  0  0
 14 24  1  0  0  0  0
 16 17  1  0  0  0  0
 17 26  2  0  0  0  0
 18 19  1  6  0  0  0
 18 27  1  0  0  0  0
 20 21  1  1  0  0  0
 20 29  1  0  0  0  0
 22 23  1  1  0  0  0
 22 30  1  0  0  0  0
 24 25  1  6  0  0  0
 24 31  1  0  0  0  0
 26 33  1  0  0  0  0
 27 28  1  6  0  0  0
 27 34  1  0  0  0  0
 29  2  1  6  0  0  0
 29 36  1  0  0  0  0
 30 38  1  6  0  0  0
 31 32  1  1  0  0  0
 31 40  1  0  0  0  0
 33 42  2  0  0  0  0
 34 35  1  0  0  0  0
 34 43  1  6  0  0  0
 36 37  1  1  0  0  0
 36 45  1  0  0  0  0
 38 39  1  0  0  0  0
 40 41  1  0  0  0  0
 40 48  1  6  0  0  0
 43 44  1  0  0  0  0
 45 46  1  1  0  0  0
 47 50  1  0  0  0  0
 48 49  1  0  0  0  0
 50 51  1  0  0  0  0
 51 52  1  0  0  0  0
 52  8  1  0  0  0  0
M  END
>  <CHROM.1>
-72.91408525,-133.18499989,-178.86721209,-64.10759474,178.67210015,88.39441228
97.63518054,-166.18979827,-173.13382339,-71.44181576,-77.01630206,-58.33161208
-91.65063212,176.88043420,-123.69923778,42.21466424,4.43614779,-2.22836124
-1.01089921,1.16773611,0.24183184

>  <Name>
2be0_lig

>  <RI>
0

>  <Rbt.Current_Directory>
/home/itssahil/PROJECTS/Mol_Feturizer/New_Systems/rnas/2be0

>  <Rbt.Executable>
rbdock ($Id: //depot/dev/client3/rdock/2013.1/src/exe/rbdock.cxx#4 $)

>  <Rbt.Library>
libRbt.so (2013.1, Build901 2013/11/27)

>  <Rbt.Parameter_File>
/export/apps/rDock/src/rDock_2013.1_src/data/scripts/dock_solv.prm

>  <Rbt.Receptor>
prm/pocket_docking_4.prm

>  <SCORE>
-18.6518

>  <SCORE.INTER>
-11.6254

>  <SCORE.INTER.CONST>
1

>  <SCORE.INTER.POLAR>
-1.51928

>  <SCORE.INTER.ROT>
15

>  <SCORE.INTER.SOLV>
19.8108

>  <SCORE.INTER.VDW>
-22.8896

>  <SCORE.INTER.norm>
-0.223565

>  <SCORE.INTRA>
-7.04524

>  <SCORE.INTRA.DIHEDRAL>
-28.014

>  <SCORE.INTRA.DIHEDRAL.0>
47.8724

>  <SCORE.INTRA.POLAR>
0

>  <SCORE.INTRA.POLAR.0>
0

>  <SCORE.INTRA.REPUL>
0.000279801

>  <SCORE.INTRA.REPUL.0>
0

>  <SCORE.INTRA.SOLV>
5.03536

>  <SCORE.INTRA.SOLV.lig_0>
-115.677

>  <SCORE.INTRA.VDW>
4.44267

>  <SCORE.INTRA.VDW.0>
-7.4833

>  <SCORE.INTRA.norm>
-0.135485

>  <SCORE.RESTR>
0.0188594

>  <SCORE.RESTR.CAVITY>
0.0188594

>  <SCORE.RESTR.norm>
0.00036268

>  <SCORE.SYSTEM>
0

>  <SCORE.SYSTEM.CONST>
0

>  <SCORE.SYSTEM.DIHEDRAL>
0

>  <SCORE.SYSTEM.SOLV>
0

>  <SCORE.SYSTEM.norm>
0

>  <SCORE.heavy>
52

>  <SCORE.norm>
-0.358688

>  <RMSD>
8.468

$$$$
2be0_lig
 OpenBabel11021811423D
libRbt.so/2013.1/901 2013/11/27
 52 56  0  0  0  0  0  0  0  0999 V2000
   40.9164    7.0855   -1.0798 C   0  0  2  0  0  0  0  0  0  0  0  0
   41.3927    6.9910    0.2420 O   0  0  0  0  0  0  0  0  0  0  0  0
   39.9274    5.0532    3.9120 C   0  0  2  0  0  0  0  0  0  0  0  0
   39.0004    4.6693    5.0132 N   0  0  0  0  0  0  0  0  0  0  0  0
   39.6085    3.2809   -0.2032 C   0  0  2  0  0  0  0  0  0  0  0  0
   40.6681    2.3976    0.2177 O   0  0  0  0  0  0  0  0  0  0  0  0
   40.6485    2.9121   -4.5780 C   0  0  1  0  0  0  0  0  0  0  0  0
   40.1159   -1.5220   -0.8068 C   0  0  0  0  0  0  0  0  0  0  0  0
   42.0346    7.6394   -2.0538 C   0  0  2  0  0  0  0  0  0  0  0  0
   43.2416    6.8179   -1.9404 N   0  0  0  0  0  0  0  0  0  0  0  0
   40.0517    6.6440    3.8641 C   0  0  0  0  0  0  0  0  0  0  0  0
   39.4195    3.0585   -1.7123 C   0  0  2  0  0  0  0  0  0  0  0  0
   38.4927    1.8863   -1.7794 O   0  0  0  0  0  0  0  0  0  0  0  0
   40.5259    1.7423   -5.6995 C   0  0  2  0  0  0  0  0  0  0  0  0
   41.8818    1.1429   -5.9186 N   0  0  0  0  0  0  0  0  0  0  0  0
   40.9292   -1.0677   -1.8963 C   0  0  0  0  0  0  0  0  0  0  0  0
   41.5692   -2.0143   -2.7386 N   0  0  0  0  0  0  0  0  0  0  0  0
   42.3235    9.1762   -1.7216 C   0  0  1  0  0  0  0  0  0  0  0  0
   43.3326    9.6508   -2.5995 O   0  0  0  0  0  0  0  0  0  0  0  0
   41.0512    7.1080    2.6576 C   0  0  2  0  0  0  0  0  0  0  0  0
   41.1734    8.5376    2.6052 N   0  0  0  0  0  0  0  0  0  0  0  0
   40.8974    2.8896   -2.1124 C   0  0  2  0  0  0  0  0  0  0  0  0
   41.1597    2.3030   -3.3788 O   0  0  0  0  0  0  0  0  0  0  0  0
   39.9855    2.3906   -7.0097 C   0  0  1  0  0  0  0  0  0  0  0  0
   38.6541    2.9275   -6.6833 O   0  0  0  0  0  0  0  0  0  0  0  0
   41.4472   -3.4214   -2.5565 C   0  0  0  0  0  0  0  0  0  0  0  0
   40.9968    9.9747   -1.8784 C   0  0  2  0  0  0  0  0  0  0  0  0
   41.2015   11.4124   -1.5781 O   0  0  0  0  0  0  0  0  0  0  0  0
   40.5050    6.5709    1.2710 C   0  0  2  0  0  0  0  0  0  0  0  0
   41.5029    2.1077   -0.9224 C   0  0  1  0  0  0  0  0  0  0  0  0
   40.9908    3.5708   -7.5021 C   0  0  2  0  0  0  0  0  0  0  0  0
   42.3238    3.0416   -7.8298 O   0  0  0  0  0  0  0  0  0  0  0  0
   40.6557   -3.9297   -1.4972 C   0  0  0  0  0  0  0  0  0  0  0  0
   39.8960    9.4083   -0.9012 C   0  0  2  0  0  0  0  0  0  0  0  0
   39.7446    8.0025   -1.2413 O   0  0  0  0  0  0  0  0  0  0  0  0
   40.3918    5.0103    1.3748 C   0  0  2  0  0  0  0  0  0  0  0  0
   39.9111    4.6415    0.0878 O   0  0  0  0  0  0  0  0  0  0  0  0
   42.9137    2.5786   -0.5731 C   0  0  0  0  0  0  0  0  0  0  0  0
   43.0335    3.9425   -0.2467 O   0  0  0  0  0  0  0  0  0  0  0  0
   41.1197    4.6728   -6.3523 C   0  0  1  0  0  0  0  0  0  0  0  0
   41.6014    3.9929   -5.0872 O   0  0  0  0  0  0  0  0  0  0  0  0
   39.9675   -2.9828   -0.5894 C   0  0  0  0  0  0  0  0  0  0  0  0
   38.6637   10.1855   -1.1096 C   0  0  0  0  0  0  0  0  0  0  0  0
   38.8008   11.3966   -0.5554 O   0  0  0  0  0  0  0  0  0  0  0  0
   39.3915    4.5962    2.5346 C   0  0  1  0  0  0  0  0  0  0  0  0
   39.3101    3.2114    2.6205 O   0  0  0  0  0  0  0  0  0  0  0  0
   37.1306    1.7589   -1.2096 C   0  0  0  0  0  0  0  0  0  0  0  0
   42.0957    5.7632   -6.8720 C   0  0  0  0  0  0  0  0  0  0  0  0
   41.6839    6.2354   -8.1706 N   0  0  0  0  0  0  0  0  0  0  0  0
   37.2655    1.0211    0.1264 C   0  0  0  0  0  0  0  0  0  0  0  0
   37.8716   -0.3295   -0.1086 N   0  0  0  0  0  0  0  0  0  0  0  0
   39.4025   -0.4286    0.1290 C   0  0  0  0  0  0  0  0  0  0  0  0
  1  2  1  1  0  0  0
  1  9  1  0  0  0  0
  1 35  1  0  0  0  0
  3  4  1  1  0  0  0
  3 11  1  0  0  0  0
  3 45  1  0  0  0  0
  5  6  1  0  0  0  0
  5 12  1  0  0  0  0
  5 37  1  6  0  0  0
  6 30  1  0  0  0  0
  7 14  1  0  0  0  0
  7 41  1  0  0  0  0
  7 23  1  1  0  0  0
  8 16  2  0  0  0  0
  8 42  1  0  0  0  0
  9 10  1  1  0  0  0
  9 18  1  0  0  0  0
 11 20  1  0  0  0  0
 12 13  1  1  0  0  0
 12 22  1  0  0  0  0
 13 47  1  0  0  0  0
 14 15  1  6  0  0  0
 14 24  1  0  0  0  0
 16 17  1  0  0  0  0
 17 26  2  0  0  0  0
 18 19  1  6  0  0  0
 18 27  1  0  0  0  0
 20 21  1  6  0  0  0
 20 29  1  0  0  0  0
 22 23  1  6  0  0  0
 22 30  1  0  0  0  0
 24 25  1  1  0  0  0
 24 31  1  0  0  0  0
 26 33  1  0  0  0  0
 27 28  1  1  0  0  0
 27 34  1  0  0  0  0
 29  2  1  6  0  0  0
 29 36  1  0  0  0  0
 30 38  1  1  0  0  0
 31 32  1  1  0  0  0
 31 40  1  0  0  0  0
 33 42  2  0  0  0  0
 34 35  1  0  0  0  0
 34 43  1  6  0  0  0
 36 37  1  6  0  0  0
 36 45  1  0  0  0  0
 38 39  1  0  0  0  0
 40 41  1  0  0  0  0
 40 48  1  6  0  0  0
 43 44  1  0  0  0  0
 45 46  1  1  0  0  0
 47 50  1  0  0  0  0
 48 49  1  0  0  0  0
 50 51  1  0  0  0  0
 51 52  1  0  0  0  0
 52  8  1  0  0  0  0
M  END
>  <CHROM.1>
177.05780656,-47.70909652,-155.21517329,58.66972050,-97.69623016,58.78593327
-156.73939363,-58.25508003,-74.34351148,-176.84641197,52.16153967,-59.81576877
97.24092961,-149.50188405,106.92379049,40.55712634,4.18512389,-1.63047434
-1.40098449,-1.36198697,-2.67029092

>  <Name>
2be0_lig

>  <RI>
0

>  <Rbt.Current_Directory>
/home/itssahil/PROJECTS/Mol_Feturizer/New_Systems/rnas/2be0

>  <Rbt.Executable>
rbdock ($Id: //depot/dev/client3/rdock/2013.1/src/exe/rbdock.cxx#4 $)

>  <Rbt.Library>
libRbt.so (2013.1, Build901 2013/11/27)

>  <Rbt.Parameter_File>
/export/apps/rDock/src/rDock_2013.1_src/data/scripts/dock_solv.prm

>  <Rbt.Receptor>
prm/pocket_docking_6.prm

>  <SCORE>
-27.5712

>  <SCORE.INTER>
-10.6021

>  <SCORE.INTER.CONST>
1

>  <SCORE.INTER.POLAR>
-1.13509

>  <SCORE.INTER.ROT>
15

>  <SCORE.INTER.SOLV>
14.0988

>  <SCORE.INTER.VDW>
-21.584

>  <SCORE.INTER.norm>
-0.203886

>  <SCORE.INTRA>
-16.9691

>  <SCORE.INTRA.DIHEDRAL>
-33.4595

>  <SCORE.INTRA.DIHEDRAL.0>
47.8724

>  <SCORE.INTRA.POLAR>
0

>  <SCORE.INTRA.POLAR.0>
0

>  <SCORE.INTRA.REPUL>
0

>  <SCORE.INTRA.REPUL.0>
0

>  <SCORE.INTRA.SOLV>
-0.303117

>  <SCORE.INTRA.SOLV.lig_0>
-115.677

>  <SCORE.INTRA.VDW>
-0.0878295

>  <SCORE.INTRA.VDW.0>
-7.4833

>  <SCORE.INTRA.norm>
-0.326329

>  <SCORE.RESTR>
0

>  <SCORE.RESTR.CAVITY>
0

>  <SCORE.RESTR.norm>
0

>  <SCORE.SYSTEM>
0

>  <SCORE.SYSTEM.CONST>
0

>  <SCORE.SYSTEM.DIHEDRAL>
0

>  <SCORE.SYSTEM.SOLV>
0

>  <SCORE.SYSTEM.norm>
0

>  <SCORE.heavy>
52

>  <SCORE.norm>
-0.530216

>  <RMSD>
8.469

$$$$
2be0_lig
 OpenBabel11021811423D
libRbt.so/2013.1/901 2013/11/27
 52 56  0  0  0  0  0  0  0  0999 V2000
   43.9359   -0.2921   -6.4147 C   0  0  2  0  0  0  0  0  0  0  0  0
   44.3844   -0.6450   -5.1274 O   0  0  0  0  0  0  0  0  0  0  0  0
   43.9152    1.5639   -1.3496 C   0  0  2  0  0  0  0  0  0  0  0  0
   44.1289    2.6048   -0.3054 N   0  0  0  0  0  0  0  0  0  0  0  0
   41.5720    2.4033   -5.0794 C   0  0  2  0  0  0  0  0  0  0  0  0
   40.8488    2.1904   -6.3090 O   0  0  0  0  0  0  0  0  0  0  0  0
   43.4045    5.9828   -7.6655 C   0  0  1  0  0  0  0  0  0  0  0  0
   38.5470    7.5750    0.0788 C   0  0  0  0  0  0  0  0  0  0  0  0
   43.9897   -1.5299   -7.3999 C   0  0  2  0  0  0  0  0  0  0  0  0
   43.2462   -2.6532   -6.8254 N   0  0  0  0  0  0  0  0  0  0  0  0
   45.3077    0.8530   -1.6717 C   0  0  0  0  0  0  0  0  0  0  0  0
   41.9121    3.9010   -5.0191 C   0  0  2  0  0  0  0  0  0  0  0  0
   40.6846    4.5145   -4.4239 O   0  0  0  0  0  0  0  0  0  0  0  0
   44.5826    6.1998   -6.5671 C   0  0  2  0  0  0  0  0  0  0  0  0
   44.0975    7.1625   -5.5262 N   0  0  0  0  0  0  0  0  0  0  0  0
   39.3390    6.6680    0.8566 C   0  0  0  0  0  0  0  0  0  0  0  0
   39.1768    6.6236    2.2661 N   0  0  0  0  0  0  0  0  0  0  0  0
   45.5128   -1.9118   -7.7002 C   0  0  1  0  0  0  0  0  0  0  0  0
   45.5390   -3.0268   -8.5779 O   0  0  0  0  0  0  0  0  0  0  0  0
   45.1188   -0.2886   -2.8254 C   0  0  2  0  0  0  0  0  0  0  0  0
   46.3645   -0.9375   -3.1228 N   0  0  0  0  0  0  0  0  0  0  0  0
   42.2370    4.1289   -6.5075 C   0  0  2  0  0  0  0  0  0  0  0  0
   42.2555    5.4730   -6.9652 O   0  0  0  0  0  0  0  0  0  0  0  0
   45.8307    6.7653   -7.3098 C   0  0  1  0  0  0  0  0  0  0  0  0
   46.2264    5.7387   -8.2880 O   0  0  0  0  0  0  0  0  0  0  0  0
   38.2518    7.4494    2.9665 C   0  0  0  0  0  0  0  0  0  0  0  0
   46.2219   -0.6716   -8.3177 C   0  0  2  0  0  0  0  0  0  0  0  0
   47.6448   -0.9647   -8.6154 O   0  0  0  0  0  0  0  0  0  0  0  0
   44.5359    0.3703   -4.1428 C   0  0  2  0  0  0  0  0  0  0  0  0
   41.2098    3.2322   -7.2390 C   0  0  1  0  0  0  0  0  0  0  0  0
   45.4524    8.1650   -8.0471 C   0  0  2  0  0  0  0  0  0  0  0  0
   45.0555    9.1959   -7.0754 O   0  0  0  0  0  0  0  0  0  0  0  0
   37.4409    8.3645    2.2509 C   0  0  0  0  0  0  0  0  0  0  0  0
   46.1573    0.5502   -7.3225 C   0  0  2  0  0  0  0  0  0  0  0  0
   44.7447    0.7844   -7.0682 O   0  0  0  0  0  0  0  0  0  0  0  0
   43.1785    1.0617   -3.7704 C   0  0  2  0  0  0  0  0  0  0  0  0
   42.7461    1.6005   -5.0138 O   0  0  0  0  0  0  0  0  0  0  0  0
   41.8053    2.5465   -8.4675 C   0  0  0  0  0  0  0  0  0  0  0  0
   42.1604    3.4028   -9.5266 O   0  0  0  0  0  0  0  0  0  0  0  0
   44.2599    7.9156   -9.0808 C   0  0  1  0  0  0  0  0  0  0  0  0
   43.0868    7.3234   -8.3271 O   0  0  0  0  0  0  0  0  0  0  0  0
   37.5729    8.4498    0.7779 C   0  0  0  0  0  0  0  0  0  0  0  0
   46.8220    1.6940   -7.9675 C   0  0  0  0  0  0  0  0  0  0  0  0
   46.9222    2.7030   -7.0931 O   0  0  0  0  0  0  0  0  0  0  0  0
   43.4033    2.1838   -2.6714 C   0  0  1  0  0  0  0  0  0  0  0  0
   42.1908    2.7793   -2.3450 O   0  0  0  0  0  0  0  0  0  0  0  0
   40.3521    5.9519   -4.2838 C   0  0  0  0  0  0  0  0  0  0  0  0
   43.9360    9.2824   -9.7430 C   0  0  0  0  0  0  0  0  0  0  0  0
   43.1156    9.0971  -10.9140 N   0  0  0  0  0  0  0  0  0  0  0  0
   39.0089    6.0370   -3.5516 C   0  0  0  0  0  0  0  0  0  0  0  0
   39.2514    6.2498   -2.0878 N   0  0  0  0  0  0  0  0  0  0  0  0
   38.7507    7.6028   -1.5143 C   0  0  0  0  0  0  0  0  0  0  0  0
  1  2  1  1  0  0  0
  1  9  1  0  0  0  0
  1 35  1  0  0  0  0
  3  4  1  1  0  0  0
  3 11  1  0  0  0  0
  3 45  1  0  0  0  0
  5  6  1  0  0  0  0
  5 12  1  0  0  0  0
  5 37  1  6  0  0  0
  6 30  1  0  0  0  0
  7 14  1  0  0  0  0
  7 41  1  0  0  0  0
  7 23  1  1  0  0  0
  8 16  2  0  0  0  0
  8 42  1  0  0  0  0
  9 10  1  1  0  0  0
  9 18  1  0  0  0  0
 11 20  1  0  0  0  0
 12 13  1  6  0  0  0
 12 22  1  0  0  0  0
 13 47  1  0  0  0  0
 14 15  1  1  0  0  0
 14 24  1  0  0  0  0
 16 17  1  0  0  0  0
 17 26  2  0  0  0  0
 18 19  1  6  0  0  0
 18 27  1  0  0  0  0
 20 21  1  6  0  0  0
 20 29  1  0  0  0  0
 22 23  1  6  0  0  0
 22 30  1  0  0  0  0
 24 25  1  6  0  0  0
 24 31  1  0  0  0  0
 26 33  1  0  0  0  0
 27 28  1  1  0  0  0
 27 34  1  0  0  0  0
 29  2  1  6  0  0  0
 29 36  1  0  0  0  0
 30 38  1  6  0  0  0
 31 32  1  1  0  0  0
 31 40  1  0  0  0  0
 33 42  2  0  0  0  0
 34 35  1  0  0  0  0
 34 43  1  6  0  0  0
 36 37  1  6  0  0  0
 36 45  1  0  0  0  0
 38 39  1  0  0  0  0
 40 41  1  0  0  0  0
 40 48  1  1  0  0  0
 43 44  1  0  0  0  0
 45 46  1  1  0  0  0
 47 50  1  0  0  0  0
 48 49  1  0  0  0  0
 50 51  1  0  0  0  0
 51 52  1  0  0  0  0
 52  8  1  0  0  0  0
M  END
>  <CHROM.1>
173.65022847,-144.76698327,-73.71951815,-171.27278729,-177.49940586,126.93016787
-177.12614096,176.92212906,-172.94638715,-175.47449250,165.65187600,96.07264148
115.33106905,159.31649600,27.38202959,43.07346025,3.64766502,-5.20566842
0.17051982,-1.00610127,2.56241729

>  <Name>
2be0_lig

>  <RI>
0

>  <Rbt.Current_Directory>
/home/itssahil/PROJECTS/Mol_Feturizer/New_Systems/rnas/2be0

>  <Rbt.Executable>
rbdock ($Id: //depot/dev/client3/rdock/2013.1/src/exe/rbdock.cxx#4 $)

>  <Rbt.Library>
libRbt.so (2013.1, Build901 2013/11/27)

>  <Rbt.Parameter_File>
/export/apps/rDock/src/rDock_2013.1_src/data/scripts/dock_solv.prm

>  <Rbt.Receptor>
prm/pocket_docking_7.prm

>  <SCORE>
-23.4934

>  <SCORE.INTER>
-9.5132

>  <SCORE.INTER.CONST>
1

>  <SCORE.INTER.POLAR>
-0.94636

>  <SCORE.INTER.ROT>
15

>  <SCORE.INTER.SOLV>
20.428

>  <SCORE.INTER.VDW>
-23.5969

>  <SCORE.INTER.norm>
-0.182946

>  <SCORE.INTRA>
-13.9874

>  <SCORE.INTRA.DIHEDRAL>
-27.5132

>  <SCORE.INTRA.DIHEDRAL.0>
47.8724

>  <SCORE.INTRA.POLAR>
0

>  <SCORE.INTRA.POLAR.0>
0

>  <SCORE.INTRA.REPUL>
0

>  <SCORE.INTRA.REPUL.0>
0

>  <SCORE.INTRA.SOLV>
-3.75275

>  <SCORE.INTRA.SOLV.lig_0>
-115.677

>  <SCORE.INTRA.VDW>
1.64557

>  <SCORE.INTRA.VDW.0>
-7.4833

>  <SCORE.INTRA.norm>
-0.268988

>  <SCORE.RESTR>
0.00720369

>  <SCORE.RESTR.CAVITY>
0.00720369

>  <SCORE.RESTR.norm>
0.000138532

>  <SCORE.SYSTEM>
0

>  <SCORE.SYSTEM.CONST>
0

>  <SCORE.SYSTEM.DIHEDRAL>
0

>  <SCORE.SYSTEM.SOLV>
0

>  <SCORE.SYSTEM.norm>
0

>  <SCORE.heavy>
52

>  <SCORE.norm>
-0.451796

>  <RMSD>
8.492

$$$$
2be0_lig
 OpenBabel11021811423D
libRbt.so/2013.1/901 2013/11/27
 52 56  0  0  0  0  0  0  0  0999 V2000
   45.1625    2.4778   -8.0960 C   0  0  2  0  0  0  0  0  0  0  0  0
   44.6862    3.6828   -7.5447 O   0  0  0  0  0  0  0  0  0  0  0  0
   41.0766    4.7156   -5.2480 C   0  0  2  0  0  0  0  0  0  0  0  0
   39.6339    4.8669   -4.9084 N   0  0  0  0  0  0  0  0  0  0  0  0
   43.4120    0.8023   -4.9773 C   0  0  2  0  0  0  0  0  0  0  0  0
   44.7658    0.4618   -4.6146 O   0  0  0  0  0  0  0  0  0  0  0  0
   42.5793   -3.1630   -6.8671 C   0  0  1  0  0  0  0  0  0  0  0  0
   38.3870   -1.2735   -3.7226 C   0  0  0  0  0  0  0  0  0  0  0  0
   46.7209    2.5469   -8.3649 C   0  0  2  0  0  0  0  0  0  0  0  0
   47.4196    2.9263   -7.1351 N   0  0  0  0  0  0  0  0  0  0  0  0
   41.3724    5.4731   -6.6216 C   0  0  0  0  0  0  0  0  0  0  0  0
   42.7101   -0.5124   -5.3534 C   0  0  2  0  0  0  0  0  0  0  0  0
   42.2416   -1.0473   -4.0374 O   0  0  0  0  0  0  0  0  0  0  0  0
   42.8099   -4.7671   -6.9892 C   0  0  2  0  0  0  0  0  0  0  0  0
   44.0092   -5.0157   -7.8526 N   0  0  0  0  0  0  0  0  0  0  0  0
   37.6446   -0.1404   -3.2538 C   0  0  0  0  0  0  0  0  0  0  0  0
   37.2575    0.8740   -4.1682 N   0  0  0  0  0  0  0  0  0  0  0  0
   47.0153    3.5678   -9.5595 C   0  0  1  0  0  0  0  0  0  0  0  0
   48.4164    3.6209   -9.7793 O   0  0  0  0  0  0  0  0  0  0  0  0
   42.9449    5.3189   -7.0378 C   0  0  2  0  0  0  0  0  0  0  0  0
   43.2247    5.9982   -8.2714 N   0  0  0  0  0  0  0  0  0  0  0  0
   43.8764   -1.2004   -6.0877 C   0  0  2  0  0  0  0  0  0  0  0  0
   43.7730   -2.6019   -6.2919 O   0  0  0  0  0  0  0  0  0  0  0  0
   41.5288   -5.3875   -7.6240 C   0  0  1  0  0  0  0  0  0  0  0  0
   40.4273   -5.0988   -6.6909 O   0  0  0  0  0  0  0  0  0  0  0  0
   37.5740    0.8287   -5.5560 C   0  0  0  0  0  0  0  0  0  0  0  0
   46.2483    3.0845  -10.8245 C   0  0  2  0  0  0  0  0  0  0  0  0
   46.4803    3.9976  -11.9697 O   0  0  0  0  0  0  0  0  0  0  0  0
   43.3149    3.7852   -7.1808 C   0  0  2  0  0  0  0  0  0  0  0  0
   45.1165   -0.7771   -5.2649 C   0  0  1  0  0  0  0  0  0  0  0  0
   41.2530   -4.7228   -9.0827 C   0  0  2  0  0  0  0  0  0  0  0  0
   42.3502   -5.0069  -10.0207 O   0  0  0  0  0  0  0  0  0  0  0  0
   38.3049   -0.2671   -6.0774 C   0  0  0  0  0  0  0  0  0  0  0  0
   44.6988    3.0217  -10.5369 C   0  0  2  0  0  0  0  0  0  0  0  0
   44.5380    2.1190   -9.4081 O   0  0  0  0  0  0  0  0  0  0  0  0
   42.9965    3.0878   -5.8128 C   0  0  2  0  0  0  0  0  0  0  0  0
   43.3742    1.7372   -6.0506 O   0  0  0  0  0  0  0  0  0  0  0  0
   46.3306   -0.4896   -6.1466 C   0  0  0  0  0  0  0  0  0  0  0  0
   47.5248   -0.2037   -5.4585 O   0  0  0  0  0  0  0  0  0  0  0  0
   41.0809   -3.1424   -8.9225 C   0  0  1  0  0  0  0  0  0  0  0  0
   42.3256   -2.5883   -8.2603 O   0  0  0  0  0  0  0  0  0  0  0  0
   38.7332   -1.3517   -5.1637 C   0  0  0  0  0  0  0  0  0  0  0  0
   44.0319    2.5397  -11.7571 C   0  0  0  0  0  0  0  0  0  0  0  0
   44.0527    3.5028  -12.6870 O   0  0  0  0  0  0  0  0  0  0  0  0
   41.4574    3.2305   -5.4551 C   0  0  1  0  0  0  0  0  0  0  0  0
   41.1936    2.6169   -4.2363 O   0  0  0  0  0  0  0  0  0  0  0  0
   41.3819   -0.3828   -3.0296 C   0  0  0  0  0  0  0  0  0  0  0  0
   40.8324   -2.5636  -10.3419 C   0  0  0  0  0  0  0  0  0  0  0  0
   40.6790   -1.1311  -10.2860 N   0  0  0  0  0  0  0  0  0  0  0  0
   41.0815   -1.4155   -1.9385 C   0  0  0  0  0  0  0  0  0  0  0  0
   40.3484   -2.5768   -2.5390 N   0  0  0  0  0  0  0  0  0  0  0  0
   38.8105   -2.4067   -2.6657 C   0  0  0  0  0  0  0  0  0  0  0  0
  1  2  1  6  0  0  0
  1  9  1  0  0  0  0
  1 35  1  0  0  0  0
  3  4  1  6  0  0  0
  3 11  1  0  0  0  0
  3 45  1  0  0  0  0
  5  6  1  0  0  0  0
  5 12  1  0  0  0  0
  5 37  1  6  0  0  0
  6 30  1  0  0  0  0
  7 14  1  0  0  0  0
  7 41  1  0  0  0  0
  7 23  1  6  0  0  0
  8 16  2  0  0  0  0
  8 42  1  0  0  0  0
  9 10  1  1  0  0  0
  9 18  1  0  0  0  0
 11 20  1  0  0  0  0
 12 13  1  1  0  0  0
 12 22  1  0  0  0  0
 13 47  1  0  0  0  0
 14 15  1  6  0  0  0
 14 24  1  0  0  0  0
 16 17  1  0  0  0  0
 17 26  2  0  0  0  0
 18 19  1  6  0  0  0
 18 27  1  0  0  0  0
 20 21  1  6  0  0  0
 20 29  1  0  0  0  0
 22 23  1  1  0  0  0
 22 30  1  0  0  0  0
 24 25  1  1  0  0  0
 24 31  1  0  0  0  0
 26 33  1  0  0  0  0
 27 28  1  6  0  0  0
 27 34  1  0  0  0  0
 29  2  1  1  0  0  0
 29 36  1  0  0  0  0
 30 38  1  6  0  0  0
 31 32  1  6  0  0  0
 31 40  1  0  0  0  0
 33 42  2  0  0  0  0
 34 35  1  0  0  0  0
 34 43  1  6  0  0  0
 36 37  1  6  0  0  0
 36 45  1  0  0  0  0
 38 39  1  0  0  0  0
 40 41  1  0  0  0  0
 40 48  1  6  0  0  0
 43 44  1  0  0  0  0
 45 46  1  1  0  0  0
 47 50  1  0  0  0  0
 48 49  1  0  0  0  0
 50 51  1  0  0  0  0
 51 52  1  0  0  0  0
 52  8  1  0  0  0  0
M  END
>  <CHROM.1>
-177.25018537,-107.77671201,178.72102643,55.71888910,174.05365786,50.32612775
-162.13065378,68.66718830,-72.29390540,171.22373234,-179.42242633,-61.15097491
-84.49330571,67.04152697,-118.48443768,42.74401132,0.41720961,-6.91640389
-0.59439243,-0.78533068,-2.92916383

>  <Name>
2be0_lig

>  <RI>
0

>  <Rbt.Current_Directory>
/home/itssahil/PROJECTS/Mol_Feturizer/New_Systems/rnas/2be0

>  <Rbt.Executable>
rbdock ($Id: //depot/dev/client3/rdock/2013.1/src/exe/rbdock.cxx#4 $)

>  <Rbt.Library>
libRbt.so (2013.1, Build901 2013/11/27)

>  <Rbt.Parameter_File>
/export/apps/rDock/src/rDock_2013.1_src/data/scripts/dock_solv.prm

>  <Rbt.Receptor>
prm/pocket_docking_6.prm

>  <SCORE>
-11.6199

>  <SCORE.INTER>
7.34984

>  <SCORE.INTER.CONST>
1

>  <SCORE.INTER.POLAR>
0

>  <SCORE.INTER.ROT>
15

>  <SCORE.INTER.SOLV>
6.32776

>  <SCORE.INTER.VDW>
-10.8094

>  <SCORE.INTER.norm>
0.141343

>  <SCORE.INTRA>
-18.9697

>  <SCORE.INTRA.DIHEDRAL>
-36.3082

>  <SCORE.INTRA.DIHEDRAL.0>
47.8724

>  <SCORE.INTRA.POLAR>
0

>  <SCORE.INTRA.POLAR.0>
0

>  <SCORE.INTRA.REPUL>
0

>  <SCORE.INTRA.REPUL.0>
0

>  <SCORE.INTRA.SOLV>
-2.76531

>  <SCORE.INTRA.SOLV.lig_0>
-115.677

>  <SCORE.INTRA.VDW>
0.567074

>  <SCORE.INTRA.VDW.0>
-7.4833

>  <SCORE.INTRA.norm>
-0.364802

>  <SCORE.RESTR>
0

>  <SCORE.RESTR.CAVITY>
0

>  <SCORE.RESTR.norm>
0

>  <SCORE.SYSTEM>
0

>  <SCORE.SYSTEM.CONST>
0

>  <SCORE.SYSTEM.DIHEDRAL>
0

>  <SCORE.SYSTEM.SOLV>
0

>  <SCORE.SYSTEM.norm>
0

>  <SCORE.heavy>
52

>  <SCORE.norm>
-0.223459

>  <RMSD>
8.503

$$$$
2be0_lig
 OpenBabel11021811423D
libRbt.so/2013.1/901 2013/11/27
 52 56  0  0  0  0  0  0  0  0999 V2000
   40.4823    2.4951   -4.9946 C   0  0  2  0  0  0  0  0  0  0  0  0
   41.8464    2.8056   -4.8343 O   0  0  0  0  0  0  0  0  0  0  0  0
   45.2510    0.2679   -3.6768 C   0  0  2  0  0  0  0  0  0  0  0  0
   46.2126   -0.8700   -3.6919 N   0  0  0  0  0  0  0  0  0  0  0  0
   45.1837    4.1038   -6.3618 C   0  0  2  0  0  0  0  0  0  0  0  0
   45.0041    5.1305   -5.3649 O   0  0  0  0  0  0  0  0  0  0  0  0
   44.6522    7.5207   -8.8525 C   0  0  1  0  0  0  0  0  0  0  0  0
   49.2864    2.1541   -9.7408 C   0  0  0  0  0  0  0  0  0  0  0  0
   39.7732    3.5165   -5.9743 C   0  0  2  0  0  0  0  0  0  0  0  0
   40.4989    3.5692   -7.2452 N   0  0  0  0  0  0  0  0  0  0  0  0
   43.7670   -0.3038   -3.5375 C   0  0  0  0  0  0  0  0  0  0  0  0
   44.9846    4.7751   -7.7301 C   0  0  2  0  0  0  0  0  0  0  0  0
   46.3344    5.3390   -8.0425 O   0  0  0  0  0  0  0  0  0  0  0  0
   45.5095    8.1919   -7.6459 C   0  0  2  0  0  0  0  0  0  0  0  0
   44.6083    9.0973   -6.8623 N   0  0  0  0  0  0  0  0  0  0  0  0
   50.5285    2.4326  -10.4001 C   0  0  0  0  0  0  0  0  0  0  0  0
   50.5502    2.6276  -11.8060 N   0  0  0  0  0  0  0  0  0  0  0  0
   39.6807    4.9527   -5.2782 C   0  0  1  0  0  0  0  0  0  0  0  0
   39.0497    5.8542   -6.1744 O   0  0  0  0  0  0  0  0  0  0  0  0
   42.6783    0.9146   -3.5313 C   0  0  2  0  0  0  0  0  0  0  0  0
   41.3388    0.4135   -3.4042 N   0  0  0  0  0  0  0  0  0  0  0  0
   43.8263    5.7215   -7.3618 C   0  0  2  0  0  0  0  0  0  0  0  0
   43.5636    6.7962   -8.2520 O   0  0  0  0  0  0  0  0  0  0  0  0
   46.6856    8.9922   -8.2825 C   0  0  1  0  0  0  0  0  0  0  0  0
   47.5067    8.0084   -9.0072 O   0  0  0  0  0  0  0  0  0  0  0  0
   49.3812    2.5587  -12.6164 C   0  0  0  0  0  0  0  0  0  0  0  0
   38.8868    4.8079   -3.9474 C   0  0  2  0  0  0  0  0  0  0  0  0
   38.7709    6.1122   -3.2514 O   0  0  0  0  0  0  0  0  0  0  0  0
   42.8056    1.7557   -4.8676 C   0  0  2  0  0  0  0  0  0  0  0  0
   44.1755    6.1710   -5.9230 C   0  0  1  0  0  0  0  0  0  0  0  0
   46.1039   10.1288   -9.2903 C   0  0  2  0  0  0  0  0  0  0  0  0
   45.2818   11.1156   -8.5729 O   0  0  0  0  0  0  0  0  0  0  0  0
   48.1248    2.2878  -12.0206 C   0  0  0  0  0  0  0  0  0  0  0  0
   39.6080    3.7868   -2.9858 C   0  0  2  0  0  0  0  0  0  0  0  0
   39.6943    2.5361   -3.7228 O   0  0  0  0  0  0  0  0  0  0  0  0
   44.2794    2.2833   -4.9610 C   0  0  2  0  0  0  0  0  0  0  0  0
   44.2740    3.0244   -6.1751 O   0  0  0  0  0  0  0  0  0  0  0  0
   42.9400    6.2832   -5.0314 C   0  0  0  0  0  0  0  0  0  0  0  0
   43.1941    6.5746   -3.6780 O   0  0  0  0  0  0  0  0  0  0  0  0
   45.2293    9.4304  -10.4305 C   0  0  1  0  0  0  0  0  0  0  0  0
   44.1292    8.6271   -9.7678 O   0  0  0  0  0  0  0  0  0  0  0  0
   48.0489    2.0757  -10.5565 C   0  0  0  0  0  0  0  0  0  0  0  0
   38.8030    3.6758   -1.7587 C   0  0  0  0  0  0  0  0  0  0  0  0
   39.4672    2.9459   -0.8538 O   0  0  0  0  0  0  0  0  0  0  0  0
   45.3068    1.0747   -4.9956 C   0  0  1  0  0  0  0  0  0  0  0  0
   46.6077    1.5585   -5.0679 O   0  0  0  0  0  0  0  0  0  0  0  0
   47.5792    4.6086   -8.3791 C   0  0  0  0  0  0  0  0  0  0  0  0
   44.6937   10.5600  -11.3517 C   0  0  0  0  0  0  0  0  0  0  0  0
   45.7752   11.1787  -12.0772 N   0  0  0  0  0  0  0  0  0  0  0  0
   48.0893    3.9630   -7.0867 C   0  0  0  0  0  0  0  0  0  0  0  0
   49.3909    3.2699   -7.3553 N   0  0  0  0  0  0  0  0  0  0  0  0
   49.2915    1.9393   -8.1489 C   0  0  0  0  0  0  0  0  0  0  0  0
  1  2  1  1  0  0  0
  1  9  1  0  0  0  0
  1 35  1  0  0  0  0
  3  4  1  6  0  0  0
  3 11  1  0  0  0  0
  3 45  1  0  0  0  0
  5  6  1  0  0  0  0
  5 12  1  0  0  0  0
  5 37  1  1  0  0  0
  6 30  1  0  0  0  0
  7 14  1  0  0  0  0
  7 41  1  0  0  0  0
  7 23  1  1  0  0  0
  8 16  2  0  0  0  0
  8 42  1  0  0  0  0
  9 10  1  6  0  0  0
  9 18  1  0  0  0  0
 11 20  1  0  0  0  0
 12 13  1  1  0  0  0
 12 22  1  0  0  0  0
 13 47  1  0  0  0  0
 14 15  1  6  0  0  0
 14 24  1  0  0  0  0
 16 17  1  0  0  0  0
 17 26  2  0  0  0  0
 18 19  1  6  0  0  0
 18 27  1  0  0  0  0
 20 21  1  6  0  0  0
 20 29  1  0  0  0  0
 22 23  1  6  0  0  0
 22 30  1  0  0  0  0
 24 25  1  6  0  0  0
 24 31  1  0  0  0  0
 26 33  1  0  0  0  0
 27 28  1  1  0  0  0
 27 34  1  0  0  0  0
 29  2  1  1  0  0  0
 29 36  1  0  0  0  0
 30 38  1  1  0  0  0
 31 32  1  1  0  0  0
 31 40  1  0  0  0  0
 33 42  2  0  0  0  0
 34 35  1  0  0  0  0
 34 43  1  1  0  0  0
 36 37  1  6  0  0  0
 36 45  1  0  0  0  0
 38 39  1  0  0  0  0
 40 41  1  0  0  0  0
 40 48  1  6  0  0  0
 43 44  1  0  0  0  0
 45 46  1  1  0  0  0
 47 50  1  0  0  0  0
 48 49  1  0  0  0  0
 50 51  1  0  0  0  0
 51 52  1  0  0  0  0
 52  8  1  0  0  0  0
M  END
>  <CHROM.1>
-136.18645359,-59.68487421,-61.02855621,69.54688676,-73.11038787,-40.26878556
-72.12555261,58.43167432,-172.44928083,153.14457346,67.48354926,-176.97781975
-73.94214890,86.09674370,77.49919227,44.33959549,4.64000696,-6.73666442,-2.52468015
0.57340297,-0.45348332

>  <Name>
2be0_lig

>  <RI>
0

>  <Rbt.Current_Directory>
/home/itssahil/PROJECTS/Mol_Feturizer/New_Systems/rnas/2be0

>  <Rbt.Executable>
rbdock ($Id: //depot/dev/client3/rdock/2013.1/src/exe/rbdock.cxx#4 $)

>  <Rbt.Library>
libRbt.so (2013.1, Build901 2013/11/27)

>  <Rbt.Parameter_File>
/export/apps/rDock/src/rDock_2013.1_src/data/scripts/dock_solv.prm

>  <Rbt.Receptor>
prm/pocket_docking_7.prm

>  <SCORE>
-21.3512

>  <SCORE.INTER>
-7.28922

>  <SCORE.INTER.CONST>
1

>  <SCORE.INTER.POLAR>
-0.802298

>  <SCORE.INTER.ROT>
15

>  <SCORE.INTER.SOLV>
14.5916

>  <SCORE.INTER.VDW>
-20.649

>  <SCORE.INTER.norm>
-0.140177

>  <SCORE.INTRA>
-14.0784

>  <SCORE.INTRA.DIHEDRAL>
-32.9405

>  <SCORE.INTRA.DIHEDRAL.0>
47.8724

>  <SCORE.INTRA.POLAR>
0

>  <SCORE.INTRA.POLAR.0>
0

>  <SCORE.INTRA.REPUL>
0

>  <SCORE.INTRA.REPUL.0>
0

>  <SCORE.INTRA.SOLV>
1.94976

>  <SCORE.INTRA.SOLV.lig_0>
-115.677

>  <SCORE.INTRA.VDW>
1.41693

>  <SCORE.INTRA.VDW.0>
-7.4833

>  <SCORE.INTRA.norm>
-0.270739

>  <SCORE.RESTR>
0.0164005

>  <SCORE.RESTR.CAVITY>
0.0164005

>  <SCORE.RESTR.norm>
0.000315394

>  <SCORE.SYSTEM>
0

>  <SCORE.SYSTEM.CONST>
0

>  <SCORE.SYSTEM.DIHEDRAL>
0

>  <SCORE.SYSTEM.SOLV>
0

>  <SCORE.SYSTEM.norm>
0

>  <SCORE.heavy>
52

>  <SCORE.norm>
-0.410601

>  <RMSD>
8.525

$$$$
2be0_lig
 OpenBabel11021811423D
libRbt.so/2013.1/901 2013/11/27
 52 56  0  0  0  0  0  0  0  0999 V2000
   41.6937    7.1480   -1.1844 C   0  0  2  0  0  0  0  0  0  0  0  0
   41.9144    6.2594   -0.1146 O   0  0  0  0  0  0  0  0  0  0  0  0
   40.1084    2.5814    1.4922 C   0  0  2  0  0  0  0  0  0  0  0  0
   39.2846    1.3416    1.5517 N   0  0  0  0  0  0  0  0  0  0  0  0
   42.7313    3.2385   -1.9593 C   0  0  2  0  0  0  0  0  0  0  0  0
   43.0726    1.8396   -2.0420 O   0  0  0  0  0  0  0  0  0  0  0  0
   45.2232    3.0295   -5.4317 C   0  0  1  0  0  0  0  0  0  0  0  0
   38.6181    1.5304   -5.3629 C   0  0  0  0  0  0  0  0  0  0  0  0
   42.8926    8.1703   -1.3372 C   0  0  2  0  0  0  0  0  0  0  0  0
   44.1557    7.4387   -1.4552 N   0  0  0  0  0  0  0  0  0  0  0  0
   39.1677    3.8167    1.1213 C   0  0  0  0  0  0  0  0  0  0  0  0
   43.5073    3.9508   -3.0786 C   0  0  2  0  0  0  0  0  0  0  0  0
   42.6240    3.7881   -4.2746 O   0  0  0  0  0  0  0  0  0  0  0  0
   44.9608    1.4331   -5.5871 C   0  0  2  0  0  0  0  0  0  0  0  0
   46.2488    0.7083   -5.3393 N   0  0  0  0  0  0  0  0  0  0  0  0
   39.8923    0.9032   -5.1683 C   0  0  0  0  0  0  0  0  0  0  0  0
   40.0162   -0.1647   -4.2414 N   0  0  0  0  0  0  0  0  0  0  0  0
   42.8994    9.1795   -0.0973 C   0  0  1  0  0  0  0  0  0  0  0  0
   43.9846   10.0815   -0.2493 O   0  0  0  0  0  0  0  0  0  0  0  0
   40.0375    5.1970    1.0318 C   0  0  2  0  0  0  0  0  0  0  0  0
   39.2020    6.3168    0.7008 N   0  0  0  0  0  0  0  0  0  0  0  0
   44.8273    3.1618   -2.9889 C   0  0  2  0  0  0  0  0  0  0  0  0
   45.7108    3.2548   -4.0967 O   0  0  0  0  0  0  0  0  0  0  0  0
   44.4446    1.1720   -7.0343 C   0  0  1  0  0  0  0  0  0  0  0  0
   43.1784    1.9127   -7.1584 O   0  0  0  0  0  0  0  0  0  0  0  0
   38.9213   -0.6578   -3.4757 C   0  0  0  0  0  0  0  0  0  0  0  0
   41.5316    9.9207   -0.0545 C   0  0  2  0  0  0  0  0  0  0  0  0
   41.4763   10.8719    1.0819 O   0  0  0  0  0  0  0  0  0  0  0  0
   41.1768    5.0445   -0.0582 C   0  0  2  0  0  0  0  0  0  0  0  0
   44.3613    1.7194   -2.6787 C   0  0  1  0  0  0  0  0  0  0  0  0
   45.5396    1.6937   -8.1181 C   0  0  2  0  0  0  0  0  0  0  0  0
   46.8080    0.9580   -7.9997 O   0  0  0  0  0  0  0  0  0  0  0  0
   37.6375   -0.0781   -3.6263 C   0  0  0  0  0  0  0  0  0  0  0  0
   40.3507    8.8863    0.0973 C   0  0  2  0  0  0  0  0  0  0  0  0
   40.4611    7.9842   -1.0380 O   0  0  0  0  0  0  0  0  0  0  0  0
   42.0627    3.8153    0.3461 C   0  0  2  0  0  0  0  0  0  0  0  0
   43.0458    3.7821   -0.6813 O   0  0  0  0  0  0  0  0  0  0  0  0
   45.2831    1.0093   -1.6886 C   0  0  0  0  0  0  0  0  0  0  0  0
   46.5983    0.7868   -2.1380 O   0  0  0  0  0  0  0  0  0  0  0  0
   45.8028    3.2542   -7.8982 C   0  0  1  0  0  0  0  0  0  0  0  0
   46.2564    3.4681   -6.4688 O   0  0  0  0  0  0  0  0  0  0  0  0
   37.4559    1.0402   -4.5806 C   0  0  0  0  0  0  0  0  0  0  0  0
   39.0875    9.6413    0.1101 C   0  0  0  0  0  0  0  0  0  0  0  0
   38.9293   10.2664   -1.0633 O   0  0  0  0  0  0  0  0  0  0  0  0
   41.1936    2.4887    0.3935 C   0  0  1  0  0  0  0  0  0  0  0  0
   41.9901    1.4114    0.7629 O   0  0  0  0  0  0  0  0  0  0  0  0
   41.2254    4.2449   -4.4522 C   0  0  0  0  0  0  0  0  0  0  0  0
   46.8596    3.6917   -8.9487 C   0  0  0  0  0  0  0  0  0  0  0  0
   46.3417    3.5347  -10.2850 N   0  0  0  0  0  0  0  0  0  0  0  0
   40.7834    3.8165   -5.8552 C   0  0  0  0  0  0  0  0  0  0  0  0
   39.3015    3.9978   -5.9884 N   0  0  0  0  0  0  0  0  0  0  0  0
   38.5070    2.7355   -6.4192 C   0  0  0  0  0  0  0  0  0  0  0  0
  1  2  1  1  0  0  0
  1  9  1  0  0  0  0
  1 35  1  0  0  0  0
  3  4  1  6  0  0  0
  3 11  1  0  0  0  0
  3 45  1  0  0  0  0
  5  6  1  0  0  0  0
  5 12  1  0  0  0  0
  5 37  1  1  0  0  0
  6 30  1  0  0  0  0
  7 14  1  0  0  0  0
  7 41  1  0  0  0  0
  7 23  1  1  0  0  0
  8 16  2  0  0  0  0
  8 42  1  0  0  0  0
  9 10  1  1  0  0  0
  9 18  1  0  0  0  0
 11 20  1  0  0  0  0
 12 13  1  6  0  0  0
 12 22  1  0  0  0  0
 13 47  1  0  0  0  0
 14 15  1  6  0  0  0
 14 24  1  0  0  0  0
 16 17  1  0  0  0  0
 17 26  2  0  0  0  0
 18 19  1  6  0  0  0
 18 27  1  0  0  0  0
 20 21  1  6  0  0  0
 20 29  1  0  0  0  0
 22 23  1  6  0  0  0
 22 30  1  0  0  0  0
 24 25  1  6  0  0  0
 24 31  1  0  0  0  0
 26 33  1  0  0  0  0
 27 28  1  1  0  0  0
 27 34  1  0  0  0  0
 29  2  1  1  0  0  0
 29 36  1  0  0  0  0
 30 38  1  1  0  0  0
 31 32  1  1  0  0  0
 31 40  1  0  0  0  0
 33 42  2  0  0  0  0
 34 35  1  0  0  0  0
 34 43  1  6  0  0  0
 36 37  1  6  0  0  0
 36 45  1  0  0  0  0
 38 39  1  0  0  0  0
 40 41  1  0  0  0  0
 40 48  1  6  0  0  0
 43 44  1  0  0  0  0
 45 46  1  1  0  0  0
 47 50  1  0  0  0  0
 48 49  1  0  0  0  0
 50 51  1  0  0  0  0
 51 52  1  0  0  0  0
 52  8  1  0  0  0  0
M  END
>  <CHROM.1>
-161.46940529,-92.94811929,-73.13214906,59.16231181,-179.59221906,-50.24603894
-103.57143702,179.46926573,63.20969790,-78.40362403,63.68160107,168.44066574
-124.79115544,62.18252674,-66.28769743,42.34842783,4.01703695,-2.92985418
-2.08507285,-0.64455458,-2.60705483

>  <Name>
2be0_lig

>  <RI>
2.75444e+07

>  <Rbt.Current_Directory>
/home/itssahil/PROJECTS/Mol_Feturizer/New_Systems/rnas/2be0

>  <Rbt.Executable>
rbdock ($Id: //depot/dev/client3/rdock/2013.1/src/exe/rbdock.cxx#4 $)

>  <Rbt.Library>
libRbt.so (2013.1, Build901 2013/11/27)

>  <Rbt.Parameter_File>
/export/apps/rDock/src/rDock_2013.1_src/data/scripts/dock_solv.prm

>  <Rbt.Receptor>
prm/pocket_docking_5.prm

>  <SCORE>
-13.6148

>  <SCORE.INTER>
-1.18498

>  <SCORE.INTER.CONST>
1

>  <SCORE.INTER.POLAR>
-0.894427

>  <SCORE.INTER.ROT>
15

>  <SCORE.INTER.SOLV>
11.4501

>  <SCORE.INTER.VDW>
-15.2253

>  <SCORE.INTER.norm>
-0.022788

>  <SCORE.INTRA>
-12.4298

>  <SCORE.INTRA.DIHEDRAL>
-30.4184

>  <SCORE.INTRA.DIHEDRAL.0>
47.8724

>  <SCORE.INTRA.POLAR>
0

>  <SCORE.INTRA.POLAR.0>
0

>  <SCORE.INTRA.REPUL>
0.000550893

>  <SCORE.INTRA.REPUL.0>
0

>  <SCORE.INTRA.SOLV>
2.86268

>  <SCORE.INTRA.SOLV.lig_0>
-115.677

>  <SCORE.INTRA.VDW>
1.34528

>  <SCORE.INTRA.VDW.0>
-7.4833

>  <SCORE.INTRA.norm>
-0.239035

>  <SCORE.RESTR>
0

>  <SCORE.RESTR.CAVITY>
0

>  <SCORE.RESTR.norm>
0

>  <SCORE.SYSTEM>
0

>  <SCORE.SYSTEM.CONST>
0

>  <SCORE.SYSTEM.DIHEDRAL>
0

>  <SCORE.SYSTEM.SOLV>
0

>  <SCORE.SYSTEM.norm>
0

>  <SCORE.heavy>
52

>  <SCORE.norm>
-0.261823

>  <RMSD>
8.530

$$$$
2be0_lig
 OpenBabel11021811423D
libRbt.so/2013.1/901 2013/11/27
 52 56  0  0  0  0  0  0  0  0999 V2000
   40.0000    8.1335   -1.8886 C   0  0  2  0  0  0  0  0  0  0  0  0
   40.6844    7.1386   -1.1642 O   0  0  0  0  0  0  0  0  0  0  0  0
   39.8935    3.1373    0.4897 C   0  0  2  0  0  0  0  0  0  0  0  0
   39.1319    1.9682    1.0117 N   0  0  0  0  0  0  0  0  0  0  0  0
   40.1986    4.1157   -3.9124 C   0  0  2  0  0  0  0  0  0  0  0  0
   41.6004    3.8287   -4.0933 O   0  0  0  0  0  0  0  0  0  0  0  0
   42.2911    6.1758   -7.5922 C   0  0  1  0  0  0  0  0  0  0  0  0
   41.4889   -1.3172   -7.0076 C   0  0  0  0  0  0  0  0  0  0  0  0
   40.9329    9.3806   -2.1714 C   0  0  2  0  0  0  0  0  0  0  0  0
   42.1632    8.9395   -2.8319 N   0  0  0  0  0  0  0  0  0  0  0  0
   39.5297    4.4274    1.3567 C   0  0  0  0  0  0  0  0  0  0  0  0
   39.6830    4.6676   -5.2511 C   0  0  2  0  0  0  0  0  0  0  0  0
   39.3481    3.4360   -6.0311 O   0  0  0  0  0  0  0  0  0  0  0  0
   42.0298    6.7648   -9.0842 C   0  0  2  0  0  0  0  0  0  0  0  0
   41.2545    5.7524   -9.8714 N   0  0  0  0  0  0  0  0  0  0  0  0
   42.6238   -0.6083   -6.4937 C   0  0  0  0  0  0  0  0  0  0  0  0
   43.7641   -1.3305   -6.0543 N   0  0  0  0  0  0  0  0  0  0  0  0
   41.2317   10.1497   -0.8021 C   0  0  1  0  0  0  0  0  0  0  0  0
   42.0744   11.2583   -1.0760 O   0  0  0  0  0  0  0  0  0  0  0  0
   40.3356    5.7379    0.8061 C   0  0  2  0  0  0  0  0  0  0  0  0
   40.0186    6.9053    1.5794 N   0  0  0  0  0  0  0  0  0  0  0  0
   40.9087    5.5133   -5.6450 C   0  0  2  0  0  0  0  0  0  0  0  0
   41.0039    5.9175   -7.0029 O   0  0  0  0  0  0  0  0  0  0  0  0
   43.4170    7.0368   -9.7407 C   0  0  1  0  0  0  0  0  0  0  0  0
   44.0776    8.0487   -8.8999 O   0  0  0  0  0  0  0  0  0  0  0  0
   43.8447   -2.7517   -6.0946 C   0  0  0  0  0  0  0  0  0  0  0  0
   39.8770   10.5924   -0.1768 C   0  0  2  0  0  0  0  0  0  0  0  0
   40.0901   11.3106    1.1030 O   0  0  0  0  0  0  0  0  0  0  0  0
   39.9709    5.9933   -0.7142 C   0  0  2  0  0  0  0  0  0  0  0  0
   42.1038    4.6581   -5.1608 C   0  0  1  0  0  0  0  0  0  0  0  0
   44.2847    5.6622   -9.7974 C   0  0  2  0  0  0  0  0  0  0  0  0
   43.6302    4.6458  -10.6358 O   0  0  0  0  0  0  0  0  0  0  0  0
   42.7543   -3.5062   -6.5934 C   0  0  0  0  0  0  0  0  0  0  0  0
   38.9621    9.3371    0.0970 C   0  0  2  0  0  0  0  0  0  0  0  0
   38.7942    8.6770   -1.1879 O   0  0  0  0  0  0  0  0  0  0  0  0
   40.3365    4.6968   -1.5170 C   0  0  2  0  0  0  0  0  0  0  0  0
   39.9837    5.0407   -2.8514 O   0  0  0  0  0  0  0  0  0  0  0  0
   43.2284    5.5083   -4.5722 C   0  0  0  0  0  0  0  0  0  0  0  0
   43.8430    6.4036   -5.4677 O   0  0  0  0  0  0  0  0  0  0  0  0
   44.4758    5.0931   -8.3167 C   0  0  1  0  0  0  0  0  0  0  0  0
   43.1073    4.8882   -7.7004 O   0  0  0  0  0  0  0  0  0  0  0  0
   41.5403   -2.7995   -7.0637 C   0  0  0  0  0  0  0  0  0  0  0  0
   37.6927    9.8185    0.6654 C   0  0  0  0  0  0  0  0  0  0  0  0
   36.9091    8.7726    0.9564 O   0  0  0  0  0  0  0  0  0  0  0  0
   39.5144    3.4518   -0.9768 C   0  0  1  0  0  0  0  0  0  0  0  0
   39.8569    2.3098   -1.6909 O   0  0  0  0  0  0  0  0  0  0  0  0
   38.2770    2.4458   -5.7687 C   0  0  0  0  0  0  0  0  0  0  0  0
   45.2979    3.7808   -8.4342 C   0  0  0  0  0  0  0  0  0  0  0  0
   45.5898    3.2463   -7.1274 N   0  0  0  0  0  0  0  0  0  0  0  0
   38.4795    1.2882   -6.7516 C   0  0  0  0  0  0  0  0  0  0  0  0
   39.8242    0.6675   -6.5213 N   0  0  0  0  0  0  0  0  0  0  0  0
   40.2129   -0.4740   -7.4990 C   0  0  0  0  0  0  0  0  0  0  0  0
  1  2  1  1  0  0  0
  1  9  1  0  0  0  0
  1 35  1  0  0  0  0
  3  4  1  1  0  0  0
  3 11  1  0  0  0  0
  3 45  1  0  0  0  0
  5  6  1  0  0  0  0
  5 12  1  0  0  0  0
  5 37  1  1  0  0  0
  6 30  1  0  0  0  0
  7 14  1  0  0  0  0
  7 41  1  0  0  0  0
  7 23  1  6  0  0  0
  8 16  2  0  0  0  0
  8 42  1  0  0  0  0
  9 10  1  1  0  0  0
  9 18  1  0  0  0  0
 11 20  1  0  0  0  0
 12 13  1  6  0  0  0
 12 22  1  0  0  0  0
 13 47  1  0  0  0  0
 14 15  1  6  0  0  0
 14 24  1  0  0  0  0
 16 17  1  0  0  0  0
 17 26  2  0  0  0  0
 18 19  1  6  0  0  0
 18 27  1  0  0  0  0
 20 21  1  1  0  0  0
 20 29  1  0  0  0  0
 22 23  1  6  0  0  0
 22 30  1  0  0  0  0
 24 25  1  1  0  0  0
 24 31  1  0  0  0  0
 26 33  1  0  0  0  0
 27 28  1  1  0  0  0
 27 34  1  0  0  0  0
 29  2  1  6  0  0  0
 29 36  1  0  0  0  0
 30 38  1  1  0  0  0
 31 32  1  6  0  0  0
 31 40  1  0  0  0  0
 33 42  2  0  0  0  0
 34 35  1  0  0  0  0
 34 43  1  6  0  0  0
 36 37  1  6  0  0  0
 36 45  1  0  0  0  0
 38 39  1  0  0  0  0
 40 41  1  0  0  0  0
 40 48  1  6  0  0  0
 43 44  1  0  0  0  0
 45 46  1  6  0  0  0
 47 50  1  0  0  0  0
 48 49  1  0  0  0  0
 50 51  1  0  0  0  0
 51 52  1  0  0  0  0
 52  8  1  0  0  0  0
M  END
>  <CHROM.1>
174.44323209,-63.51257934,-174.00613650,67.14222756,-172.77856705,-153.07759877
-132.99152697,-179.35645488,-177.74064134,178.50358323,176.27769781,60.54433529
-176.63574368,-166.76044644,-44.18466219,41.18482020,4.96583986,-4.23570516
-2.23280309,-1.11487764,-2.91665492

>  <Name>
2be0_lig

>  <RI>
2.75444e+07

>  <Rbt.Current_Directory>
/home/itssahil/PROJECTS/Mol_Feturizer/New_Systems/rnas/2be0

>  <Rbt.Executable>
rbdock ($Id: //depot/dev/client3/rdock/2013.1/src/exe/rbdock.cxx#4 $)

>  <Rbt.Library>
libRbt.so (2013.1, Build901 2013/11/27)

>  <Rbt.Parameter_File>
/export/apps/rDock/src/rDock_2013.1_src/data/scripts/dock_solv.prm

>  <Rbt.Receptor>
prm/pocket_docking_5.prm

>  <SCORE>
-22.02

>  <SCORE.INTER>
-6.65552

>  <SCORE.INTER.CONST>
1

>  <SCORE.INTER.POLAR>
-0.768998

>  <SCORE.INTER.ROT>
15

>  <SCORE.INTER.SOLV>
14.1735

>  <SCORE.INTER.VDW>
-20.1982

>  <SCORE.INTER.norm>
-0.127991

>  <SCORE.INTRA>
-15.3644

>  <SCORE.INTRA.DIHEDRAL>
-36.1583

>  <SCORE.INTRA.DIHEDRAL.0>
47.8724

>  <SCORE.INTRA.POLAR>
0

>  <SCORE.INTRA.POLAR.0>
0

>  <SCORE.INTRA.REPUL>
0.0122418

>  <SCORE.INTRA.REPUL.0>
0

>  <SCORE.INTRA.SOLV>
0.637326

>  <SCORE.INTRA.SOLV.lig_0>
-115.677

>  <SCORE.INTRA.VDW>
2.33482

>  <SCORE.INTRA.VDW.0>
-7.4833

>  <SCORE.INTRA.norm>
-0.29547

>  <SCORE.RESTR>
0

>  <SCORE.RESTR.CAVITY>
0

>  <SCORE.RESTR.norm>
0

>  <SCORE.SYSTEM>
0

>  <SCORE.SYSTEM.CONST>
0

>  <SCORE.SYSTEM.DIHEDRAL>
0

>  <SCORE.SYSTEM.SOLV>
0

>  <SCORE.SYSTEM.norm>
0

>  <SCORE.heavy>
52

>  <SCORE.norm>
-0.423461

>  <RMSD>
8.530

$$$$
2be0_lig
 OpenBabel11021811423D
libRbt.so/2013.1/901 2013/11/27
 52 56  0  0  0  0  0  0  0  0999 V2000
   39.6627    0.9858   -3.9176 C   0  0  2  0  0  0  0  0  0  0  0  0
   40.5937    1.6666   -3.1098 O   0  0  0  0  0  0  0  0  0  0  0  0
   44.8814    2.6599   -3.1018 C   0  0  2  0  0  0  0  0  0  0  0  0
   46.3146    2.6617   -3.5085 N   0  0  0  0  0  0  0  0  0  0  0  0
   40.9268    4.8959   -4.7074 C   0  0  2  0  0  0  0  0  0  0  0  0
   40.0805    5.1564   -5.8459 O   0  0  0  0  0  0  0  0  0  0  0  0
   43.9450    7.4109   -7.4468 C   0  0  1  0  0  0  0  0  0  0  0  0
   39.4761    5.9271    1.0601 C   0  0  0  0  0  0  0  0  0  0  0  0
   39.9086   -0.5776   -3.8827 C   0  0  2  0  0  0  0  0  0  0  0  0
   39.9112   -1.0479   -2.4958 N   0  0  0  0  0  0  0  0  0  0  0  0
   44.4259    1.1603   -2.7988 C   0  0  0  0  0  0  0  0  0  0  0  0
   41.9431    6.0470   -4.6384 C   0  0  2  0  0  0  0  0  0  0  0  0
   41.2164    7.1098   -3.8771 O   0  0  0  0  0  0  0  0  0  0  0  0
   45.2340    6.9428   -6.5747 C   0  0  2  0  0  0  0  0  0  0  0  0
   45.4354    7.9171   -5.4540 N   0  0  0  0  0  0  0  0  0  0  0  0
   39.2020    4.6244    0.5287 C   0  0  0  0  0  0  0  0  0  0  0  0
   39.5114    3.4718    1.2974 N   0  0  0  0  0  0  0  0  0  0  0  0
   41.2767   -0.9233   -4.6341 C   0  0  1  0  0  0  0  0  0  0  0  0
   41.4821   -2.3267   -4.5850 O   0  0  0  0  0  0  0  0  0  0  0  0
   42.8521    1.1130   -2.3620 C   0  0  2  0  0  0  0  0  0  0  0  0
   42.4303   -0.2310   -2.0844 N   0  0  0  0  0  0  0  0  0  0  0  0
   42.1995    6.2256   -6.1468 C   0  0  2  0  0  0  0  0  0  0  0  0
   42.8141    7.4381   -6.5574 O   0  0  0  0  0  0  0  0  0  0  0  0
   46.4708    6.9217   -7.5229 C   0  0  1  0  0  0  0  0  0  0  0  0
   46.1711    5.9275   -8.5665 O   0  0  0  0  0  0  0  0  0  0  0  0
   40.0936    3.5390    2.5953 C   0  0  0  0  0  0  0  0  0  0  0  0
   41.1832   -0.4022   -6.0977 C   0  0  2  0  0  0  0  0  0  0  0  0
   42.4298   -0.6915   -6.8469 O   0  0  0  0  0  0  0  0  0  0  0  0
   41.9555    1.7228   -3.5170 C   0  0  2  0  0  0  0  0  0  0  0  0
   40.8073    5.9842   -6.7771 C   0  0  1  0  0  0  0  0  0  0  0  0
   46.7036    8.3974   -8.1664 C   0  0  2  0  0  0  0  0  0  0  0  0
   47.0033    9.3966   -7.1290 O   0  0  0  0  0  0  0  0  0  0  0  0
   40.3860    4.7991    3.1730 C   0  0  0  0  0  0  0  0  0  0  0  0
   40.9378    1.1557   -6.1116 C   0  0  2  0  0  0  0  0  0  0  0  0
   39.7106    1.3738   -5.3623 O   0  0  0  0  0  0  0  0  0  0  0  0
   42.4495    3.1873   -3.7820 C   0  0  2  0  0  0  0  0  0  0  0  0
   41.5773    3.6337   -4.8132 O   0  0  0  0  0  0  0  0  0  0  0  0
   40.8890    5.2101   -8.0918 C   0  0  0  0  0  0  0  0  0  0  0  0
   41.9045    4.2379   -8.1601 O   0  0  0  0  0  0  0  0  0  0  0  0
   45.3963    8.8377   -8.9725 C   0  0  1  0  0  0  0  0  0  0  0  0
   44.2132    8.7989   -8.0272 O   0  0  0  0  0  0  0  0  0  0  0  0
   40.0827    6.0324    2.4107 C   0  0  0  0  0  0  0  0  0  0  0  0
   40.8371    1.5848   -7.5158 C   0  0  0  0  0  0  0  0  0  0  0  0
   39.7593    1.0233   -8.0778 O   0  0  0  0  0  0  0  0  0  0  0  0
   43.9707    3.1933   -4.2330 C   0  0  1  0  0  0  0  0  0  0  0  0
   44.3960    4.4979   -4.4538 O   0  0  0  0  0  0  0  0  0  0  0  0
   40.9899    7.2001   -2.4153 C   0  0  0  0  0  0  0  0  0  0  0  0
   45.6717   10.2519   -9.5521 C   0  0  0  0  0  0  0  0  0  0  0  0
   46.8173   10.2272  -10.4272 N   0  0  0  0  0  0  0  0  0  0  0  0
   39.9052    6.1778   -2.0607 C   0  0  0  0  0  0  0  0  0  0  0  0
   38.8019    6.8609   -1.3105 N   0  0  0  0  0  0  0  0  0  0  0  0
   39.1144    7.2135    0.1687 C   0  0  0  0  0  0  0  0  0  0  0  0
  1  2  1  1  0  0  0
  1  9  1  0  0  0  0
  1 35  1  0  0  0  0
  3  4  1  6  0  0  0
  3 11  1  0  0  0  0
  3 45  1  0  0  0  0
  5  6  1  0  0  0  0
  5 12  1  0  0  0  0
  5 37  1  6  0  0  0
  6 30  1  0  0  0  0
  7 14  1  0  0  0  0
  7 41  1  0  0  0  0
  7 23  1  1  0  0  0
  8 16  2  0  0  0  0
  8 42  1  0  0  0  0
  9 10  1  1  0  0  0
  9 18  1  0  0  0  0
 11 20  1  0  0  0  0
 12 13  1  6  0  0  0
 12 22  1  0  0  0  0
 13 47  1  0  0  0  0
 14 15  1  1  0  0  0
 14 24  1  0  0  0  0
 16 17  1  0  0  0  0
 17 26  2  0  0  0  0
 18 19  1  6  0  0  0
 18 27  1  0  0  0  0
 20 21  1  6  0  0  0
 20 29  1  0  0  0  0
 22 23  1  1  0  0  0
 22 30  1  0  0  0  0
 24 25  1  6  0  0  0
 24 31  1  0  0  0  0
 26 33  1  0  0  0  0
 27 28  1  6  0  0  0
 27 34  1  0  0  0  0
 29  2  1  1  0  0  0
 29 36  1  0  0  0  0
 30 38  1  6  0  0  0
 31 32  1  1  0  0  0
 31 40  1  0  0  0  0
 33 42  2  0  0  0  0
 34 35  1  0  0  0  0
 34 43  1  6  0  0  0
 36 37  1  6  0  0  0
 36 45  1  0  0  0  0
 38 39  1  0  0  0  0
 40 41  1  0  0  0  0
 40 48  1  1  0  0  0
 43 44  1  0  0  0  0
 45 46  1  1  0  0  0
 47 50  1  0  0  0  0
 48 49  1  0  0  0  0
 50 51  1  0  0  0  0
 51 52  1  0  0  0  0
 52  8  1  0  0  0  0
M  END
>  <CHROM.1>
69.86713703,-179.50914346,-75.45936186,78.21025441,-74.87316881,131.02299780
-123.04103485,-81.53704977,64.40990745,131.62310332,59.64145385,-126.47577791
-75.18665011,-59.37581258,-13.23547524,42.24912488,4.31516736,-4.59851245
-2.91633411,1.06301526,0.50527265

>  <Name>
2be0_lig

>  <RI>
2.10017e+07

>  <Rbt.Current_Directory>
/home/itssahil/PROJECTS/Mol_Feturizer/New_Systems/rnas/2be0

>  <Rbt.Executable>
rbdock ($Id: //depot/dev/client3/rdock/2013.1/src/exe/rbdock.cxx#4 $)

>  <Rbt.Library>
libRbt.so (2013.1, Build901 2013/11/27)

>  <Rbt.Parameter_File>
/export/apps/rDock/src/rDock_2013.1_src/data/scripts/dock_solv.prm

>  <Rbt.Receptor>
prm/pocket_docking_3.prm

>  <SCORE>
-0.607495

>  <SCORE.INTER>
2.55871

>  <SCORE.INTER.CONST>
1

>  <SCORE.INTER.POLAR>
-0.35048

>  <SCORE.INTER.ROT>
15

>  <SCORE.INTER.SOLV>
17.0975

>  <SCORE.INTER.VDW>
-16.4251

>  <SCORE.INTER.norm>
0.049206

>  <SCORE.INTRA>
-3.39336

>  <SCORE.INTRA.DIHEDRAL>
-15.31

>  <SCORE.INTRA.DIHEDRAL.0>
47.8724

>  <SCORE.INTRA.POLAR>
0

>  <SCORE.INTRA.POLAR.0>
0

>  <SCORE.INTRA.REPUL>
0

>  <SCORE.INTRA.REPUL.0>
0

>  <SCORE.INTRA.SOLV>
4.73257

>  <SCORE.INTRA.SOLV.lig_0>
-115.677

>  <SCORE.INTRA.VDW>
1.89536

>  <SCORE.INTRA.VDW.0>
-7.4833

>  <SCORE.INTRA.norm>
-0.0652569

>  <SCORE.RESTR>
0.227149

>  <SCORE.RESTR.CAVITY>
0.227149

>  <SCORE.RESTR.norm>
0.00436825

>  <SCORE.SYSTEM>
0

>  <SCORE.SYSTEM.CONST>
0

>  <SCORE.SYSTEM.DIHEDRAL>
0

>  <SCORE.SYSTEM.SOLV>
0

>  <SCORE.SYSTEM.norm>
0

>  <SCORE.heavy>
52

>  <SCORE.norm>
-0.0116826

>  <RMSD>
8.534

$$$$
2be0_lig
 OpenBabel11021811423D
libRbt.so/2013.1/901 2013/11/27
 52 56  0  0  0  0  0  0  0  0999 V2000
   40.2411    4.0513   -6.9988 C   0  0  2  0  0  0  0  0  0  0  0  0
   41.5332    4.5905   -6.8481 O   0  0  0  0  0  0  0  0  0  0  0  0
   43.8136    7.7220   -8.9371 C   0  0  2  0  0  0  0  0  0  0  0  0
   44.1063    9.0057   -9.6343 N   0  0  0  0  0  0  0  0  0  0  0  0
   43.3477    7.3970   -4.4515 C   0  0  2  0  0  0  0  0  0  0  0  0
   44.6004    6.7043   -4.2739 O   0  0  0  0  0  0  0  0  0  0  0  0
   41.5962    5.6266   -0.6225 C   0  0  1  0  0  0  0  0  0  0  0  0
   38.5090   12.2029   -0.1522 C   0  0  0  0  0  0  0  0  0  0  0  0
   39.1930    4.8114   -6.0880 C   0  0  2  0  0  0  0  0  0  0  0  0
   39.2467    6.2485   -6.3645 N   0  0  0  0  0  0  0  0  0  0  0  0
   42.6389    6.9646   -9.7082 C   0  0  0  0  0  0  0  0  0  0  0  0
   42.6537    7.4160   -3.0803 C   0  0  2  0  0  0  0  0  0  0  0  0
   43.2416    8.6155   -2.4075 O   0  0  0  0  0  0  0  0  0  0  0  0
   41.4810    6.7879    0.5086 C   0  0  2  0  0  0  0  0  0  0  0  0
   42.5650    6.5802    1.5223 N   0  0  0  0  0  0  0  0  0  0  0  0
   38.6185   13.4982   -0.7565 C   0  0  0  0  0  0  0  0  0  0  0  0
   38.1159   14.6372   -0.0744 N   0  0  0  0  0  0  0  0  0  0  0  0
   39.4829    4.4869   -4.5496 C   0  0  1  0  0  0  0  0  0  0  0  0
   38.5386    5.1829   -3.7509 O   0  0  0  0  0  0  0  0  0  0  0  0
   42.2770    5.5549   -8.9653 C   0  0  2  0  0  0  0  0  0  0  0  0
   41.2226    4.8623   -9.6508 N   0  0  0  0  0  0  0  0  0  0  0  0
   43.0397    6.0037   -2.6013 C   0  0  2  0  0  0  0  0  0  0  0  0
   42.9037    5.7336   -1.2138 O   0  0  0  0  0  0  0  0  0  0  0  0
   40.0733    6.6754    1.1679 C   0  0  1  0  0  0  0  0  0  0  0  0
   39.0962    6.9108    0.0921 O   0  0  0  0  0  0  0  0  0  0  0  0
   37.4935   14.5630    1.2044 C   0  0  0  0  0  0  0  0  0  0  0  0
   39.3935    2.9470   -4.3429 C   0  0  2  0  0  0  0  0  0  0  0  0
   39.6582    2.5827   -2.9300 O   0  0  0  0  0  0  0  0  0  0  0  0
   41.8431    5.8330   -7.4673 C   0  0  2  0  0  0  0  0  0  0  0  0
   44.4810    5.8265   -3.1355 C   0  0  1  0  0  0  0  0  0  0  0  0
   39.8821    5.1989    1.8229 C   0  0  2  0  0  0  0  0  0  0  0  0
   40.8557    4.9564    2.8989 O   0  0  0  0  0  0  0  0  0  0  0  0
   37.3580   13.3100    1.8513 C   0  0  0  0  0  0  0  0  0  0  0  0
   40.4440    2.2079   -5.2583 C   0  0  2  0  0  0  0  0  0  0  0  0
   40.1358    2.6065   -6.6225 O   0  0  0  0  0  0  0  0  0  0  0  0
   43.0235    6.5854   -6.7603 C   0  0  2  0  0  0  0  0  0  0  0  0
   42.5345    6.7689   -5.4372 O   0  0  0  0  0  0  0  0  0  0  0  0
   44.7464    4.4079   -3.6368 C   0  0  0  0  0  0  0  0  0  0  0  0
   44.7641    3.4087   -2.6457 O   0  0  0  0  0  0  0  0  0  0  0  0
   40.0511    4.0879    0.6871 C   0  0  1  0  0  0  0  0  0  0  0  0
   41.4105    4.2630    0.0422 O   0  0  0  0  0  0  0  0  0  0  0  0
   37.8657   12.0907    1.1806 C   0  0  0  0  0  0  0  0  0  0  0  0
   40.2977    0.7604   -5.0361 C   0  0  0  0  0  0  0  0  0  0  0  0
   41.2757    0.1093   -5.6783 O   0  0  0  0  0  0  0  0  0  0  0  0
   43.3274    7.9620   -7.4882 C   0  0  1  0  0  0  0  0  0  0  0  0
   44.3816    8.6112   -6.8567 O   0  0  0  0  0  0  0  0  0  0  0  0
   42.6479    9.4513   -1.3373 C   0  0  0  0  0  0  0  0  0  0  0  0
   39.8701    2.7051    1.3702 C   0  0  0  0  0  0  0  0  0  0  0  0
   38.5059    2.5267    1.8013 N   0  0  0  0  0  0  0  0  0  0  0  0
   41.3019    9.9656   -1.8581 C   0  0  0  0  0  0  0  0  0  0  0  0
   40.6220   10.7598   -0.7841 N   0  0  0  0  0  0  0  0  0  0  0  0
   39.0876   10.9321   -0.9462 C   0  0  0  0  0  0  0  0  0  0  0  0
  1  2  1  1  0  0  0
  1  9  1  0  0  0  0
  1 35  1  0  0  0  0
  3  4  1  6  0  0  0
  3 11  1  0  0  0  0
  3 45  1  0  0  0  0
  5  6  1  0  0  0  0
  5 12  1  0  0  0  0
  5 37  1  6  0  0  0
  6 30  1  0  0  0  0
  7 14  1  0  0  0  0
  7 41  1  0  0  0  0
  7 23  1  1  0  0  0
  8 16  2  0  0  0  0
  8 42  1  0  0  0  0
  9 10  1  1  0  0  0
  9 18  1  0  0  0  0
 11 20  1  0  0  0  0
 12 13  1  1  0  0  0
 12 22  1  0  0  0  0
 13 47  1  0  0  0  0
 14 15  1  1  0  0  0
 14 24  1  0  0  0  0
 16 17  1  0  0  0  0
 17 26  2  0  0  0  0
 18 19  1  1  0  0  0
 18 27  1  0  0  0  0
 20 21  1  6  0  0  0
 20 29  1  0  0  0  0
 22 23  1  1  0  0  0
 22 30  1  0  0  0  0
 24 25  1  6  0  0  0
 24 31  1  0  0  0  0
 26 33  1  0  0  0  0
 27 28  1  1  0  0  0
 27 34  1  0  0  0  0
 29  2  1  1  0  0  0
 29 36  1  0  0  0  0
 30 38  1  6  0  0  0
 31 32  1  1  0  0  0
 31 40  1  0  0  0  0
 33 42  2  0  0  0  0
 34 35  1  0  0  0  0
 34 43  1  6  0  0  0
 36 37  1  1  0  0  0
 36 45  1  0  0  0  0
 38 39  1  0  0  0  0
 40 41  1  0  0  0  0
 40 48  1  1  0  0  0
 43 44  1  0  0  0  0
 45 46  1  1  0  0  0
 47 50  1  0  0  0  0
 48 49  1  0  0  0  0
 50 51  1  0  0  0  0
 51 52  1  0  0  0  0
 52  8  1  0  0  0  0
M  END
>  <CHROM.1>
-75.66894784,-57.39994194,-119.10534130,154.23636473,-56.64137894,70.26659535
-84.99933147,175.86677320,-172.88358978,178.24070157,68.34618310,176.99215347
-159.62441080,-157.66562988,81.52212214,41.18094382,6.52411209,-3.15000524
-0.48286406,1.25633554,-0.14140923

>  <Name>
2be0_lig

>  <RI>
3.37048e+07

>  <Rbt.Current_Directory>
/home/itssahil/PROJECTS/Mol_Feturizer/New_Systems/rnas/2be0

>  <Rbt.Executable>
rbdock ($Id: //depot/dev/client3/rdock/2013.1/src/exe/rbdock.cxx#4 $)

>  <Rbt.Library>
libRbt.so (2013.1, Build901 2013/11/27)

>  <Rbt.Parameter_File>
/export/apps/rDock/src/rDock_2013.1_src/data/scripts/dock_solv.prm

>  <Rbt.Receptor>
prm/pocket_docking_8.prm

>  <SCORE>
-33.0244

>  <SCORE.INTER>
-17.8521

>  <SCORE.INTER.CONST>
1

>  <SCORE.INTER.POLAR>
-0.959166

>  <SCORE.INTER.ROT>
15

>  <SCORE.INTER.SOLV>
22.5329

>  <SCORE.INTER.VDW>
-29.8152

>  <SCORE.INTER.norm>
-0.34331

>  <SCORE.INTRA>
-15.1723

>  <SCORE.INTRA.DIHEDRAL>
-31.3818

>  <SCORE.INTRA.DIHEDRAL.0>
47.8724

>  <SCORE.INTRA.POLAR>
0

>  <SCORE.INTRA.POLAR.0>
0

>  <SCORE.INTRA.REPUL>
0.0214309

>  <SCORE.INTRA.REPUL.0>
0

>  <SCORE.INTRA.SOLV>
-0.51615

>  <SCORE.INTRA.SOLV.lig_0>
-115.677

>  <SCORE.INTRA.VDW>
0.669554

>  <SCORE.INTRA.VDW.0>
-7.4833

>  <SCORE.INTRA.norm>
-0.291774

>  <SCORE.RESTR>
0

>  <SCORE.RESTR.CAVITY>
0

>  <SCORE.RESTR.norm>
0

>  <SCORE.SYSTEM>
0

>  <SCORE.SYSTEM.CONST>
0

>  <SCORE.SYSTEM.DIHEDRAL>
0

>  <SCORE.SYSTEM.SOLV>
0

>  <SCORE.SYSTEM.norm>
0

>  <SCORE.heavy>
52

>  <SCORE.norm>
-0.635085

>  <RMSD>
8.549

$$$$
2be0_lig
 OpenBabel11021811423D
libRbt.so/2013.1/901 2013/11/27
 52 56  0  0  0  0  0  0  0  0999 V2000
   39.1682    0.3033   -6.8395 C   0  0  2  0  0  0  0  0  0  0  0  0
   39.5880   -1.0352   -6.7162 O   0  0  0  0  0  0  0  0  0  0  0  0
   43.5175   -2.9635   -6.2561 C   0  0  2  0  0  0  0  0  0  0  0  0
   44.9329   -3.3326   -6.5386 N   0  0  0  0  0  0  0  0  0  0  0  0
   42.2021    1.2634   -6.4106 C   0  0  2  0  0  0  0  0  0  0  0  0
   43.6439    1.2350   -6.4406 O   0  0  0  0  0  0  0  0  0  0  0  0
   42.0350    5.1624   -4.1538 C   0  0  1  0  0  0  0  0  0  0  0  0
   43.1072    7.4669   -8.7934 C   0  0  0  0  0  0  0  0  0  0  0  0
   37.8039    0.5489   -6.0753 C   0  0  2  0  0  0  0  0  0  0  0  0
   37.9322    0.1180   -4.6816 N   0  0  0  0  0  0  0  0  0  0  0  0
   42.6230   -3.3067   -7.5330 C   0  0  0  0  0  0  0  0  0  0  0  0
   41.7948    2.7004   -6.0477 C   0  0  2  0  0  0  0  0  0  0  0  0
   41.7987    3.4081   -7.3655 O   0  0  0  0  0  0  0  0  0  0  0  0
   42.7035    6.4027   -3.3437 C   0  0  2  0  0  0  0  0  0  0  0  0
   43.5709    5.8521   -2.2527 N   0  0  0  0  0  0  0  0  0  0  0  0
   43.6714    7.7014   -7.4966 C   0  0  0  0  0  0  0  0  0  0  0  0
   44.4918    8.8398   -7.2821 N   0  0  0  0  0  0  0  0  0  0  0  0
   36.6197   -0.2144   -6.8309 C   0  0  1  0  0  0  0  0  0  0  0  0
   35.4086    0.0120   -6.1266 O   0  0  0  0  0  0  0  0  0  0  0  0
   41.0620   -2.9027   -7.2687 C   0  0  2  0  0  0  0  0  0  0  0  0
   40.2460   -3.2087   -8.4097 N   0  0  0  0  0  0  0  0  0  0  0  0
   42.8952    3.0031   -5.0132 C   0  0  2  0  0  0  0  0  0  0  0  0
   43.1115    4.3669   -4.6819 O   0  0  0  0  0  0  0  0  0  0  0  0
   41.5482    7.2667   -2.7537 C   0  0  1  0  0  0  0  0  0  0  0  0
   40.7782    7.7641   -3.9057 O   0  0  0  0  0  0  0  0  0  0  0  0
   44.7941    9.7818   -8.3065 C   0  0  0  0  0  0  0  0  0  0  0  0
   36.5460    0.3111   -8.2940 C   0  0  2  0  0  0  0  0  0  0  0  0
   35.4641   -0.3656   -9.0493 O   0  0  0  0  0  0  0  0  0  0  0  0
   40.9555   -1.3569   -6.9393 C   0  0  2  0  0  0  0  0  0  0  0  0
   44.1406    2.2956   -5.5984 C   0  0  1  0  0  0  0  0  0  0  0  0
   40.6197    6.3595   -1.7735 C   0  0  2  0  0  0  0  0  0  0  0  0
   41.3829    5.8584   -0.6199 O   0  0  0  0  0  0  0  0  0  0  0  0
   44.2639    9.6029   -9.6080 C   0  0  0  0  0  0  0  0  0  0  0  0
   37.9134    0.0580   -9.0381 C   0  0  2  0  0  0  0  0  0  0  0  0
   38.9289    0.7395   -8.2511 O   0  0  0  0  0  0  0  0  0  0  0  0
   41.8575   -1.0721   -5.6886 C   0  0  2  0  0  0  0  0  0  0  0  0
   41.6768    0.3232   -5.4791 O   0  0  0  0  0  0  0  0  0  0  0  0
   45.0006    1.6413   -4.5184 C   0  0  0  0  0  0  0  0  0  0  0  0
   46.0817    0.8722   -4.9883 O   0  0  0  0  0  0  0  0  0  0  0  0
   40.0234    5.1272   -2.5974 C   0  0  1  0  0  0  0  0  0  0  0  0
   41.1758    4.3435   -3.1911 O   0  0  0  0  0  0  0  0  0  0  0  0
   43.4023    8.4299   -9.8835 C   0  0  0  0  0  0  0  0  0  0  0  0
   37.7905    0.5929  -10.4037 C   0  0  0  0  0  0  0  0  0  0  0  0
   38.9480    0.4238  -11.0550 O   0  0  0  0  0  0  0  0  0  0  0  0
   43.3695   -1.4467   -5.9902 C   0  0  1  0  0  0  0  0  0  0  0  0
   44.1535   -1.1985   -4.8698 O   0  0  0  0  0  0  0  0  0  0  0  0
   41.5536    2.8415   -8.7128 C   0  0  0  0  0  0  0  0  0  0  0  0
   39.1589    4.2945   -1.6121 C   0  0  0  0  0  0  0  0  0  0  0  0
   37.9952    5.0407   -1.2028 N   0  0  0  0  0  0  0  0  0  0  0  0
   42.3426    3.6928   -9.7129 C   0  0  0  0  0  0  0  0  0  0  0  0
   42.9826    4.8418   -8.9940 N   0  0  0  0  0  0  0  0  0  0  0  0
   42.1815    6.1716   -9.0069 C   0  0  0  0  0  0  0  0  0  0  0  0
  1  2  1  6  0  0  0
  1  9  1  0  0  0  0
  1 35  1  0  0  0  0
  3  4  1  6  0  0  0
  3 11  1  0  0  0  0
  3 45  1  0  0  0  0
  5  6  1  0  0  0  0
  5 12  1  0  0  0  0
  5 37  1  1  0  0  0
  6 30  1  0  0  0  0
  7 14  1  0  0  0  0
  7 41  1  0  0  0  0
  7 23  1  1  0  0  0
  8 16  2  0  0  0  0
  8 42  1  0  0  0  0
  9 10  1  1  0  0  0
  9 18  1  0  0  0  0
 11 20  1  0  0  0  0
 12 13  1  6  0  0  0
 12 22  1  0  0  0  0
 13 47  1  0  0  0  0
 14 15  1  1  0  0  0
 14 24  1  0  0  0  0
 16 17  1  0  0  0  0
 17 26  2  0  0  0  0
 18 19  1  1  0  0  0
 18 27  1  0  0  0  0
 20 21  1  6  0  0  0
 20 29  1  0  0  0  0
 22 23  1  6  0  0  0
 22 30  1  0  0  0  0
 24 25  1  6  0  0  0
 24 31  1  0  0  0  0
 26 33  1  0  0  0  0
 27 28  1  6  0  0  0
 27 34  1  0  0  0  0
 29  2  1  1  0  0  0
 29 36  1  0  0  0  0
 30 38  1  1  0  0  0
 31 32  1  1  0  0  0
 31 40  1  0  0  0  0
 33 42  2  0  0  0  0
 34 35  1  0  0  0  0
 34 43  1  6  0  0  0
 36 37  1  6  0  0  0
 36 45  1  0  0  0  0
 38 39  1  0  0  0  0
 40 41  1  0  0  0  0
 40 48  1  1  0  0  0
 43 44  1  0  0  0  0
 45 46  1  1  0  0  0
 47 50  1  0  0  0  0
 48 49  1  0  0  0  0
 50 51  1  0  0  0  0
 51 52  1  0  0  0  0
 52  8  1  0  0  0  0
M  END
>  <CHROM.1>
-159.61607491,-65.26541205,157.47478223,28.13609749,-151.03427882,58.05048587
-159.31090303,57.98203843,178.49409125,-68.98671626,67.11972865,-4.39559838
-94.84153066,-156.10956622,-71.34470044,41.33881968,2.54107882,-6.22477139
2.14917627,-0.89846337,-2.42453312

>  <Name>
2be0_lig

>  <RI>
0

>  <Rbt.Current_Directory>
/home/itssahil/PROJECTS/Mol_Feturizer/New_Systems/rnas/2be0

>  <Rbt.Executable>
rbdock ($Id: //depot/dev/client3/rdock/2013.1/src/exe/rbdock.cxx#4 $)

>  <Rbt.Library>
libRbt.so (2013.1, Build901 2013/11/27)

>  <Rbt.Parameter_File>
/export/apps/rDock/src/rDock_2013.1_src/data/scripts/dock_solv.prm

>  <Rbt.Receptor>
prm/pocket_docking_4.prm

>  <SCORE>
-16.3219

>  <SCORE.INTER>
-6.21273

>  <SCORE.INTER.CONST>
1

>  <SCORE.INTER.POLAR>
-0.959166

>  <SCORE.INTER.ROT>
15

>  <SCORE.INTER.SOLV>
13.2933

>  <SCORE.INTER.VDW>
-18.9757

>  <SCORE.INTER.norm>
-0.119476

>  <SCORE.INTRA>
-10.9521

>  <SCORE.INTRA.DIHEDRAL>
-26.4059

>  <SCORE.INTRA.DIHEDRAL.0>
47.8724

>  <SCORE.INTRA.POLAR>
0

>  <SCORE.INTRA.POLAR.0>
0

>  <SCORE.INTRA.REPUL>
0

>  <SCORE.INTRA.REPUL.0>
0

>  <SCORE.INTRA.SOLV>
-1.57642

>  <SCORE.INTRA.SOLV.lig_0>
-115.677

>  <SCORE.INTRA.VDW>
3.03901

>  <SCORE.INTRA.VDW.0>
-7.4833

>  <SCORE.INTRA.norm>
-0.210618

>  <SCORE.RESTR>
0.842927

>  <SCORE.RESTR.CAVITY>
0.842927

>  <SCORE.RESTR.norm>
0.0162101

>  <SCORE.SYSTEM>
0

>  <SCORE.SYSTEM.CONST>
0

>  <SCORE.SYSTEM.DIHEDRAL>
0

>  <SCORE.SYSTEM.SOLV>
0

>  <SCORE.SYSTEM.norm>
0

>  <SCORE.heavy>
52

>  <SCORE.norm>
-0.313883

>  <RMSD>
8.561

$$$$
2be0_lig
 OpenBabel11021811423D
libRbt.so/2013.1/901 2013/11/27
 52 56  0  0  0  0  0  0  0  0999 V2000
   47.2328    2.6655   -5.1667 C   0  0  2  0  0  0  0  0  0  0  0  0
   47.9531    3.8117   -5.5545 O   0  0  0  0  0  0  0  0  0  0  0  0
   46.8380    7.7060   -7.2754 C   0  0  2  0  0  0  0  0  0  0  0  0
   46.2202    8.6988   -8.1986 N   0  0  0  0  0  0  0  0  0  0  0  0
   44.5387    5.4940   -4.0471 C   0  0  2  0  0  0  0  0  0  0  0  0
   44.7258    4.9761   -2.7141 O   0  0  0  0  0  0  0  0  0  0  0  0
   40.9060    2.8612   -4.8097 C   0  0  1  0  0  0  0  0  0  0  0  0
   42.0539   10.3403   -0.9395 C   0  0  0  0  0  0  0  0  0  0  0  0
   48.0738    1.7707   -4.1679 C   0  0  2  0  0  0  0  0  0  0  0  0
   48.5144    2.5792   -3.0292 N   0  0  0  0  0  0  0  0  0  0  0  0
   47.7656    6.7163   -8.1171 C   0  0  0  0  0  0  0  0  0  0  0  0
   43.0981    5.1500   -4.4579 C   0  0  2  0  0  0  0  0  0  0  0  0
   42.2941    6.2757   -3.8888 O   0  0  0  0  0  0  0  0  0  0  0  0
   39.3566    2.7991   -4.3232 C   0  0  2  0  0  0  0  0  0  0  0  0
   39.2340    1.7707   -3.2401 N   0  0  0  0  0  0  0  0  0  0  0  0
   43.3830    9.9016   -1.2490 C   0  0  0  0  0  0  0  0  0  0  0  0
   44.4884   10.4669   -0.5608 N   0  0  0  0  0  0  0  0  0  0  0  0
   49.3052    1.1103   -4.9448 C   0  0  1  0  0  0  0  0  0  0  0  0
   50.0496    0.3194   -4.0313 O   0  0  0  0  0  0  0  0  0  0  0  0
   48.4525    5.6004   -7.1409 C   0  0  2  0  0  0  0  0  0  0  0  0
   49.2917    4.7048   -7.8859 N   0  0  0  0  0  0  0  0  0  0  0  0
   43.0025    3.7470   -3.8293 C   0  0  2  0  0  0  0  0  0  0  0  0
   41.7017    3.2030   -3.6605 O   0  0  0  0  0  0  0  0  0  0  0  0
   38.4832    2.4161   -5.5559 C   0  0  1  0  0  0  0  0  0  0  0  0
   38.6671    3.4951   -6.5405 O   0  0  0  0  0  0  0  0  0  0  0  0
   44.3477   11.4692    0.4411 C   0  0  0  0  0  0  0  0  0  0  0  0
   48.7487    0.2625   -6.1254 C   0  0  2  0  0  0  0  0  0  0  0  0
   49.8488   -0.3745   -6.8890 O   0  0  0  0  0  0  0  0  0  0  0  0
   47.3263    4.7742   -6.3936 C   0  0  2  0  0  0  0  0  0  0  0  0
   43.7969    3.8917   -2.5094 C   0  0  1  0  0  0  0  0  0  0  0  0
   38.9663    0.9837   -6.1565 C   0  0  2  0  0  0  0  0  0  0  0  0
   38.7857   -0.0997   -5.1776 O   0  0  0  0  0  0  0  0  0  0  0  0
   43.0585   11.9414    0.7903 C   0  0  0  0  0  0  0  0  0  0  0  0
   47.9140    1.1707   -7.1083 C   0  0  2  0  0  0  0  0  0  0  0  0
   46.8594    1.7666   -6.3036 O   0  0  0  0  0  0  0  0  0  0  0  0
   46.4399    5.7908   -5.5936 C   0  0  2  0  0  0  0  0  0  0  0  0
   45.4843    4.9482   -4.9612 O   0  0  0  0  0  0  0  0  0  0  0  0
   44.6260    2.6491   -2.1889 C   0  0  0  0  0  0  0  0  0  0  0  0
   45.3572    2.1144   -3.2662 O   0  0  0  0  0  0  0  0  0  0  0  0
   40.5052    1.0754   -6.5762 C   0  0  1  0  0  0  0  0  0  0  0  0
   41.3098    1.4951   -5.3633 O   0  0  0  0  0  0  0  0  0  0  0  0
   41.8722   11.3838    0.1003 C   0  0  0  0  0  0  0  0  0  0  0  0
   47.3980    0.3133   -8.1874 C   0  0  0  0  0  0  0  0  0  0  0  0
   46.5606   -0.5961   -7.6730 O   0  0  0  0  0  0  0  0  0  0  0  0
   45.7651    6.8396   -6.5744 C   0  0  1  0  0  0  0  0  0  0  0  0
   44.9919    7.7390   -5.8498 O   0  0  0  0  0  0  0  0  0  0  0  0
   40.8647    6.5918   -4.1197 C   0  0  0  0  0  0  0  0  0  0  0  0
   40.9116   -0.3176   -7.1294 C   0  0  0  0  0  0  0  0  0  0  0  0
   40.2847   -0.5596   -8.4050 N   0  0  0  0  0  0  0  0  0  0  0  0
   40.3900    7.4368   -2.9331 C   0  0  0  0  0  0  0  0  0  0  0  0
   41.2684    8.6438   -2.7972 N   0  0  0  0  0  0  0  0  0  0  0  0
   40.8220    9.6822   -1.7330 C   0  0  0  0  0  0  0  0  0  0  0  0
  1  2  1  6  0  0  0
  1  9  1  0  0  0  0
  1 35  1  0  0  0  0
  3  4  1  6  0  0  0
  3 11  1  0  0  0  0
  3 45  1  0  0  0  0
  5  6  1  0  0  0  0
  5 12  1  0  0  0  0
  5 37  1  6  0  0  0
  6 30  1  0  0  0  0
  7 14  1  0  0  0  0
  7 41  1  0  0  0  0
  7 23  1  1  0  0  0
  8 16  2  0  0  0  0
  8 42  1  0  0  0  0
  9 10  1  1  0  0  0
  9 18  1  0  0  0  0
 11 20  1  0  0  0  0
 12 13  1  1  0  0  0
 12 22  1  0  0  0  0
 13 47  1  0  0  0  0
 14 15  1  1  0  0  0
 14 24  1  0  0  0  0
 16 17  1  0  0  0  0
 17 26  2  0  0  0  0
 18 19  1  1  0  0  0
 18 27  1  0  0  0  0
 20 21  1  6  0  0  0
 20 29  1  0  0  0  0
 22 23  1  1  0  0  0
 22 30  1  0  0  0  0
 24 25  1  6  0  0  0
 24 31  1  0  0  0  0
 26 33  1  0  0  0  0
 27 28  1  6  0  0  0
 27 34  1  0  0  0  0
 29  2  1  1  0  0  0
 29 36  1  0  0  0  0
 30 38  1  6  0  0  0
 31 32  1  1  0  0  0
 31 40  1  0  0  0  0
 33 42  2  0  0  0  0
 34 35  1  0  0  0  0
 34 43  1  6  0  0  0
 36 37  1  6  0  0  0
 36 45  1  0  0  0  0
 38 39  1  0  0  0  0
 40 41  1  0  0  0  0
 40 48  1  1  0  0  0
 43 44  1  0  0  0  0
 45 46  1  1  0  0  0
 47 50  1  0  0  0  0
 48 49  1  0  0  0  0
 50 51  1  0  0  0  0
 51 52  1  0  0  0  0
 52  8  1  0  0  0  0
M  END
>  <CHROM.1>
-176.51476557,-115.87357136,-159.69964642,170.68654164,157.55708795,66.78828383
-157.20411472,-70.85477369,63.39388906,175.40845724,70.43735240,55.82375176
173.60692581,142.09938334,-1.57344296,44.24813336,4.32476615,-4.72673653
-1.08766865,0.15485446,0.44135001

>  <Name>
2be0_lig

>  <RI>
3.37048e+07

>  <Rbt.Current_Directory>
/home/itssahil/PROJECTS/Mol_Feturizer/New_Systems/rnas/2be0

>  <Rbt.Executable>
rbdock ($Id: //depot/dev/client3/rdock/2013.1/src/exe/rbdock.cxx#4 $)

>  <Rbt.Library>
libRbt.so (2013.1, Build901 2013/11/27)

>  <Rbt.Parameter_File>
/export/apps/rDock/src/rDock_2013.1_src/data/scripts/dock_solv.prm

>  <Rbt.Receptor>
prm/pocket_docking_8.prm

>  <SCORE>
-22.6452

>  <SCORE.INTER>
-7.95382

>  <SCORE.INTER.CONST>
1

>  <SCORE.INTER.POLAR>
-1.44687

>  <SCORE.INTER.ROT>
15

>  <SCORE.INTER.SOLV>
16.9891

>  <SCORE.INTER.VDW>
-19.7427

>  <SCORE.INTER.norm>
-0.152958

>  <SCORE.INTRA>
-14.6914

>  <SCORE.INTRA.DIHEDRAL>
-30.6988

>  <SCORE.INTRA.DIHEDRAL.0>
47.8724

>  <SCORE.INTRA.POLAR>
0

>  <SCORE.INTRA.POLAR.0>
0

>  <SCORE.INTRA.REPUL>
0

>  <SCORE.INTRA.REPUL.0>
0

>  <SCORE.INTRA.SOLV>
-1.40231

>  <SCORE.INTRA.SOLV.lig_0>
-115.677

>  <SCORE.INTRA.VDW>
1.35917

>  <SCORE.INTRA.VDW.0>
-7.4833

>  <SCORE.INTRA.norm>
-0.282527

>  <SCORE.RESTR>
0

>  <SCORE.RESTR.CAVITY>
0

>  <SCORE.RESTR.norm>
0

>  <SCORE.SYSTEM>
0

>  <SCORE.SYSTEM.CONST>
0

>  <SCORE.SYSTEM.DIHEDRAL>
0

>  <SCORE.SYSTEM.SOLV>
0

>  <SCORE.SYSTEM.norm>
0

>  <SCORE.heavy>
52

>  <SCORE.norm>
-0.435485

>  <RMSD>
8.574

$$$$
2be0_lig
 OpenBabel11021811423D
libRbt.so/2013.1/901 2013/11/27
 52 56  0  0  0  0  0  0  0  0999 V2000
   46.7621    3.7262   -5.3420 C   0  0  2  0  0  0  0  0  0  0  0  0
   46.2057    4.4840   -4.2937 O   0  0  0  0  0  0  0  0  0  0  0  0
   42.5413    6.7643   -3.4316 C   0  0  2  0  0  0  0  0  0  0  0  0
   41.1996    7.3793   -3.6346 N   0  0  0  0  0  0  0  0  0  0  0  0
   43.3371    2.3553   -2.4271 C   0  0  2  0  0  0  0  0  0  0  0  0
   43.9244    1.0381   -2.4055 O   0  0  0  0  0  0  0  0  0  0  0  0
   40.2452   -0.0971   -5.1537 C   0  0  1  0  0  0  0  0  0  0  0  0
   40.0400    6.7541    1.6047 C   0  0  0  0  0  0  0  0  0  0  0  0
   47.5927    2.4994   -4.7843 C   0  0  2  0  0  0  0  0  0  0  0  0
   46.7553    1.7013   -3.8863 N   0  0  0  0  0  0  0  0  0  0  0  0
   43.5296    7.2764   -4.5757 C   0  0  0  0  0  0  0  0  0  0  0  0
   41.8266    2.1635   -2.6370 C   0  0  2  0  0  0  0  0  0  0  0  0
   41.3074    1.9356   -1.2528 O   0  0  0  0  0  0  0  0  0  0  0  0
   39.9980    1.2881   -5.9669 C   0  0  2  0  0  0  0  0  0  0  0  0
   38.9591    2.0906   -5.2441 N   0  0  0  0  0  0  0  0  0  0  0  0
   40.6122    7.1787    2.8485 C   0  0  0  0  0  0  0  0  0  0  0  0
   40.0863    8.3183    3.5118 N   0  0  0  0  0  0  0  0  0  0  0  0
   48.9130    3.0309   -4.0562 C   0  0  1  0  0  0  0  0  0  0  0  0
   49.6385    1.9177   -3.5576 O   0  0  0  0  0  0  0  0  0  0  0  0
   45.0118    6.6123   -4.3969 C   0  0  2  0  0  0  0  0  0  0  0  0
   45.9115    7.0670   -5.4192 N   0  0  0  0  0  0  0  0  0  0  0  0
   41.8746    0.9941   -3.6386 C   0  0  2  0  0  0  0  0  0  0  0  0
   40.6758    0.2567   -3.8271 O   0  0  0  0  0  0  0  0  0  0  0  0
   39.5175    0.9204   -7.4032 C   0  0  1  0  0  0  0  0  0  0  0  0
   40.6137    0.1546   -8.0192 O   0  0  0  0  0  0  0  0  0  0  0  0
   38.9991    9.0813    2.9983 C   0  0  0  0  0  0  0  0  0  0  0  0
   49.7466    3.8537   -5.0810 C   0  0  2  0  0  0  0  0  0  0  0  0
   50.9868    4.3785   -4.4601 O   0  0  0  0  0  0  0  0  0  0  0  0
   44.9027    5.0328   -4.4500 C   0  0  2  0  0  0  0  0  0  0  0  0
   43.0625    0.1403   -3.1347 C   0  0  1  0  0  0  0  0  0  0  0  0
   38.1545    0.0362   -7.3245 C   0  0  2  0  0  0  0  0  0  0  0  0
   37.0544    0.7953   -6.7095 O   0  0  0  0  0  0  0  0  0  0  0  0
   38.3923    8.7089    1.7734 C   0  0  0  0  0  0  0  0  0  0  0  0
   48.9028    5.0700   -5.6252 C   0  0  2  0  0  0  0  0  0  0  0  0
   47.7050    4.4935   -6.2151 O   0  0  0  0  0  0  0  0  0  0  0  0
   43.9156    4.5841   -3.3172 C   0  0  2  0  0  0  0  0  0  0  0  0
   43.9049    3.1678   -3.4492 O   0  0  0  0  0  0  0  0  0  0  0  0
   43.8903   -0.4401   -4.2801 C   0  0  0  0  0  0  0  0  0  0  0  0
   44.5770    0.5018   -5.0690 O   0  0  0  0  0  0  0  0  0  0  0  0
   38.4297   -1.2900   -6.4770 C   0  0  1  0  0  0  0  0  0  0  0  0
   38.9384   -0.8883   -5.1079 O   0  0  0  0  0  0  0  0  0  0  0  0
   38.9051    7.5273    1.0418 C   0  0  0  0  0  0  0  0  0  0  0  0
   49.7321    5.7946   -6.6015 C   0  0  0  0  0  0  0  0  0  0  0  0
   50.6538    6.5184   -5.9540 O   0  0  0  0  0  0  0  0  0  0  0  0
   42.4799    5.2222   -3.5388 C   0  0  1  0  0  0  0  0  0  0  0  0
   41.6204    4.8236   -2.5220 O   0  0  0  0  0  0  0  0  0  0  0  0
   41.5421    2.7517   -0.0382 C   0  0  0  0  0  0  0  0  0  0  0  0
   37.0965   -2.0848   -6.4267 C   0  0  0  0  0  0  0  0  0  0  0  0
   36.9318   -2.8755   -7.6210 N   0  0  0  0  0  0  0  0  0  0  0  0
   40.1881    2.9301    0.6564 C   0  0  0  0  0  0  0  0  0  0  0  0
   40.2435    4.1268    1.5573 N   0  0  0  0  0  0  0  0  0  0  0  0
   40.6543    5.4604    0.8770 C   0  0  0  0  0  0  0  0  0  0  0  0
  1  2  1  1  0  0  0
  1  9  1  0  0  0  0
  1 35  1  0  0  0  0
  3  4  1  6  0  0  0
  3 11  1  0  0  0  0
  3 45  1  0  0  0  0
  5  6  1  0  0  0  0
  5 12  1  0  0  0  0
  5 37  1  6  0  0  0
  6 30  1  0  0  0  0
  7 14  1  0  0  0  0
  7 41  1  0  0  0  0
  7 23  1  1  0  0  0
  8 16  2  0  0  0  0
  8 42  1  0  0  0  0
  9 10  1  1  0  0  0
  9 18  1  0  0  0  0
 11 20  1  0  0  0  0
 12 13  1  1  0  0  0
 12 22  1  0  0  0  0
 13 47  1  0  0  0  0
 14 15  1  1  0  0  0
 14 24  1  0  0  0  0
 16 17  1  0  0  0  0
 17 26  2  0  0  0  0
 18 19  1  6  0  0  0
 18 27  1  0  0  0  0
 20 21  1  6  0  0  0
 20 29  1  0  0  0  0
 22 23  1  1  0  0  0
 22 30  1  0  0  0  0
 24 25  1  1  0  0  0
 24 31  1  0  0  0  0
 26 33  1  0  0  0  0
 27 28  1  1  0  0  0
 27 34  1  0  0  0  0
 29  2  1  1  0  0  0
 29 36  1  0  0  0  0
 30 38  1  6  0  0  0
 31 32  1  1  0  0  0
 31 40  1  0  0  0  0
 33 42  2  0  0  0  0
 34 35  1  0  0  0  0
 34 43  1  6  0  0  0
 36 37  1  6  0  0  0
 36 45  1  0  0  0  0
 38 39  1  0  0  0  0
 40 41  1  0  0  0  0
 40 48  1  1  0  0  0
 43 44  1  0  0  0  0
 45 46  1  1  0  0  0
 47 50  1  0  0  0  0
 48 49  1  0  0  0  0
 50 51  1  0  0  0  0
 51 52  1  0  0  0  0
 52  8  1  0  0  0  0
M  END
>  <CHROM.1>
-142.05370192,-153.56349450,-61.23485949,50.92675601,134.46649088,135.41282708
-117.27405773,-50.41253382,-75.77075070,167.13847122,83.10877736,-158.76332709
55.93255112,151.87701960,75.07726118,42.91763577,3.31282457,-3.55066602,-0.09585353
-0.30167327,-2.36487771

>  <Name>
2be0_lig

>  <RI>
2.10017e+07

>  <Rbt.Current_Directory>
/home/itssahil/PROJECTS/Mol_Feturizer/New_Systems/rnas/2be0

>  <Rbt.Executable>
rbdock ($Id: //depot/dev/client3/rdock/2013.1/src/exe/rbdock.cxx#4 $)

>  <Rbt.Library>
libRbt.so (2013.1, Build901 2013/11/27)

>  <Rbt.Parameter_File>
/export/apps/rDock/src/rDock_2013.1_src/data/scripts/dock_solv.prm

>  <Rbt.Receptor>
prm/pocket_docking_3.prm

>  <SCORE>
-0.200337

>  <SCORE.INTER>
2.15502

>  <SCORE.INTER.CONST>
1

>  <SCORE.INTER.POLAR>
0

>  <SCORE.INTER.ROT>
15

>  <SCORE.INTER.SOLV>
11.8296

>  <SCORE.INTER.VDW>
-16.1065

>  <SCORE.INTER.norm>
0.0414427

>  <SCORE.INTRA>
-2.726

>  <SCORE.INTRA.DIHEDRAL>
-13.0792

>  <SCORE.INTRA.DIHEDRAL.0>
47.8724

>  <SCORE.INTRA.POLAR>
0

>  <SCORE.INTRA.POLAR.0>
0

>  <SCORE.INTRA.REPUL>
0

>  <SCORE.INTRA.REPUL.0>
0

>  <SCORE.INTRA.SOLV>
2.62868

>  <SCORE.INTRA.SOLV.lig_0>
-115.677

>  <SCORE.INTRA.VDW>
2.49924

>  <SCORE.INTRA.VDW.0>
-7.4833

>  <SCORE.INTRA.norm>
-0.0524231

>  <SCORE.RESTR>
0.370647

>  <SCORE.RESTR.CAVITY>
0.370647

>  <SCORE.RESTR.norm>
0.00712782

>  <SCORE.SYSTEM>
0

>  <SCORE.SYSTEM.CONST>
0

>  <SCORE.SYSTEM.DIHEDRAL>
0

>  <SCORE.SYSTEM.SOLV>
0

>  <SCORE.SYSTEM.norm>
0

>  <SCORE.heavy>
52

>  <SCORE.norm>
-0.00385264

>  <RMSD>
8.597

$$$$
2be0_lig
 OpenBabel11021811423D
libRbt.so/2013.1/901 2013/11/27
 52 56  0  0  0  0  0  0  0  0999 V2000
   43.9292    1.9019   -3.1801 C   0  0  2  0  0  0  0  0  0  0  0  0
   44.2590    2.9627   -4.0453 O   0  0  0  0  0  0  0  0  0  0  0  0
   48.2603    3.9136   -5.6126 C   0  0  2  0  0  0  0  0  0  0  0  0
   49.5214    3.7794   -6.3943 N   0  0  0  0  0  0  0  0  0  0  0  0
   43.5523    5.2286   -6.3006 C   0  0  2  0  0  0  0  0  0  0  0  0
   42.8437    5.5466   -7.5160 O   0  0  0  0  0  0  0  0  0  0  0  0
   45.6058    9.0690   -8.3351 C   0  0  1  0  0  0  0  0  0  0  0  0
   40.6167    7.1692   -0.3371 C   0  0  0  0  0  0  0  0  0  0  0  0
   43.5707    0.5908   -3.9914 C   0  0  2  0  0  0  0  0  0  0  0  0
   44.6645    0.2602   -4.9073 N   0  0  0  0  0  0  0  0  0  0  0  0
   48.0632    2.6112   -4.7109 C   0  0  0  0  0  0  0  0  0  0  0  0
   44.1910    6.5359   -5.8053 C   0  0  2  0  0  0  0  0  0  0  0  0
   43.0962    7.1836   -5.0182 O   0  0  0  0  0  0  0  0  0  0  0  0
   46.2209   10.4996   -7.8700 C   0  0  2  0  0  0  0  0  0  0  0  0
   45.0971   11.3810   -7.4163 N   0  0  0  0  0  0  0  0  0  0  0  0
   39.9141    7.9180    0.6632 C   0  0  0  0  0  0  0  0  0  0  0  0
   40.1695    7.6687    2.0371 N   0  0  0  0  0  0  0  0  0  0  0  0
   42.1862    0.7982   -4.7633 C   0  0  1  0  0  0  0  0  0  0  0  0
   41.8871   -0.3839   -5.4894 O   0  0  0  0  0  0  0  0  0  0  0  0
   46.6805    2.7126   -3.8462 C   0  0  2  0  0  0  0  0  0  0  0  0
   46.4925    1.5475   -3.0286 N   0  0  0  0  0  0  0  0  0  0  0  0
   44.6070    7.1253   -7.1663 C   0  0  2  0  0  0  0  0  0  0  0  0
   44.9175    8.5106   -7.2015 O   0  0  0  0  0  0  0  0  0  0  0  0
   46.9586   11.1233   -9.0930 C   0  0  1  0  0  0  0  0  0  0  0  0
   48.0424   10.1889   -9.4388 O   0  0  0  0  0  0  0  0  0  0  0  0
   41.1042    6.6931    2.4873 C   0  0  0  0  0  0  0  0  0  0  0  0
   41.0818    1.1315   -3.7185 C   0  0  2  0  0  0  0  0  0  0  0  0
   39.7699    1.3394   -4.3778 O   0  0  0  0  0  0  0  0  0  0  0  0
   45.4459    2.8791   -4.8248 C   0  0  2  0  0  0  0  0  0  0  0  0
   43.4432    6.7204   -8.1020 C   0  0  1  0  0  0  0  0  0  0  0  0
   45.9224   11.3068  -10.3334 C   0  0  2  0  0  0  0  0  0  0  0  0
   44.8361   12.2393   -9.9947 O   0  0  0  0  0  0  0  0  0  0  0  0
   41.8292    5.9230    1.5448 C   0  0  0  0  0  0  0  0  0  0  0  0
   41.4569    2.4393   -2.9207 C   0  0  2  0  0  0  0  0  0  0  0  0
   42.7470    2.1749   -2.3038 O   0  0  0  0  0  0  0  0  0  0  0  0
   45.6938    4.1619   -5.6920 C   0  0  2  0  0  0  0  0  0  0  0  0
   44.5332    4.2184   -6.5125 O   0  0  0  0  0  0  0  0  0  0  0  0
   43.9269    6.3249   -9.4962 C   0  0  0  0  0  0  0  0  0  0  0  0
   42.9360    6.2962  -10.4955 O   0  0  0  0  0  0  0  0  0  0  0  0
   45.3060    9.8858  -10.7253 C   0  0  1  0  0  0  0  0  0  0  0  0
   44.6412    9.2957   -9.4987 O   0  0  0  0  0  0  0  0  0  0  0  0
   41.5983    6.1446    0.0985 C   0  0  0  0  0  0  0  0  0  0  0  0
   40.3909    2.6903   -1.9376 C   0  0  0  0  0  0  0  0  0  0  0  0
   40.7136    3.7541   -1.1913 O   0  0  0  0  0  0  0  0  0  0  0  0
   47.0267    4.0167   -6.5404 C   0  0  1  0  0  0  0  0  0  0  0  0
   47.2375    5.1646   -7.2950 O   0  0  0  0  0  0  0  0  0  0  0  0
   43.2052    8.2670   -4.0129 C   0  0  0  0  0  0  0  0  0  0  0  0
   44.3207   10.1241  -11.9017 C   0  0  0  0  0  0  0  0  0  0  0  0
   43.0851    9.4147  -11.6803 N   0  0  0  0  0  0  0  0  0  0  0  0
   42.7602    7.6836   -2.6679 C   0  0  0  0  0  0  0  0  0  0  0  0
   41.4389    6.9960   -2.8352 N   0  0  0  0  0  0  0  0  0  0  0  0
   40.3087    7.4735   -1.8839 C   0  0  0  0  0  0  0  0  0  0  0  0
  1  2  1  6  0  0  0
  1  9  1  0  0  0  0
  1 35  1  0  0  0  0
  3  4  1  6  0  0  0
  3 11  1  0  0  0  0
  3 45  1  0  0  0  0
  5  6  1  0  0  0  0
  5 12  1  0  0  0  0
  5 37  1  6  0  0  0
  6 30  1  0  0  0  0
  7 14  1  0  0  0  0
  7 41  1  0  0  0  0
  7 23  1  1  0  0  0
  8 16  2  0  0  0  0
  8 42  1  0  0  0  0
  9 10  1  6  0  0  0
  9 18  1  0  0  0  0
 11 20  1  0  0  0  0
 12 13  1  6  0  0  0
 12 22  1  0  0  0  0
 13 47  1  0  0  0  0
 14 15  1  6  0  0  0
 14 24  1  0  0  0  0
 16 17  1  0  0  0  0
 17 26  2  0  0  0  0
 18 19  1  1  0  0  0
 18 27  1  0  0  0  0
 20 21  1  6  0  0  0
 20 29  1  0  0  0  0
 22 23  1  1  0  0  0
 22 30  1  0  0  0  0
 24 25  1  6  0  0  0
 24 31  1  0  0  0  0
 26 33  1  0  0  0  0
 27 28  1  6  0  0  0
 27 34  1  0  0  0  0
 29  2  1  1  0  0  0
 29 36  1  0  0  0  0
 30 38  1  6  0  0  0
 31 32  1  1  0  0  0
 31 40  1  0  0  0  0
 33 42  2  0  0  0  0
 34 35  1  0  0  0  0
 34 43  1  1  0  0  0
 36 37  1  6  0  0  0
 36 45  1  0  0  0  0
 38 39  1  0  0  0  0
 40 41  1  0  0  0  0
 40 48  1  6  0  0  0
 43 44  1  0  0  0  0
 45 46  1  6  0  0  0
 47 50  1  0  0  0  0
 48 49  1  0  0  0  0
 50 51  1  0  0  0  0
 51 52  1  0  0  0  0
 52  8  1  0  0  0  0
M  END
>  <CHROM.1>
-67.05176072,152.12532407,-161.98486179,162.08769192,-115.80548911,165.43021460
-58.59305433,80.24648758,176.63207453,109.20563425,-134.49544337,-50.38685922
-125.05394277,-64.34698879,159.66269001,43.88179488,5.77621187,-5.36781781
-2.20956250,0.97123851,-0.36178837

>  <Name>
2be0_lig

>  <RI>
0

>  <Rbt.Current_Directory>
/home/itssahil/PROJECTS/Mol_Feturizer/New_Systems/rnas/2be0

>  <Rbt.Executable>
rbdock ($Id: //depot/dev/client3/rdock/2013.1/src/exe/rbdock.cxx#4 $)

>  <Rbt.Library>
libRbt.so (2013.1, Build901 2013/11/27)

>  <Rbt.Parameter_File>
/export/apps/rDock/src/rDock_2013.1_src/data/scripts/dock_solv.prm

>  <Rbt.Receptor>
prm/pocket_docking_2.prm

>  <SCORE>
3.79527

>  <SCORE.INTER>
1.20435

>  <SCORE.INTER.CONST>
1

>  <SCORE.INTER.POLAR>
-0.958258

>  <SCORE.INTER.ROT>
15

>  <SCORE.INTER.SOLV>
24.0243

>  <SCORE.INTER.VDW>
-17.611

>  <SCORE.INTER.norm>
0.0231605

>  <SCORE.INTRA>
-3.7488

>  <SCORE.INTRA.DIHEDRAL>
-18.1916

>  <SCORE.INTRA.DIHEDRAL.0>
47.8724

>  <SCORE.INTRA.POLAR>
0

>  <SCORE.INTRA.POLAR.0>
0

>  <SCORE.INTRA.REPUL>
0

>  <SCORE.INTRA.REPUL.0>
0

>  <SCORE.INTRA.SOLV>
4.21524

>  <SCORE.INTRA.SOLV.lig_0>
-115.677

>  <SCORE.INTRA.VDW>
3.23938

>  <SCORE.INTRA.VDW.0>
-7.4833

>  <SCORE.INTRA.norm>
-0.0720924

>  <SCORE.RESTR>
6.33973

>  <SCORE.RESTR.CAVITY>
6.33973

>  <SCORE.RESTR.norm>
0.121918

>  <SCORE.SYSTEM>
0

>  <SCORE.SYSTEM.CONST>
0

>  <SCORE.SYSTEM.DIHEDRAL>
0

>  <SCORE.SYSTEM.SOLV>
0

>  <SCORE.SYSTEM.norm>
0

>  <SCORE.heavy>
52

>  <SCORE.norm>
0.072986

>  <RMSD>
8.602

$$$$
2be0_lig
 OpenBabel11021811423D
libRbt.so/2013.1/901 2013/11/27
 52 56  0  0  0  0  0  0  0  0999 V2000
   42.3572   -0.5811   -6.3140 C   0  0  2  0  0  0  0  0  0  0  0  0
   41.0947   -0.5468   -5.6912 O   0  0  0  0  0  0  0  0  0  0  0  0
   39.7846   -0.4629   -1.4903 C   0  0  2  0  0  0  0  0  0  0  0  0
   39.6421   -0.8695   -0.0642 N   0  0  0  0  0  0  0  0  0  0  0  0
   43.1344    1.8754   -4.1011 C   0  0  2  0  0  0  0  0  0  0  0  0
   44.5634    2.0459   -4.0048 O   0  0  0  0  0  0  0  0  0  0  0  0
   42.5069    4.0145   -0.0654 C   0  0  1  0  0  0  0  0  0  0  0  0
   43.6169    7.9222   -7.7771 C   0  0  0  0  0  0  0  0  0  0  0  0
   42.2627   -0.1246   -7.8268 C   0  0  2  0  0  0  0  0  0  0  0  0
   41.6223    1.1899   -7.9086 N   0  0  0  0  0  0  0  0  0  0  0  0
   39.3303   -1.6733   -2.4268 C   0  0  0  0  0  0  0  0  0  0  0  0
   42.4995    2.9295   -3.1801 C   0  0  2  0  0  0  0  0  0  0  0  0
   42.4295    4.1500   -4.0419 O   0  0  0  0  0  0  0  0  0  0  0  0
   41.0547    4.0398   -0.7945 C   0  0  2  0  0  0  0  0  0  0  0  0
   40.9911    5.2343   -1.6972 N   0  0  0  0  0  0  0  0  0  0  0  0
   44.2085    9.1483   -8.2261 C   0  0  0  0  0  0  0  0  0  0  0  0
   44.1075    9.5188   -9.5927 N   0  0  0  0  0  0  0  0  0  0  0  0
   41.4737   -1.2281   -8.6728 C   0  0  1  0  0  0  0  0  0  0  0  0
   41.3936   -0.7968  -10.0225 O   0  0  0  0  0  0  0  0  0  0  0  0
   39.4853   -1.2720   -4.0031 C   0  0  2  0  0  0  0  0  0  0  0  0
   39.0775   -2.3521   -4.8565 N   0  0  0  0  0  0  0  0  0  0  0  0
   43.5110    2.8686   -2.0200 C   0  0  2  0  0  0  0  0  0  0  0  0
   43.5042    3.9511   -1.1008 O   0  0  0  0  0  0  0  0  0  0  0  0
   39.9637    4.1223    0.3155 C   0  0  1  0  0  0  0  0  0  0  0  0
   40.1083    2.9010    1.1247 O   0  0  0  0  0  0  0  0  0  0  0  0
   43.4380    8.7218  -10.5646 C   0  0  0  0  0  0  0  0  0  0  0  0
   42.2261   -2.5841   -8.5416 C   0  0  2  0  0  0  0  0  0  0  0  0
   41.5366   -3.6522   -9.3050 O   0  0  0  0  0  0  0  0  0  0  0  0
   40.9906   -0.8889   -4.3145 C   0  0  2  0  0  0  0  0  0  0  0  0
   44.8665    2.6651   -2.7378 C   0  0  1  0  0  0  0  0  0  0  0  0
   40.1888    5.4561    1.2188 C   0  0  2  0  0  0  0  0  0  0  0  0
   40.0461    6.6809    0.4164 O   0  0  0  0  0  0  0  0  0  0  0  0
   42.8330    7.5000  -10.1796 C   0  0  0  0  0  0  0  0  0  0  0  0
   42.3104   -3.0215   -7.0286 C   0  0  2  0  0  0  0  0  0  0  0  0
   42.9892   -1.9376   -6.3363 O   0  0  0  0  0  0  0  0  0  0  0  0
   41.3888    0.2930   -3.3639 C   0  0  2  0  0  0  0  0  0  0  0  0
   42.7360    0.5581   -3.7357 O   0  0  0  0  0  0  0  0  0  0  0  0
   45.7878    1.7081   -1.9831 C   0  0  0  0  0  0  0  0  0  0  0  0
   45.2497    0.4358   -1.7134 O   0  0  0  0  0  0  0  0  0  0  0  0
   41.6444    5.4130    1.8763 C   0  0  1  0  0  0  0  0  0  0  0  0
   42.6687    5.2855    0.7676 O   0  0  0  0  0  0  0  0  0  0  0  0
   42.9112    7.0681   -8.7648 C   0  0  0  0  0  0  0  0  0  0  0  0
   43.0479   -4.2936   -6.9663 C   0  0  0  0  0  0  0  0  0  0  0  0
   42.2338   -5.2988   -7.3120 O   0  0  0  0  0  0  0  0  0  0  0  0
   41.2560   -0.1407   -1.8435 C   0  0  1  0  0  0  0  0  0  0  0  0
   41.6021    0.9198   -1.0146 O   0  0  0  0  0  0  0  0  0  0  0  0
   41.6926    4.3345   -5.3145 C   0  0  0  0  0  0  0  0  0  0  0  0
   41.8059    6.7107    2.7139 C   0  0  0  0  0  0  0  0  0  0  0  0
   41.8327    7.8687    1.8554 N   0  0  0  0  0  0  0  0  0  0  0  0
   41.8972    5.7891   -5.7498 C   0  0  0  0  0  0  0  0  0  0  0  0
   43.3608    6.0527   -5.9370 N   0  0  0  0  0  0  0  0  0  0  0  0
   43.7454    7.5290   -6.2249 C   0  0  0  0  0  0  0  0  0  0  0  0
  1  2  1  6  0  0  0
  1  9  1  0  0  0  0
  1 35  1  0  0  0  0
  3  4  1  1  0  0  0
  3 11  1  0  0  0  0
  3 45  1  0  0  0  0
  5  6  1  0  0  0  0
  5 12  1  0  0  0  0
  5 37  1  1  0  0  0
  6 30  1  0  0  0  0
  7 14  1  0  0  0  0
  7 41  1  0  0  0  0
  7 23  1  6  0  0  0
  8 16  2  0  0  0  0
  8 42  1  0  0  0  0
  9 10  1  1  0  0  0
  9 18  1  0  0  0  0
 11 20  1  0  0  0  0
 12 13  1  6  0  0  0
 12 22  1  0  0  0  0
 13 47  1  0  0  0  0
 14 15  1  6  0  0  0
 14 24  1  0  0  0  0
 16 17  1  0  0  0  0
 17 26  2  0  0  0  0
 18 19  1  6  0  0  0
 18 27  1  0  0  0  0
 20 21  1  6  0  0  0
 20 29  1  0  0  0  0
 22 23  1  6  0  0  0
 22 30  1  0  0  0  0
 24 25  1  1  0  0  0
 24 31  1  0  0  0  0
 26 33  1  0  0  0  0
 27 28  1  6  0  0  0
 27 34  1  0  0  0  0
 29  2  1  6  0  0  0
 29 36  1  0  0  0  0
 30 38  1  1  0  0  0
 31 32  1  6  0  0  0
 31 40  1  0  0  0  0
 33 42  2  0  0  0  0
 34 35  1  0  0  0  0
 34 43  1  6  0  0  0
 36 37  1  6  0  0  0
 36 45  1  0  0  0  0
 38 39  1  0  0  0  0
 40 41  1  0  0  0  0
 40 48  1  6  0  0  0
 43 44  1  0  0  0  0
 45 46  1  1  0  0  0
 47 50  1  0  0  0  0
 48 49  1  0  0  0  0
 50 51  1  0  0  0  0
 51 52  1  0  0  0  0
 52  8  1  0  0  0  0
M  END
>  <CHROM.1>
-178.21404608,160.54538014,-59.12695252,61.12253186,177.22878673,79.27974409
-160.02430552,-60.46282436,-78.79778060,126.48262704,-66.73830860,59.68097759
-173.42425528,-84.19410312,-166.69245113,42.12165249,2.33992133,-4.09186161
-1.68567773,1.34582074,0.74682698

>  <Name>
2be0_lig

>  <RI>
0

>  <Rbt.Current_Directory>
/home/itssahil/PROJECTS/Mol_Feturizer/New_Systems/rnas/2be0

>  <Rbt.Executable>
rbdock ($Id: //depot/dev/client3/rdock/2013.1/src/exe/rbdock.cxx#4 $)

>  <Rbt.Library>
libRbt.so (2013.1, Build901 2013/11/27)

>  <Rbt.Parameter_File>
/export/apps/rDock/src/rDock_2013.1_src/data/scripts/dock_solv.prm

>  <Rbt.Receptor>
prm/pocket_docking_4.prm

>  <SCORE>
-20.1011

>  <SCORE.INTER>
-7.2115

>  <SCORE.INTER.CONST>
1

>  <SCORE.INTER.POLAR>
0

>  <SCORE.INTER.ROT>
15

>  <SCORE.INTER.SOLV>
9.36918

>  <SCORE.INTER.VDW>
-21.5307

>  <SCORE.INTER.norm>
-0.138683

>  <SCORE.INTRA>
-13.4005

>  <SCORE.INTRA.DIHEDRAL>
-32.6213

>  <SCORE.INTRA.DIHEDRAL.0>
47.8724

>  <SCORE.INTRA.POLAR>
0

>  <SCORE.INTRA.POLAR.0>
0

>  <SCORE.INTRA.REPUL>
0

>  <SCORE.INTRA.REPUL.0>
0

>  <SCORE.INTRA.SOLV>
2.98672

>  <SCORE.INTRA.SOLV.lig_0>
-115.677

>  <SCORE.INTRA.VDW>
1.41677

>  <SCORE.INTRA.VDW.0>
-7.4833

>  <SCORE.INTRA.norm>
-0.257703

>  <SCORE.RESTR>
0.510971

>  <SCORE.RESTR.CAVITY>
0.510971

>  <SCORE.RESTR.norm>
0.00982637

>  <SCORE.SYSTEM>
0

>  <SCORE.SYSTEM.CONST>
0

>  <SCORE.SYSTEM.DIHEDRAL>
0

>  <SCORE.SYSTEM.SOLV>
0

>  <SCORE.SYSTEM.norm>
0

>  <SCORE.heavy>
52

>  <SCORE.norm>
-0.386559

>  <RMSD>
8.618

$$$$
2be0_lig
 OpenBabel11021811423D
libRbt.so/2013.1/901 2013/11/27
 52 56  0  0  0  0  0  0  0  0999 V2000
   40.7306    1.0665   -3.9335 C   0  0  2  0  0  0  0  0  0  0  0  0
   41.3499   -0.1827   -4.1305 O   0  0  0  0  0  0  0  0  0  0  0  0
   45.4177   -1.1364   -5.5140 C   0  0  2  0  0  0  0  0  0  0  0  0
   46.5858   -1.2683   -6.4293 N   0  0  0  0  0  0  0  0  0  0  0  0
   44.1899    2.8226   -3.8040 C   0  0  2  0  0  0  0  0  0  0  0  0
   44.9800    2.3921   -2.6767 O   0  0  0  0  0  0  0  0  0  0  0  0
   41.8895    4.3831    0.1232 C   0  0  1  0  0  0  0  0  0  0  0  0
   43.4330    9.1170    0.1130 C   0  0  0  0  0  0  0  0  0  0  0  0
   39.5125    0.9505   -2.9293 C   0  0  2  0  0  0  0  0  0  0  0  0
   39.9584    0.3320   -1.6790 N   0  0  0  0  0  0  0  0  0  0  0  0
   44.1761   -1.9250   -6.1343 C   0  0  0  0  0  0  0  0  0  0  0  0
   43.4337    4.0845   -3.3589 C   0  0  2  0  0  0  0  0  0  0  0  0
   44.4159    5.1856   -3.6044 O   0  0  0  0  0  0  0  0  0  0  0  0
   40.3589    4.2536   -0.4076 C   0  0  2  0  0  0  0  0  0  0  0  0
   39.9595    5.5504   -1.0434 N   0  0  0  0  0  0  0  0  0  0  0  0
   42.3498    9.4629    0.9858 C   0  0  0  0  0  0  0  0  0  0  0  0
   42.0537   10.8292    1.2318 N   0  0  0  0  0  0  0  0  0  0  0  0
   38.3272    0.1257   -3.6152 C   0  0  1  0  0  0  0  0  0  0  0  0
   37.2495    0.0267   -2.6971 O   0  0  0  0  0  0  0  0  0  0  0  0
   42.8671   -1.7929   -5.1653 C   0  0  2  0  0  0  0  0  0  0  0  0
   41.7433   -2.5003   -5.7112 N   0  0  0  0  0  0  0  0  0  0  0  0
   43.1015    3.6631   -1.9149 C   0  0  2  0  0  0  0  0  0  0  0  0
   42.7126    4.6914   -1.0162 O   0  0  0  0  0  0  0  0  0  0  0  0
   39.4528    3.9329    0.8193 C   0  0  1  0  0  0  0  0  0  0  0  0
   39.9212    2.6417    1.3492 O   0  0  0  0  0  0  0  0  0  0  0  0
   42.7902   11.8994    0.6484 C   0  0  0  0  0  0  0  0  0  0  0  0
   37.9081    0.8565   -4.9239 C   0  0  2  0  0  0  0  0  0  0  0  0
   36.8101    0.1333   -5.6098 O   0  0  0  0  0  0  0  0  0  0  0  0
   42.4914   -0.2658   -4.9751 C   0  0  2  0  0  0  0  0  0  0  0  0
   44.3637    2.8865   -1.4699 C   0  0  1  0  0  0  0  0  0  0  0  0
   39.5885    5.1098    1.9339 C   0  0  2  0  0  0  0  0  0  0  0  0
   39.1224    6.4036    1.4111 O   0  0  0  0  0  0  0  0  0  0  0  0
   43.8711   11.6189   -0.2234 C   0  0  0  0  0  0  0  0  0  0  0  0
   39.1340    0.9626   -5.9105 C   0  0  2  0  0  0  0  0  0  0  0  0
   40.1727    1.6740   -5.1825 O   0  0  0  0  0  0  0  0  0  0  0  0
   43.7439    0.4628   -4.3757 C   0  0  2  0  0  0  0  0  0  0  0  0
   43.2933    1.8049   -4.2374 O   0  0  0  0  0  0  0  0  0  0  0  0
   44.0262    1.6691   -0.6107 C   0  0  0  0  0  0  0  0  0  0  0  0
   43.5330    1.9541    0.6764 O   0  0  0  0  0  0  0  0  0  0  0  0
   41.1143    5.2351    2.3911 C   0  0  1  0  0  0  0  0  0  0  0  0
   41.9632    5.4992    1.1646 O   0  0  0  0  0  0  0  0  0  0  0  0
   44.2209   10.2087   -0.5118 C   0  0  0  0  0  0  0  0  0  0  0  0
   38.6840    1.6786   -7.1151 C   0  0  0  0  0  0  0  0  0  0  0  0
   37.8200    0.9125   -7.7929 O   0  0  0  0  0  0  0  0  0  0  0  0
   44.9862    0.3407   -5.3551 C   0  0  1  0  0  0  0  0  0  0  0  0
   46.0899    0.9820   -4.8054 O   0  0  0  0  0  0  0  0  0  0  0  0
   44.1417    6.6110   -3.9033 C   0  0  0  0  0  0  0  0  0  0  0  0
   41.1840    6.3761    3.4422 C   0  0  0  0  0  0  0  0  0  0  0  0
   42.5327    6.5396    3.9249 N   0  0  0  0  0  0  0  0  0  0  0  0
   43.4232    7.1994   -2.6847 C   0  0  0  0  0  0  0  0  0  0  0  0
   44.3833    7.2953   -1.5377 N   0  0  0  0  0  0  0  0  0  0  0  0
   43.7445    7.5630   -0.1483 C   0  0  0  0  0  0  0  0  0  0  0  0
  1  2  1  6  0  0  0
  1  9  1  0  0  0  0
  1 35  1  0  0  0  0
  3  4  1  6  0  0  0
  3 11  1  0  0  0  0
  3 45  1  0  0  0  0
  5  6  1  0  0  0  0
  5 12  1  0  0  0  0
  5 37  1  1  0  0  0
  6 30  1  0  0  0  0
  7 14  1  0  0  0  0
  7 41  1  0  0  0  0
  7 23  1  6  0  0  0
  8 16  2  0  0  0  0
  8 42  1  0  0  0  0
  9 10  1  1  0  0  0
  9 18  1  0  0  0  0
 11 20  1  0  0  0  0
 12 13  1  1  0  0  0
 12 22  1  0  0  0  0
 13 47  1  0  0  0  0
 14 15  1  1  0  0  0
 14 24  1  0  0  0  0
 16 17  1  0  0  0  0
 17 26  2  0  0  0  0
 18 19  1  1  0  0  0
 18 27  1  0  0  0  0
 20 21  1  6  0  0  0
 20 29  1  0  0  0  0
 22 23  1  1  0  0  0
 22 30  1  0  0  0  0
 24 25  1  1  0  0  0
 24 31  1  0  0  0  0
 26 33  1  0  0  0  0
 27 28  1  6  0  0  0
 27 34  1  0  0  0  0
 29  2  1  1  0  0  0
 29 36  1  0  0  0  0
 30 38  1  1  0  0  0
 31 32  1  6  0  0  0
 31 40  1  0  0  0  0
 33 42  2  0  0  0  0
 34 35  1  0  0  0  0
 34 43  1  6  0  0  0
 36 37  1  6  0  0  0
 36 45  1  0  0  0  0
 38 39  1  0  0  0  0
 40 41  1  0  0  0  0
 40 48  1  1  0  0  0
 43 44  1  0  0  0  0
 45 46  1  1  0  0  0
 47 50  1  0  0  0  0
 48 49  1  0  0  0  0
 50 51  1  0  0  0  0
 51 52  1  0  0  0  0
 52  8  1  0  0  0  0
M  END
>  <CHROM.1>
-178.21219179,-45.18292469,-79.11644662,152.58739162,63.11393439,154.61905507
-172.85452527,173.97196124,-68.71697686,-175.46467850,179.04903597,69.88564153
-166.58302235,-82.56223556,151.49892330,41.99813465,3.41119663,-2.27076257
1.66348819,-0.28006708,-2.48293872

>  <Name>
2be0_lig

>  <RI>
3.37048e+07

>  <Rbt.Current_Directory>
/home/itssahil/PROJECTS/Mol_Feturizer/New_Systems/rnas/2be0

>  <Rbt.Executable>
rbdock ($Id: //depot/dev/client3/rdock/2013.1/src/exe/rbdock.cxx#4 $)

>  <Rbt.Library>
libRbt.so (2013.1, Build901 2013/11/27)

>  <Rbt.Parameter_File>
/export/apps/rDock/src/rDock_2013.1_src/data/scripts/dock_solv.prm

>  <Rbt.Receptor>
prm/pocket_docking_8.prm

>  <SCORE>
-27.8082

>  <SCORE.INTER>
-9.85614

>  <SCORE.INTER.CONST>
1

>  <SCORE.INTER.POLAR>
-0.894427

>  <SCORE.INTER.ROT>
15

>  <SCORE.INTER.SOLV>
14.7933

>  <SCORE.INTER.VDW>
-22.1204

>  <SCORE.INTER.norm>
-0.189541

>  <SCORE.INTRA>
-17.9521

>  <SCORE.INTRA.DIHEDRAL>
-36.7969

>  <SCORE.INTRA.DIHEDRAL.0>
47.8724

>  <SCORE.INTRA.POLAR>
0

>  <SCORE.INTRA.POLAR.0>
0

>  <SCORE.INTRA.REPUL>
0

>  <SCORE.INTRA.REPUL.0>
0

>  <SCORE.INTRA.SOLV>
-0.219591

>  <SCORE.INTRA.SOLV.lig_0>
-115.677

>  <SCORE.INTRA.VDW>
0.5562

>  <SCORE.INTRA.VDW.0>
-7.4833

>  <SCORE.INTRA.norm>
-0.345232

>  <SCORE.RESTR>
0

>  <SCORE.RESTR.CAVITY>
0

>  <SCORE.RESTR.norm>
0

>  <SCORE.SYSTEM>
0

>  <SCORE.SYSTEM.CONST>
0

>  <SCORE.SYSTEM.DIHEDRAL>
0

>  <SCORE.SYSTEM.SOLV>
0

>  <SCORE.SYSTEM.norm>
0

>  <SCORE.heavy>
52

>  <SCORE.norm>
-0.534773

>  <RMSD>
8.618

$$$$
2be0_lig
 OpenBabel11021811423D
libRbt.so/2013.1/901 2013/11/27
 52 56  0  0  0  0  0  0  0  0999 V2000
   41.0092    5.4296   -0.7450 C   0  0  2  0  0  0  0  0  0  0  0  0
   41.0938    5.6272    0.6467 O   0  0  0  0  0  0  0  0  0  0  0  0
   39.2393    3.6772    4.1294 C   0  0  2  0  0  0  0  0  0  0  0  0
   38.1801    3.1367    5.0268 N   0  0  0  0  0  0  0  0  0  0  0  0
   40.8869    1.6236    0.3578 C   0  0  2  0  0  0  0  0  0  0  0  0
   42.2963    1.5543    0.6566 O   0  0  0  0  0  0  0  0  0  0  0  0
   41.6652    1.6066   -4.1554 C   0  0  1  0  0  0  0  0  0  0  0  0
   40.5393   -2.8786   -4.1149 C   0  0  0  0  0  0  0  0  0  0  0  0
   41.6733    6.6292   -1.5358 C   0  0  2  0  0  0  0  0  0  0  0  0
   43.0477    6.8285   -1.0710 N   0  0  0  0  0  0  0  0  0  0  0  0
   38.9526    5.2234    3.8546 C   0  0  0  0  0  0  0  0  0  0  0  0
   40.7172    1.1405   -1.0915 C   0  0  2  0  0  0  0  0  0  0  0  0
   40.6334   -0.3468   -0.9566 O   0  0  0  0  0  0  0  0  0  0  0  0
   42.4454    0.9209   -5.4054 C   0  0  2  0  0  0  0  0  0  0  0  0
   43.8399    1.4669   -5.4591 N   0  0  0  0  0  0  0  0  0  0  0  0
   40.4792   -3.7903   -5.2194 C   0  0  0  0  0  0  0  0  0  0  0  0
   41.5970   -3.9217   -6.0844 N   0  0  0  0  0  0  0  0  0  0  0  0
   40.7850    7.9466   -1.3590 C   0  0  1  0  0  0  0  0  0  0  0  0
   41.4008    9.0106   -2.0682 O   0  0  0  0  0  0  0  0  0  0  0  0
   40.0868    5.8521    2.8605 C   0  0  2  0  0  0  0  0  0  0  0  0
   39.8414    7.2438    2.6071 N   0  0  0  0  0  0  0  0  0  0  0  0
   41.9761    1.7838   -1.7032 C   0  0  2  0  0  0  0  0  0  0  0  0
   42.4057    1.2894   -2.9631 O   0  0  0  0  0  0  0  0  0  0  0  0
   41.6613    1.2678   -6.7069 C   0  0  1  0  0  0  0  0  0  0  0  0
   40.3235    0.6733   -6.5510 O   0  0  0  0  0  0  0  0  0  0  0  0
   42.8010   -3.1805   -5.9135 C   0  0  0  0  0  0  0  0  0  0  0  0
   39.3511    7.6516   -1.8871 C   0  0  2  0  0  0  0  0  0  0  0  0
   38.4759    8.8404   -1.7451 O   0  0  0  0  0  0  0  0  0  0  0  0
   40.1002    5.0574    1.4901 C   0  0  2  0  0  0  0  0  0  0  0  0
   43.0319    1.6409   -0.5811 C   0  0  1  0  0  0  0  0  0  0  0  0
   41.5698    2.8818   -6.8878 C   0  0  2  0  0  0  0  0  0  0  0  0
   42.9035    3.4830   -7.0439 O   0  0  0  0  0  0  0  0  0  0  0  0
   42.9192   -2.2650   -4.8389 C   0  0  0  0  0  0  0  0  0  0  0  0
   38.7068    6.4542   -1.0879 C   0  0  2  0  0  0  0  0  0  0  0  0
   39.6084    5.3265   -1.2619 O   0  0  0  0  0  0  0  0  0  0  0  0
   40.3740    3.5482    1.8162 C   0  0  2  0  0  0  0  0  0  0  0  0
   40.3769    2.9419    0.5295 O   0  0  0  0  0  0  0  0  0  0  0  0
   43.9395    2.8653   -0.4755 C   0  0  0  0  0  0  0  0  0  0  0  0
   44.7015    3.1552   -1.6229 O   0  0  0  0  0  0  0  0  0  0  0  0
   40.8406    3.5184   -5.6167 C   0  0  1  0  0  0  0  0  0  0  0  0
   41.6069    3.1182   -4.3728 O   0  0  0  0  0  0  0  0  0  0  0  0
   41.7800   -2.0907   -3.9082 C   0  0  0  0  0  0  0  0  0  0  0  0
   37.3664    6.2090   -1.6441 C   0  0  0  0  0  0  0  0  0  0  0  0
   37.4812    5.7072   -2.8801 O   0  0  0  0  0  0  0  0  0  0  0  0
   39.2388    2.9626    2.7573 C   0  0  1  0  0  0  0  0  0  0  0  0
   39.5011    1.6285    3.0452 O   0  0  0  0  0  0  0  0  0  0  0  0
   39.5039   -1.1605   -0.4483 C   0  0  0  0  0  0  0  0  0  0  0  0
   40.7925    5.0545   -5.8394 C   0  0  0  0  0  0  0  0  0  0  0  0
   39.7827    5.3949   -6.8106 N   0  0  0  0  0  0  0  0  0  0  0  0
   38.3580   -1.0250   -1.4562 C   0  0  0  0  0  0  0  0  0  0  0  0
   38.8773   -1.2797   -2.8390 N   0  0  0  0  0  0  0  0  0  0  0  0
   39.2601   -2.7514   -3.1517 C   0  0  0  0  0  0  0  0  0  0  0  0
  1  2  1  1  0  0  0
  1  9  1  0  0  0  0
  1 35  1  0  0  0  0
  3  4  1  1  0  0  0
  3 11  1  0  0  0  0
  3 45  1  0  0  0  0
  5  6  1  0  0  0  0
  5 12  1  0  0  0  0
  5 37  1  6  0  0  0
  6 30  1  0  0  0  0
  7 14  1  0  0  0  0
  7 41  1  0  0  0  0
  7 23  1  1  0  0  0
  8 16  2  0  0  0  0
  8 42  1  0  0  0  0
  9 10  1  1  0  0  0
  9 18  1  0  0  0  0
 11 20  1  0  0  0  0
 12 13  1  1  0  0  0
 12 22  1  0  0  0  0
 13 47  1  0  0  0  0
 14 15  1  6  0  0  0
 14 24  1  0  0  0  0
 16 17  1  0  0  0  0
 17 26  2  0  0  0  0
 18 19  1  6  0  0  0
 18 27  1  0  0  0  0
 20 21  1  6  0  0  0
 20 29  1  0  0  0  0
 22 23  1  6  0  0  0
 22 30  1  0  0  0  0
 24 25  1  1  0  0  0
 24 31  1  0  0  0  0
 26 33  1  0  0  0  0
 27 28  1  1  0  0  0
 27 34  1  0  0  0  0
 29  2  1  6  0  0  0
 29 36  1  0  0  0  0
 30 38  1  1  0  0  0
 31 32  1  1  0  0  0
 31 40  1  0  0  0  0
 33 42  2  0  0  0  0
 34 35  1  0  0  0  0
 34 43  1  6  0  0  0
 36 37  1  6  0  0  0
 36 45  1  0  0  0  0
 38 39  1  0  0  0  0
 40 41  1  0  0  0  0
 40 48  1  6  0  0  0
 43 44  1  0  0  0  0
 45 46  1  1  0  0  0
 47 50  1  0  0  0  0
 48 49  1  0  0  0  0
 50 51  1  0  0  0  0
 51 52  1  0  0  0  0
 52  8  1  0  0  0  0
M  END
>  <CHROM.1>
151.67031862,-64.02808171,178.57716126,73.91068801,67.36137800,72.79378921
-158.43329161,-177.22755866,69.06909049,165.85513078,75.38965402,49.44895902
70.79950824,-144.22669796,-133.90227954,40.76808199,2.79994650,-1.90944869
-2.50624013,-1.34236091,2.93445172

>  <Name>
2be0_lig

>  <RI>
0

>  <Rbt.Current_Directory>
/home/itssahil/PROJECTS/Mol_Feturizer/New_Systems/rnas/2be0

>  <Rbt.Executable>
rbdock ($Id: //depot/dev/client3/rdock/2013.1/src/exe/rbdock.cxx#4 $)

>  <Rbt.Library>
libRbt.so (2013.1, Build901 2013/11/27)

>  <Rbt.Parameter_File>
/export/apps/rDock/src/rDock_2013.1_src/data/scripts/dock_solv.prm

>  <Rbt.Receptor>
prm/pocket_docking_6.prm

>  <SCORE>
-22.6631

>  <SCORE.INTER>
-3.37708

>  <SCORE.INTER.CONST>
1

>  <SCORE.INTER.POLAR>
0

>  <SCORE.INTER.ROT>
15

>  <SCORE.INTER.SOLV>
11.3998

>  <SCORE.INTER.VDW>
-19.6513

>  <SCORE.INTER.norm>
-0.0649439

>  <SCORE.INTRA>
-19.438

>  <SCORE.INTRA.DIHEDRAL>
-36.0304

>  <SCORE.INTRA.DIHEDRAL.0>
47.8724

>  <SCORE.INTRA.POLAR>
0

>  <SCORE.INTRA.POLAR.0>
0

>  <SCORE.INTRA.REPUL>
0.00727076

>  <SCORE.INTRA.REPUL.0>
0

>  <SCORE.INTRA.SOLV>
-1.32136

>  <SCORE.INTRA.SOLV.lig_0>
-115.677

>  <SCORE.INTRA.VDW>
-0.798436

>  <SCORE.INTRA.VDW.0>
-7.4833

>  <SCORE.INTRA.norm>
-0.373807

>  <SCORE.RESTR>
0.151937

>  <SCORE.RESTR.CAVITY>
0.151937

>  <SCORE.RESTR.norm>
0.00292187

>  <SCORE.SYSTEM>
0

>  <SCORE.SYSTEM.CONST>
0

>  <SCORE.SYSTEM.DIHEDRAL>
0

>  <SCORE.SYSTEM.SOLV>
0

>  <SCORE.SYSTEM.norm>
0

>  <SCORE.heavy>
52

>  <SCORE.norm>
-0.435829

>  <RMSD>
8.623

$$$$
2be0_lig
 OpenBabel11021811423D
libRbt.so/2013.1/901 2013/11/27
 52 56  0  0  0  0  0  0  0  0999 V2000
   45.0704    3.1206   -3.8019 C   0  0  2  0  0  0  0  0  0  0  0  0
   45.5623    2.5860   -5.0081 O   0  0  0  0  0  0  0  0  0  0  0  0
   48.5427    5.6463   -6.0677 C   0  0  2  0  0  0  0  0  0  0  0  0
   49.5455    6.3985   -6.8727 N   0  0  0  0  0  0  0  0  0  0  0  0
   43.7937    5.7424   -6.0626 C   0  0  2  0  0  0  0  0  0  0  0  0
   42.6134    5.6323   -6.8843 O   0  0  0  0  0  0  0  0  0  0  0  0
   44.9903    9.2892   -8.9604 C   0  0  1  0  0  0  0  0  0  0  0  0
   41.8564    6.2278   -0.7494 C   0  0  0  0  0  0  0  0  0  0  0  0
   45.4938    2.2286   -2.5647 C   0  0  2  0  0  0  0  0  0  0  0  0
   46.9471    2.0489   -2.5576 N   0  0  0  0  0  0  0  0  0  0  0  0
   48.9932    4.1182   -5.9671 C   0  0  0  0  0  0  0  0  0  0  0  0
   44.2750    7.1981   -6.1715 C   0  0  2  0  0  0  0  0  0  0  0  0
   43.4659    7.9121   -5.1356 O   0  0  0  0  0  0  0  0  0  0  0  0
   45.8485   10.3535   -8.0818 C   0  0  2  0  0  0  0  0  0  0  0  0
   44.9310   11.4438   -7.6178 N   0  0  0  0  0  0  0  0  0  0  0  0
   42.9997    5.6973   -0.0666 C   0  0  0  0  0  0  0  0  0  0  0  0
   43.2346    6.0477    1.2888 N   0  0  0  0  0  0  0  0  0  0  0  0
   44.7186    0.8314   -2.6192 C   0  0  1  0  0  0  0  0  0  0  0  0
   45.1174    0.0449   -1.5072 O   0  0  0  0  0  0  0  0  0  0  0  0
   47.9099    3.2536   -5.1018 C   0  0  2  0  0  0  0  0  0  0  0  0
   48.3050    1.8770   -5.0019 N   0  0  0  0  0  0  0  0  0  0  0  0
   43.9830    7.4316   -7.6658 C   0  0  2  0  0  0  0  0  0  0  0  0
   43.9454    8.7789   -8.1128 O   0  0  0  0  0  0  0  0  0  0  0  0
   46.9769   10.9254   -8.9921 C   0  0  1  0  0  0  0  0  0  0  0  0
   47.8189    9.7788   -9.3713 O   0  0  0  0  0  0  0  0  0  0  0  0
   42.3798    6.9177    2.0240 C   0  0  0  0  0  0  0  0  0  0  0  0
   43.1881    1.1136   -2.6102 C   0  0  2  0  0  0  0  0  0  0  0  0
   42.4131   -0.1496   -2.6636 O   0  0  0  0  0  0  0  0  0  0  0  0
   46.4818    3.3480   -5.7809 C   0  0  2  0  0  0  0  0  0  0  0  0
   42.6632    6.6578   -7.8974 C   0  0  1  0  0  0  0  0  0  0  0  0
   46.3275   11.6368  -10.3028 C   0  0  2  0  0  0  0  0  0  0  0  0
   45.4841   12.7836   -9.9313 O   0  0  0  0  0  0  0  0  0  0  0  0
   41.2338    7.4719    1.4022 C   0  0  0  0  0  0  0  0  0  0  0  0
   42.7862    2.0032   -3.8490 C   0  0  2  0  0  0  0  0  0  0  0  0
   43.5780    3.2183   -3.7422 O   0  0  0  0  0  0  0  0  0  0  0  0
   46.0926    4.8647   -5.8651 C   0  0  2  0  0  0  0  0  0  0  0  0
   44.8061    4.8282   -6.4708 O   0  0  0  0  0  0  0  0  0  0  0  0
   42.6327    5.9494   -9.2506 C   0  0  0  0  0  0  0  0  0  0  0  0
   41.6493    4.9520   -9.3901 O   0  0  0  0  0  0  0  0  0  0  0  0
   45.4545   10.5689  -11.1092 C   0  0  1  0  0  0  0  0  0  0  0  0
   44.4027   10.0052  -10.1760 O   0  0  0  0  0  0  0  0  0  0  0  0
   40.9449    7.1377   -0.0117 C   0  0  0  0  0  0  0  0  0  0  0  0
   41.3377    2.2534   -3.7747 C   0  0  0  0  0  0  0  0  0  0  0  0
   40.6749    1.1256   -4.0600 O   0  0  0  0  0  0  0  0  0  0  0  0
   47.1479    5.6673   -6.7366 C   0  0  1  0  0  0  0  0  0  0  0  0
   46.7948    7.0103   -6.7930 O   0  0  0  0  0  0  0  0  0  0  0  0
   43.5803    7.8256   -3.6606 C   0  0  0  0  0  0  0  0  0  0  0  0
   44.8533   11.3044  -12.3376 C   0  0  0  0  0  0  0  0  0  0  0  0
   43.8325   10.4996  -12.9613 N   0  0  0  0  0  0  0  0  0  0  0  0
   42.2128    8.1961   -3.0775 C   0  0  0  0  0  0  0  0  0  0  0  0
   41.2858    7.0243   -3.1961 N   0  0  0  0  0  0  0  0  0  0  0  0
   41.6148    5.8131   -2.2824 C   0  0  0  0  0  0  0  0  0  0  0  0
  1  2  1  6  0  0  0
  1  9  1  0  0  0  0
  1 35  1  0  0  0  0
  3  4  1  6  0  0  0
  3 11  1  0  0  0  0
  3 45  1  0  0  0  0
  5  6  1  0  0  0  0
  5 12  1  0  0  0  0
  5 37  1  6  0  0  0
  6 30  1  0  0  0  0
  7 14  1  0  0  0  0
  7 41  1  0  0  0  0
  7 23  1  1  0  0  0
  8 16  2  0  0  0  0
  8 42  1  0  0  0  0
  9 10  1  6  0  0  0
  9 18  1  0  0  0  0
 11 20  1  0  0  0  0
 12 13  1  1  0  0  0
 12 22  1  0  0  0  0
 13 47  1  0  0  0  0
 14 15  1  6  0  0  0
 14 24  1  0  0  0  0
 16 17  1  0  0  0  0
 17 26  2  0  0  0  0
 18 19  1  1  0  0  0
 18 27  1  0  0  0  0
 20 21  1  6  0  0  0
 20 29  1  0  0  0  0
 22 23  1  1  0  0  0
 22 30  1  0  0  0  0
 24 25  1  6  0  0  0
 24 31  1  0  0  0  0
 26 33  1  0  0  0  0
 27 28  1  6  0  0  0
 27 34  1  0  0  0  0
 29  2  1  1  0  0  0
 29 36  1  0  0  0  0
 30 38  1  6  0  0  0
 31 32  1  1  0  0  0
 31 40  1  0  0  0  0
 33 42  2  0  0  0  0
 34 35  1  0  0  0  0
 34 43  1  1  0  0  0
 36 37  1  6  0  0  0
 36 45  1  0  0  0  0
 38 39  1  0  0  0  0
 40 41  1  0  0  0  0
 40 48  1  6  0  0  0
 43 44  1  0  0  0  0
 45 46  1  1  0  0  0
 47 50  1  0  0  0  0
 48 49  1  0  0  0  0
 50 51  1  0  0  0  0
 51 52  1  0  0  0  0
 52  8  1  0  0  0  0
M  END
>  <CHROM.1>
-117.59631890,174.23358563,-110.41027123,71.15876068,-154.81504947,109.66993146
77.09863721,47.44990363,-71.55407670,142.72725279,-167.89811100,78.52083316
69.50690049,49.38837313,-132.95858717,44.46335001,6.03355486,-5.52406852
-1.84865419,0.84414209,-0.62862252

>  <Name>
2be0_lig

>  <RI>
0

>  <Rbt.Current_Directory>
/home/itssahil/PROJECTS/Mol_Feturizer/New_Systems/rnas/2be0

>  <Rbt.Executable>
rbdock ($Id: //depot/dev/client3/rdock/2013.1/src/exe/rbdock.cxx#4 $)

>  <Rbt.Library>
libRbt.so (2013.1, Build901 2013/11/27)

>  <Rbt.Parameter_File>
/export/apps/rDock/src/rDock_2013.1_src/data/scripts/dock_solv.prm

>  <Rbt.Receptor>
prm/pocket_docking_2.prm

>  <SCORE>
-0.385784

>  <SCORE.INTER>
-4.70541

>  <SCORE.INTER.CONST>
1

>  <SCORE.INTER.POLAR>
-0.0447199

>  <SCORE.INTER.ROT>
15

>  <SCORE.INTER.SOLV>
29.348

>  <SCORE.INTER.VDW>
-26.3706

>  <SCORE.INTER.norm>
-0.0904887

>  <SCORE.INTRA>
-3.75936

>  <SCORE.INTRA.DIHEDRAL>
-13.5064

>  <SCORE.INTRA.DIHEDRAL.0>
47.8724

>  <SCORE.INTRA.POLAR>
0

>  <SCORE.INTRA.POLAR.0>
0

>  <SCORE.INTRA.REPUL>
0

>  <SCORE.INTRA.REPUL.0>
0

>  <SCORE.INTRA.SOLV>
0.773511

>  <SCORE.INTRA.SOLV.lig_0>
-115.677

>  <SCORE.INTRA.VDW>
2.60708

>  <SCORE.INTRA.VDW.0>
-7.4833

>  <SCORE.INTRA.norm>
-0.0722953

>  <SCORE.RESTR>
8.07899

>  <SCORE.RESTR.CAVITY>
8.07899

>  <SCORE.RESTR.norm>
0.155365

>  <SCORE.SYSTEM>
0

>  <SCORE.SYSTEM.CONST>
0

>  <SCORE.SYSTEM.DIHEDRAL>
0

>  <SCORE.SYSTEM.SOLV>
0

>  <SCORE.SYSTEM.norm>
0

>  <SCORE.heavy>
52

>  <SCORE.norm>
-0.00741891

>  <RMSD>
8.647

$$$$
2be0_lig
 OpenBabel11021811423D
libRbt.so/2013.1/901 2013/11/27
 52 56  0  0  0  0  0  0  0  0999 V2000
   43.3608    2.6072   -3.9379 C   0  0  2  0  0  0  0  0  0  0  0  0
   44.6831    2.5859   -3.4544 O   0  0  0  0  0  0  0  0  0  0  0  0
   48.4398    4.0209   -5.2431 C   0  0  2  0  0  0  0  0  0  0  0  0
   49.5906    4.1162   -6.1843 N   0  0  0  0  0  0  0  0  0  0  0  0
   43.6922    5.3158   -5.0534 C   0  0  2  0  0  0  0  0  0  0  0  0
   42.5689    5.5053   -5.9381 O   0  0  0  0  0  0  0  0  0  0  0  0
   44.3928    9.1985   -7.7896 C   0  0  1  0  0  0  0  0  0  0  0  0
   39.8859    7.3972    0.0650 C   0  0  0  0  0  0  0  0  0  0  0  0
   42.3179    2.7029   -2.7510 C   0  0  2  0  0  0  0  0  0  0  0  0
   42.6341    3.8559   -1.9053 N   0  0  0  0  0  0  0  0  0  0  0  0
   48.3726    2.5412   -4.6478 C   0  0  0  0  0  0  0  0  0  0  0  0
   44.3366    6.6968   -4.8536 C   0  0  2  0  0  0  0  0  0  0  0  0
   43.5386    7.2972   -3.7401 O   0  0  0  0  0  0  0  0  0  0  0  0
   45.2363    8.1560   -8.7078 C   0  0  2  0  0  0  0  0  0  0  0  0
   46.5984    7.9811   -8.1082 N   0  0  0  0  0  0  0  0  0  0  0  0
   39.6126    8.1193    1.2728 C   0  0  0  0  0  0  0  0  0  0  0  0
   39.5248    7.4205    2.5053 N   0  0  0  0  0  0  0  0  0  0  0  0
   42.3192    1.3354   -1.9229 C   0  0  1  0  0  0  0  0  0  0  0  0
   41.3845    1.4445   -0.8606 O   0  0  0  0  0  0  0  0  0  0  0  0
   47.1122    2.3905   -3.6189 C   0  0  2  0  0  0  0  0  0  0  0  0
   47.0420    1.0638   -3.0745 N   0  0  0  0  0  0  0  0  0  0  0  0
   44.1798    7.2395   -6.2867 C   0  0  2  0  0  0  0  0  0  0  0  0
   44.3221    8.6412   -6.4648 O   0  0  0  0  0  0  0  0  0  0  0  0
   45.3328    8.7536  -10.1440 C   0  0  1  0  0  0  0  0  0  0  0  0
   43.9498    8.8651  -10.6360 O   0  0  0  0  0  0  0  0  0  0  0  0
   39.6951    6.0106    2.6110 C   0  0  0  0  0  0  0  0  0  0  0  0
   41.9627    0.1700   -2.8909 C   0  0  2  0  0  0  0  0  0  0  0  0
   41.9521   -1.1304   -2.1781 O   0  0  0  0  0  0  0  0  0  0  0  0
   45.7602    2.7270   -4.3727 C   0  0  2  0  0  0  0  0  0  0  0  0
   42.8032    6.6886   -6.7290 C   0  0  1  0  0  0  0  0  0  0  0  0
   46.0579   10.2087  -10.0935 C   0  0  2  0  0  0  0  0  0  0  0  0
   47.4408   10.1051   -9.6022 O   0  0  0  0  0  0  0  0  0  0  0  0
   39.9684    5.2441    1.4513 C   0  0  0  0  0  0  0  0  0  0  0  0
   43.0119    0.0912   -4.0658 C   0  0  2  0  0  0  0  0  0  0  0  0
   42.9779    1.3897   -4.7198 O   0  0  0  0  0  0  0  0  0  0  0  0
   45.8823    4.1817   -4.9455 C   0  0  2  0  0  0  0  0  0  0  0  0
   44.6250    4.3783   -5.5810 O   0  0  0  0  0  0  0  0  0  0  0  0
   42.7923    6.2550   -8.1939 C   0  0  0  0  0  0  0  0  0  0  0  0
   41.6176    5.6113   -8.6262 O   0  0  0  0  0  0  0  0  0  0  0  0
   45.2236   11.1853   -9.1432 C   0  0  1  0  0  0  0  0  0  0  0  0
   45.1140   10.5458   -7.7744 O   0  0  0  0  0  0  0  0  0  0  0  0
   40.0690    5.9262    0.1403 C   0  0  0  0  0  0  0  0  0  0  0  0
   42.6118   -1.0106   -4.9558 C   0  0  0  0  0  0  0  0  0  0  0  0
   41.4797   -0.6824   -5.5910 O   0  0  0  0  0  0  0  0  0  0  0  0
   47.0958    4.2842   -5.9626 C   0  0  1  0  0  0  0  0  0  0  0  0
   47.1970    5.5807   -6.4529 O   0  0  0  0  0  0  0  0  0  0  0  0
   43.4606    6.8591   -2.3264 C   0  0  0  0  0  0  0  0  0  0  0  0
   45.9660   12.5492   -9.1250 C   0  0  0  0  0  0  0  0  0  0  0  0
   46.0558   13.0958  -10.4561 N   0  0  0  0  0  0  0  0  0  0  0  0
   42.5179    7.8267   -1.6035 C   0  0  0  0  0  0  0  0  0  0  0  0
   41.1535    7.7472   -2.2191 N   0  0  0  0  0  0  0  0  0  0  0  0
   39.9810    8.2140   -1.3149 C   0  0  0  0  0  0  0  0  0  0  0  0
  1  2  1  1  0  0  0
  1  9  1  0  0  0  0
  1 35  1  0  0  0  0
  3  4  1  6  0  0  0
  3 11  1  0  0  0  0
  3 45  1  0  0  0  0
  5  6  1  0  0  0  0
  5 12  1  0  0  0  0
  5 37  1  6  0  0  0
  6 30  1  0  0  0  0
  7 14  1  0  0  0  0
  7 41  1  0  0  0  0
  7 23  1  1  0  0  0
  8 16  2  0  0  0  0
  8 42  1  0  0  0  0
  9 10  1  1  0  0  0
  9 18  1  0  0  0  0
 11 20  1  0  0  0  0
 12 13  1  1  0  0  0
 12 22  1  0  0  0  0
 13 47  1  0  0  0  0
 14 15  1  1  0  0  0
 14 24  1  0  0  0  0
 16 17  1  0  0  0  0
 17 26  2  0  0  0  0
 18 19  1  1  0  0  0
 18 27  1  0  0  0  0
 20 21  1  6  0  0  0
 20 29  1  0  0  0  0
 22 23  1  1  0  0  0
 22 30  1  0  0  0  0
 24 25  1  1  0  0  0
 24 31  1  0  0  0  0
 26 33  1  0  0  0  0
 27 28  1  1  0  0  0
 27 34  1  0  0  0  0
 29  2  1  1  0  0  0
 29 36  1  0  0  0  0
 30 38  1  6  0  0  0
 31 32  1  1  0  0  0
 31 40  1  0  0  0  0
 33 42  2  0  0  0  0
 34 35  1  0  0  0  0
 34 43  1  6  0  0  0
 36 37  1  6  0  0  0
 36 45  1  0  0  0  0
 38 39  1  0  0  0  0
 40 41  1  0  0  0  0
 40 48  1  1  0  0  0
 43 44  1  0  0  0  0
 45 46  1  1  0  0  0
 47 50  1  0  0  0  0
 48 49  1  0  0  0  0
 50 51  1  0  0  0  0
 51 52  1  0  0  0  0
 52  8  1  0  0  0  0
M  END
>  <CHROM.1>
-169.60172353,171.83753935,-36.95123740,66.16164930,179.23104201,170.51380791
-169.20793367,57.19282640,68.85649173,111.76749621,59.54450020,61.73257680
157.48375624,-57.84612508,137.81385155,43.83399181,5.54387672,-4.79738273
-2.18882045,0.89833465,-0.33362601

>  <Name>
2be0_lig

>  <RI>
0

>  <Rbt.Current_Directory>
/home/itssahil/PROJECTS/Mol_Feturizer/New_Systems/rnas/2be0

>  <Rbt.Executable>
rbdock ($Id: //depot/dev/client3/rdock/2013.1/src/exe/rbdock.cxx#4 $)

>  <Rbt.Library>
libRbt.so (2013.1, Build901 2013/11/27)

>  <Rbt.Parameter_File>
/export/apps/rDock/src/rDock_2013.1_src/data/scripts/dock_solv.prm

>  <Rbt.Receptor>
prm/pocket_docking_2.prm

>  <SCORE>
-17.4124

>  <SCORE.INTER>
-9.18314

>  <SCORE.INTER.CONST>
1

>  <SCORE.INTER.POLAR>
-1.14154

>  <SCORE.INTER.ROT>
15

>  <SCORE.INTER.SOLV>
14.1633

>  <SCORE.INTER.VDW>
-20.638

>  <SCORE.INTER.norm>
-0.176599

>  <SCORE.INTRA>
-13.7212

>  <SCORE.INTRA.DIHEDRAL>
-34.7987

>  <SCORE.INTRA.DIHEDRAL.0>
47.8724

>  <SCORE.INTRA.POLAR>
0

>  <SCORE.INTRA.POLAR.0>
0

>  <SCORE.INTRA.REPUL>
0

>  <SCORE.INTRA.REPUL.0>
0

>  <SCORE.INTRA.SOLV>
1.71765

>  <SCORE.INTRA.SOLV.lig_0>
-115.677

>  <SCORE.INTRA.VDW>
2.8193

>  <SCORE.INTRA.VDW.0>
-7.4833

>  <SCORE.INTRA.norm>
-0.26387

>  <SCORE.RESTR>
5.492

>  <SCORE.RESTR.CAVITY>
5.492

>  <SCORE.RESTR.norm>
0.105615

>  <SCORE.SYSTEM>
0

>  <SCORE.SYSTEM.CONST>
0

>  <SCORE.SYSTEM.DIHEDRAL>
0

>  <SCORE.SYSTEM.SOLV>
0

>  <SCORE.SYSTEM.norm>
0

>  <SCORE.heavy>
52

>  <SCORE.norm>
-0.334853

>  <RMSD>
8.664

$$$$
2be0_lig
 OpenBabel11021811423D
libRbt.so/2013.1/901 2013/11/27
 52 56  0  0  0  0  0  0  0  0999 V2000
   41.3921   -0.6654   -7.7325 C   0  0  2  0  0  0  0  0  0  0  0  0
   42.3685    0.2975   -8.0527 O   0  0  0  0  0  0  0  0  0  0  0  0
   44.3664    0.6522   -4.1471 C   0  0  2  0  0  0  0  0  0  0  0  0
   45.4014    1.0062   -3.1357 N   0  0  0  0  0  0  0  0  0  0  0  0
   41.3952    3.6213   -5.8800 C   0  0  2  0  0  0  0  0  0  0  0  0
   40.3820    4.2116   -6.7198 O   0  0  0  0  0  0  0  0  0  0  0  0
   44.1246    7.3049   -6.4718 C   0  0  1  0  0  0  0  0  0  0  0  0
   38.0480    8.1440   -0.4078 C   0  0  0  0  0  0  0  0  0  0  0  0
   40.4516   -0.9618   -8.9708 C   0  0  2  0  0  0  0  0  0  0  0  0
   41.2631   -1.3369  -10.1307 N   0  0  0  0  0  0  0  0  0  0  0  0
   45.0354   -0.2402   -5.2892 C   0  0  0  0  0  0  0  0  0  0  0  0
   42.2759    4.7738   -5.3716 C   0  0  2  0  0  0  0  0  0  0  0  0
   41.5413    5.2698   -4.1667 O   0  0  0  0  0  0  0  0  0  0  0  0
   44.6144    7.5448   -8.0028 C   0  0  2  0  0  0  0  0  0  0  0  0
   44.3626    6.2943   -8.7893 N   0  0  0  0  0  0  0  0  0  0  0  0
   37.4455    8.4231    0.8627 C   0  0  0  0  0  0  0  0  0  0  0  0
   37.5039    9.7378    1.3950 N   0  0  0  0  0  0  0  0  0  0  0  0
   39.5367    0.3150   -9.2685 C   0  0  1  0  0  0  0  0  0  0  0  0
   38.7077    0.0318  -10.3850 O   0  0  0  0  0  0  0  0  0  0  0  0
   43.9341   -0.6388   -6.4285 C   0  0  2  0  0  0  0  0  0  0  0  0
   44.5231   -1.4440   -7.4610 N   0  0  0  0  0  0  0  0  0  0  0  0
   42.3090    5.6279   -6.6531 C   0  0  2  0  0  0  0  0  0  0  0  0
   42.7237    6.9792   -6.5170 O   0  0  0  0  0  0  0  0  0  0  0  0
   46.1350    7.8854   -7.9706 C   0  0  1  0  0  0  0  0  0  0  0  0
   46.2607    9.1290   -7.1928 O   0  0  0  0  0  0  0  0  0  0  0  0
   38.1433   10.8185    0.7233 C   0  0  0  0  0  0  0  0  0  0  0  0
   38.7027    0.6346   -7.9939 C   0  0  2  0  0  0  0  0  0  0  0  0
   37.8336    1.8169   -8.2085 O   0  0  0  0  0  0  0  0  0  0  0  0
   43.3203    0.6754   -7.0655 C   0  0  2  0  0  0  0  0  0  0  0  0
   40.8817    5.4657   -7.2280 C   0  0  1  0  0  0  0  0  0  0  0  0
   46.9627    6.6704   -7.2746 C   0  0  2  0  0  0  0  0  0  0  0  0
   46.8412    5.4239   -8.0466 O   0  0  0  0  0  0  0  0  0  0  0  0
   38.7553   10.6032   -0.5361 C   0  0  0  0  0  0  0  0  0  0  0  0
   39.6565    0.9264   -6.7722 C   0  0  2  0  0  0  0  0  0  0  0  0
   40.4808   -0.2615   -6.6160 O   0  0  0  0  0  0  0  0  0  0  0  0
   42.6878    1.5182   -5.9042 C   0  0  2  0  0  0  0  0  0  0  0  0
   42.1636    2.6518   -6.5851 O   0  0  0  0  0  0  0  0  0  0  0  0
   40.8754    5.3632   -8.7523 C   0  0  0  0  0  0  0  0  0  0  0  0
   41.6648    4.3310   -9.2932 O   0  0  0  0  0  0  0  0  0  0  0  0
   46.4168    6.4371   -5.7912 C   0  0  1  0  0  0  0  0  0  0  0  0
   44.9300    6.1565   -5.8650 O   0  0  0  0  0  0  0  0  0  0  0  0
   38.7225    9.2485   -1.1344 C   0  0  0  0  0  0  0  0  0  0  0  0
   38.8142    1.1994   -5.5965 C   0  0  0  0  0  0  0  0  0  0  0  0
   38.2665    2.4156   -5.7128 O   0  0  0  0  0  0  0  0  0  0  0  0
   43.7897    1.9133   -4.8331 C   0  0  1  0  0  0  0  0  0  0  0  0
   43.2119    2.6503   -3.8063 O   0  0  0  0  0  0  0  0  0  0  0  0
   40.1772    5.8445   -4.0950 C   0  0  0  0  0  0  0  0  0  0  0  0
   47.2327    5.2639   -5.1834 C   0  0  0  0  0  0  0  0  0  0  0  0
   46.9629    4.0376   -5.8920 N   0  0  0  0  0  0  0  0  0  0  0  0
   39.9062    6.1866   -2.6263 C   0  0  0  0  0  0  0  0  0  0  0  0
   38.4584    6.5345   -2.4541 N   0  0  0  0  0  0  0  0  0  0  0  0
   37.9654    6.6478   -0.9864 C   0  0  0  0  0  0  0  0  0  0  0  0
  1  2  1  6  0  0  0
  1  9  1  0  0  0  0
  1 35  1  0  0  0  0
  3  4  1  1  0  0  0
  3 11  1  0  0  0  0
  3 45  1  0  0  0  0
  5  6  1  0  0  0  0
  5 12  1  0  0  0  0
  5 37  1  6  0  0  0
  6 30  1  0  0  0  0
  7 14  1  0  0  0  0
  7 41  1  0  0  0  0
  7 23  1  6  0  0  0
  8 16  2  0  0  0  0
  8 42  1  0  0  0  0
  9 10  1  6  0  0  0
  9 18  1  0  0  0  0
 11 20  1  0  0  0  0
 12 13  1  1  0  0  0
 12 22  1  0  0  0  0
 13 47  1  0  0  0  0
 14 15  1  6  0  0  0
 14 24  1  0  0  0  0
 16 17  1  0  0  0  0
 17 26  2  0  0  0  0
 18 19  1  6  0  0  0
 18 27  1  0  0  0  0
 20 21  1  6  0  0  0
 20 29  1  0  0  0  0
 22 23  1  1  0  0  0
 22 30  1  0  0  0  0
 24 25  1  1  0  0  0
 24 31  1  0  0  0  0
 26 33  1  0  0  0  0
 27 28  1  6  0  0  0
 27 34  1  0  0  0  0
 29  2  1  6  0  0  0
 29 36  1  0  0  0  0
 30 38  1  6  0  0  0
 31 32  1  6  0  0  0
 31 40  1  0  0  0  0
 33 42  2  0  0  0  0
 34 35  1  0  0  0  0
 34 43  1  1  0  0  0
 36 37  1  6  0  0  0
 36 45  1  0  0  0  0
 38 39  1  0  0  0  0
 40 41  1  0  0  0  0
 40 48  1  6  0  0  0
 43 44  1  0  0  0  0
 45 46  1  1  0  0  0
 47 50  1  0  0  0  0
 48 49  1  0  0  0  0
 50 51  1  0  0  0  0
 51 52  1  0  0  0  0
 52  8  1  0  0  0  0
M  END
>  <CHROM.1>
-178.97341741,-147.58989837,89.22554482,-61.39503545,179.83587537,81.93576581
48.80516420,-59.86597710,-73.89212800,174.61580907,-65.44714979,-169.66713712
169.04849767,92.65325905,171.07089115,41.93095717,4.06456440,-5.76355730
1.26908618,-0.40364438,-2.58537547

>  <Name>
2be0_lig

>  <RI>
2.75444e+07

>  <Rbt.Current_Directory>
/home/itssahil/PROJECTS/Mol_Feturizer/New_Systems/rnas/2be0

>  <Rbt.Executable>
rbdock ($Id: //depot/dev/client3/rdock/2013.1/src/exe/rbdock.cxx#4 $)

>  <Rbt.Library>
libRbt.so (2013.1, Build901 2013/11/27)

>  <Rbt.Parameter_File>
/export/apps/rDock/src/rDock_2013.1_src/data/scripts/dock_solv.prm

>  <Rbt.Receptor>
prm/pocket_docking_5.prm

>  <SCORE>
-24.9379

>  <SCORE.INTER>
-10.2538

>  <SCORE.INTER.CONST>
1

>  <SCORE.INTER.POLAR>
-0.652836

>  <SCORE.INTER.ROT>
15

>  <SCORE.INTER.SOLV>
9.46463

>  <SCORE.INTER.VDW>
-21.4146

>  <SCORE.INTER.norm>
-0.197188

>  <SCORE.INTRA>
-14.6841

>  <SCORE.INTRA.DIHEDRAL>
-34.3278

>  <SCORE.INTRA.DIHEDRAL.0>
47.8724

>  <SCORE.INTRA.POLAR>
0

>  <SCORE.INTRA.POLAR.0>
0

>  <SCORE.INTRA.REPUL>
0.0200677

>  <SCORE.INTRA.REPUL.0>
0

>  <SCORE.INTRA.SOLV>
2.62382

>  <SCORE.INTRA.SOLV.lig_0>
-115.677

>  <SCORE.INTRA.VDW>
1.06755

>  <SCORE.INTRA.VDW.0>
-7.4833

>  <SCORE.INTRA.norm>
-0.282387

>  <SCORE.RESTR>
0

>  <SCORE.RESTR.CAVITY>
0

>  <SCORE.RESTR.norm>
0

>  <SCORE.SYSTEM>
0

>  <SCORE.SYSTEM.CONST>
0

>  <SCORE.SYSTEM.DIHEDRAL>
0

>  <SCORE.SYSTEM.SOLV>
0

>  <SCORE.SYSTEM.norm>
0

>  <SCORE.heavy>
52

>  <SCORE.norm>
-0.479575

>  <RMSD>
8.669

$$$$
2be0_lig
 OpenBabel11021811423D
libRbt.so/2013.1/901 2013/11/27
 52 56  0  0  0  0  0  0  0  0999 V2000
   41.2366   -0.2439   -4.1636 C   0  0  2  0  0  0  0  0  0  0  0  0
   41.8296   -0.0300   -5.4227 O   0  0  0  0  0  0  0  0  0  0  0  0
   41.9366    3.1131   -8.5018 C   0  0  2  0  0  0  0  0  0  0  0  0
   41.5048    4.2805   -9.3203 N   0  0  0  0  0  0  0  0  0  0  0  0
   43.6941    3.4095   -4.3040 C   0  0  2  0  0  0  0  0  0  0  0  0
   44.0392    3.1391   -2.9299 O   0  0  0  0  0  0  0  0  0  0  0  0
   41.3810    6.4153   -1.3651 C   0  0  1  0  0  0  0  0  0  0  0  0
   43.9237    8.7837   -9.1704 C   0  0  0  0  0  0  0  0  0  0  0  0
   41.5485   -1.6985   -3.6227 C   0  0  2  0  0  0  0  0  0  0  0  0
   42.9952   -1.9256   -3.6173 N   0  0  0  0  0  0  0  0  0  0  0  0
   40.8204    1.9749   -8.5850 C   0  0  0  0  0  0  0  0  0  0  0  0
   43.2579    4.8819   -4.3697 C   0  0  2  0  0  0  0  0  0  0  0  0
   44.5480    5.6218   -4.5298 O   0  0  0  0  0  0  0  0  0  0  0  0
   39.8689    6.0180   -1.8091 C   0  0  2  0  0  0  0  0  0  0  0  0
   39.4448    6.9187   -2.9292 N   0  0  0  0  0  0  0  0  0  0  0  0
   43.2084    8.5604  -10.3924 C   0  0  0  0  0  0  0  0  0  0  0  0
   43.3702    9.4621  -11.4768 N   0  0  0  0  0  0  0  0  0  0  0  0
   40.7766   -2.7796   -4.5124 C   0  0  1  0  0  0  0  0  0  0  0  0
   41.0751   -4.0754   -4.0165 O   0  0  0  0  0  0  0  0  0  0  0  0
   41.2502    0.6793   -7.6870 C   0  0  2  0  0  0  0  0  0  0  0  0
   40.2549   -0.3532   -7.7553 N   0  0  0  0  0  0  0  0  0  0  0  0
   42.4911    4.9602   -3.0360 C   0  0  2  0  0  0  0  0  0  0  0  0
   42.2221    6.2562   -2.5218 O   0  0  0  0  0  0  0  0  0  0  0  0
   38.9431    6.1987   -0.5685 C   0  0  1  0  0  0  0  0  0  0  0  0
   39.4387    5.2620    0.4534 O   0  0  0  0  0  0  0  0  0  0  0  0
   44.2209   10.6026  -11.4165 C   0  0  0  0  0  0  0  0  0  0  0  0
   39.2519   -2.4731   -4.4520 C   0  0  2  0  0  0  0  0  0  0  0  0
   38.4806   -3.4443   -5.2649 O   0  0  0  0  0  0  0  0  0  0  0  0
   41.4587    1.1164   -6.1787 C   0  0  2  0  0  0  0  0  0  0  0  0
   43.3316    4.0722   -2.0877 C   0  0  1  0  0  0  0  0  0  0  0  0
   39.0137    7.7357   -0.0408 C   0  0  2  0  0  0  0  0  0  0  0  0
   38.5202    8.6778   -1.0573 O   0  0  0  0  0  0  0  0  0  0  0  0
   44.9541   10.8740  -10.2351 C   0  0  0  0  0  0  0  0  0  0  0  0
   38.9617   -1.0206   -4.9940 C   0  0  2  0  0  0  0  0  0  0  0  0
   39.7451   -0.1200   -4.1633 O   0  0  0  0  0  0  0  0  0  0  0  0
   42.5531    2.2393   -6.1541 C   0  0  2  0  0  0  0  0  0  0  0  0
   42.6655    2.5414   -4.7687 O   0  0  0  0  0  0  0  0  0  0  0  0
   42.4630    3.2469   -1.1397 C   0  0  0  0  0  0  0  0  0  0  0  0
   43.1630    2.4057   -0.2546 O   0  0  0  0  0  0  0  0  0  0  0  0
   40.5230    8.0985    0.3380 C   0  0  1  0  0  0  0  0  0  0  0  0
   41.3934    7.8643   -0.8794 O   0  0  0  0  0  0  0  0  0  0  0  0
   44.8193    9.9634   -9.0745 C   0  0  0  0  0  0  0  0  0  0  0  0
   37.5130   -0.7815   -4.8923 C   0  0  0  0  0  0  0  0  0  0  0  0
   36.8832   -1.4317   -5.8788 O   0  0  0  0  0  0  0  0  0  0  0  0
   42.0903    3.4926   -7.0099 C   0  0  1  0  0  0  0  0  0  0  0  0
   43.0743    4.4738   -6.9867 O   0  0  0  0  0  0  0  0  0  0  0  0
   44.7810    7.0843   -4.4727 C   0  0  0  0  0  0  0  0  0  0  0  0
   40.5304    9.5740    0.8222 C   0  0  0  0  0  0  0  0  0  0  0  0
   40.3387   10.4733   -0.2883 N   0  0  0  0  0  0  0  0  0  0  0  0
   43.7366    7.7452   -5.3782 C   0  0  0  0  0  0  0  0  0  0  0  0
   44.3952    8.2121   -6.6411 N   0  0  0  0  0  0  0  0  0  0  0  0
   43.7226    7.7464   -7.9605 C   0  0  0  0  0  0  0  0  0  0  0  0
  1  2  1  6  0  0  0
  1  9  1  0  0  0  0
  1 35  1  0  0  0  0
  3  4  1  6  0  0  0
  3 11  1  0  0  0  0
  3 45  1  0  0  0  0
  5  6  1  0  0  0  0
  5 12  1  0  0  0  0
  5 37  1  1  0  0  0
  6 30  1  0  0  0  0
  7 14  1  0  0  0  0
  7 41  1  0  0  0  0
  7 23  1  6  0  0  0
  8 16  2  0  0  0  0
  8 42  1  0  0  0  0
  9 10  1  6  0  0  0
  9 18  1  0  0  0  0
 11 20  1  0  0  0  0
 12 13  1  1  0  0  0
 12 22  1  0  0  0  0
 13 47  1  0  0  0  0
 14 15  1  6  0  0  0
 14 24  1  0  0  0  0
 16 17  1  0  0  0  0
 17 26  2  0  0  0  0
 18 19  1  1  0  0  0
 18 27  1  0  0  0  0
 20 21  1  1  0  0  0
 20 29  1  0  0  0  0
 22 23  1  1  0  0  0
 22 30  1  0  0  0  0
 24 25  1  1  0  0  0
 24 31  1  0  0  0  0
 26 33  1  0  0  0  0
 27 28  1  6  0  0  0
 27 34  1  0  0  0  0
 29  2  1  1  0  0  0
 29 36  1  0  0  0  0
 30 38  1  1  0  0  0
 31 32  1  6  0  0  0
 31 40  1  0  0  0  0
 33 42  2  0  0  0  0
 34 35  1  0  0  0  0
 34 43  1  1  0  0  0
 36 37  1  1  0  0  0
 36 45  1  0  0  0  0
 38 39  1  0  0  0  0
 40 41  1  0  0  0  0
 40 48  1  6  0  0  0
 43 44  1  0  0  0  0
 45 46  1  6  0  0  0
 47 50  1  0  0  0  0
 48 49  1  0  0  0  0
 50 51  1  0  0  0  0
 51 52  1  0  0  0  0
 52  8  1  0  0  0  0
M  END
>  <CHROM.1>
168.34727928,-153.91743957,-69.05080919,-171.23074966,-48.73322645,172.88097466
-136.35715680,63.22486439,-76.48365312,171.96607623,-72.42897473,-105.82060802
128.06946610,150.40286290,-171.97589727,41.65892993,4.04381224,-4.67302979
-2.34492000,1.20018779,0.62770063

>  <Name>
2be0_lig

>  <RI>
2.10017e+07

>  <Rbt.Current_Directory>
/home/itssahil/PROJECTS/Mol_Feturizer/New_Systems/rnas/2be0

>  <Rbt.Executable>
rbdock ($Id: //depot/dev/client3/rdock/2013.1/src/exe/rbdock.cxx#4 $)

>  <Rbt.Library>
libRbt.so (2013.1, Build901 2013/11/27)

>  <Rbt.Parameter_File>
/export/apps/rDock/src/rDock_2013.1_src/data/scripts/dock_solv.prm

>  <Rbt.Receptor>
prm/pocket_docking_3.prm

>  <SCORE>
-18.1838

>  <SCORE.INTER>
-8.06313

>  <SCORE.INTER.CONST>
1

>  <SCORE.INTER.POLAR>
-0.959166

>  <SCORE.INTER.ROT>
15

>  <SCORE.INTER.SOLV>
15.3267

>  <SCORE.INTER.VDW>
-20.8871

>  <SCORE.INTER.norm>
-0.15506

>  <SCORE.INTRA>
-11.0529

>  <SCORE.INTRA.DIHEDRAL>
-27.2618

>  <SCORE.INTRA.DIHEDRAL.0>
47.8724

>  <SCORE.INTRA.POLAR>
0

>  <SCORE.INTRA.POLAR.0>
0

>  <SCORE.INTRA.REPUL>
0

>  <SCORE.INTRA.REPUL.0>
0

>  <SCORE.INTRA.SOLV>
1.0812

>  <SCORE.INTRA.SOLV.lig_0>
-115.677

>  <SCORE.INTRA.VDW>
2.03743

>  <SCORE.INTRA.VDW.0>
-7.4833

>  <SCORE.INTRA.norm>
-0.212555

>  <SCORE.RESTR>
0.932208

>  <SCORE.RESTR.CAVITY>
0.932208

>  <SCORE.RESTR.norm>
0.0179271

>  <SCORE.SYSTEM>
0

>  <SCORE.SYSTEM.CONST>
0

>  <SCORE.SYSTEM.DIHEDRAL>
0

>  <SCORE.SYSTEM.SOLV>
0

>  <SCORE.SYSTEM.norm>
0

>  <SCORE.heavy>
52

>  <SCORE.norm>
-0.349689

>  <RMSD>
8.683

$$$$
2be0_lig
 OpenBabel11021811423D
libRbt.so/2013.1/901 2013/11/27
 52 56  0  0  0  0  0  0  0  0999 V2000
   44.0278    1.9456   -5.8284 C   0  0  2  0  0  0  0  0  0  0  0  0
   43.0080    2.6773   -5.1902 O   0  0  0  0  0  0  0  0  0  0  0  0
   44.2676    6.7557   -6.2633 C   0  0  2  0  0  0  0  0  0  0  0  0
   44.2308    8.2393   -6.3930 N   0  0  0  0  0  0  0  0  0  0  0  0
   43.8191    5.1674   -2.2802 C   0  0  2  0  0  0  0  0  0  0  0  0
   44.3632    4.8033   -0.9949 O   0  0  0  0  0  0  0  0  0  0  0  0
   39.7196    3.5016   -1.3127 C   0  0  1  0  0  0  0  0  0  0  0  0
   42.2927   11.3550   -0.2745 C   0  0  0  0  0  0  0  0  0  0  0  0
   43.7156    0.3939   -5.8131 C   0  0  2  0  0  0  0  0  0  0  0  0
   42.3920    0.1490   -6.3900 N   0  0  0  0  0  0  0  0  0  0  0  0
   42.9579    6.1394   -6.9366 C   0  0  0  0  0  0  0  0  0  0  0  0
   42.2889    5.1283   -2.1405 C   0  0  2  0  0  0  0  0  0  0  0  0
   41.9530    6.4802   -1.5958 O   0  0  0  0  0  0  0  0  0  0  0  0
   38.5359    3.1857   -0.2449 C   0  0  2  0  0  0  0  0  0  0  0  0
   38.9080    1.9627    0.5370 N   0  0  0  0  0  0  0  0  0  0  0  0
   41.0437   11.6414   -0.9169 C   0  0  0  0  0  0  0  0  0  0  0  0
   40.7092   12.9832   -1.2375 N   0  0  0  0  0  0  0  0  0  0  0  0
   43.8289   -0.1624   -4.3185 C   0  0  1  0  0  0  0  0  0  0  0  0
   43.5383   -1.5515   -4.3255 O   0  0  0  0  0  0  0  0  0  0  0  0
   42.9528    4.5110   -6.8028 C   0  0  2  0  0  0  0  0  0  0  0  0
   41.7803    3.9439   -7.4069 N   0  0  0  0  0  0  0  0  0  0  0  0
   42.1665    3.8869   -1.2368 C   0  0  2  0  0  0  0  0  0  0  0  0
   40.9311    3.6997   -0.5620 O   0  0  0  0  0  0  0  0  0  0  0  0
   37.2186    2.9552   -1.0454 C   0  0  1  0  0  0  0  0  0  0  0  0
   36.9439    4.2153   -1.7554 O   0  0  0  0  0  0  0  0  0  0  0  0
   41.5634   14.0854   -0.9485 C   0  0  0  0  0  0  0  0  0  0  0  0
   45.2639    0.1268   -3.7899 C   0  0  2  0  0  0  0  0  0  0  0  0
   45.4291   -0.3649   -2.4007 O   0  0  0  0  0  0  0  0  0  0  0  0
   43.0156    4.0972   -5.2749 C   0  0  2  0  0  0  0  0  0  0  0  0
   43.3843    4.0119   -0.2906 C   0  0  1  0  0  0  0  0  0  0  0  0
   37.4103    1.7222   -2.0889 C   0  0  2  0  0  0  0  0  0  0  0  0
   37.6856    0.4593   -1.3862 O   0  0  0  0  0  0  0  0  0  0  0  0
   42.8112   13.8638   -0.3154 C   0  0  0  0  0  0  0  0  0  0  0  0
   45.5561    1.6765   -3.8134 C   0  0  2  0  0  0  0  0  0  0  0  0
   45.3749    2.0966   -5.1938 O   0  0  0  0  0  0  0  0  0  0  0  0
   44.3099    4.7347   -4.6605 C   0  0  2  0  0  0  0  0  0  0  0  0
   44.2698    4.2924   -3.3092 O   0  0  0  0  0  0  0  0  0  0  0  0
   44.0331    2.6609    0.0060 C   0  0  0  0  0  0  0  0  0  0  0  0
   43.1710    1.6753    0.5223 O   0  0  0  0  0  0  0  0  0  0  0  0
   38.6133    2.0532   -3.0871 C   0  0  1  0  0  0  0  0  0  0  0  0
   39.8595    2.3161   -2.2670 O   0  0  0  0  0  0  0  0  0  0  0  0
   43.2066   12.4813    0.0405 C   0  0  0  0  0  0  0  0  0  0  0  0
   46.9288    1.8849   -3.3252 C   0  0  0  0  0  0  0  0  0  0  0  0
   46.9547    1.7466   -1.9937 O   0  0  0  0  0  0  0  0  0  0  0  0
   44.2675    6.3162   -4.7800 C   0  0  1  0  0  0  0  0  0  0  0  0
   45.4250    6.8650   -4.2409 O   0  0  0  0  0  0  0  0  0  0  0  0
   40.6133    7.0717   -1.3684 C   0  0  0  0  0  0  0  0  0  0  0  0
   38.7560    0.8416   -4.0480 C   0  0  0  0  0  0  0  0  0  0  0  0
   37.8601    0.9754   -5.1697 N   0  0  0  0  0  0  0  0  0  0  0  0
   40.8024    8.5867   -1.2408 C   0  0  0  0  0  0  0  0  0  0  0  0
   41.3978    8.9041    0.0977 N   0  0  0  0  0  0  0  0  0  0  0  0
   42.6456    9.8274    0.0753 C   0  0  0  0  0  0  0  0  0  0  0  0
  1  2  1  1  0  0  0
  1  9  1  0  0  0  0
  1 35  1  0  0  0  0
  3  4  1  1  0  0  0
  3 11  1  0  0  0  0
  3 45  1  0  0  0  0
  5  6  1  0  0  0  0
  5 12  1  0  0  0  0
  5 37  1  6  0  0  0
  6 30  1  0  0  0  0
  7 14  1  0  0  0  0
  7 41  1  0  0  0  0
  7 23  1  1  0  0  0
  8 16  2  0  0  0  0
  8 42  1  0  0  0  0
  9 10  1  1  0  0  0
  9 18  1  0  0  0  0
 11 20  1  0  0  0  0
 12 13  1  1  0  0  0
 12 22  1  0  0  0  0
 13 47  1  0  0  0  0
 14 15  1  6  0  0  0
 14 24  1  0  0  0  0
 16 17  1  0  0  0  0
 17 26  2  0  0  0  0
 18 19  1  6  0  0  0
 18 27  1  0  0  0  0
 20 21  1  1  0  0  0
 20 29  1  0  0  0  0
 22 23  1  1  0  0  0
 22 30  1  0  0  0  0
 24 25  1  6  0  0  0
 24 31  1  0  0  0  0
 26 33  1  0  0  0  0
 27 28  1  1  0  0  0
 27 34  1  0  0  0  0
 29  2  1  6  0  0  0
 29 36  1  0  0  0  0
 30 38  1  6  0  0  0
 31 32  1  1  0  0  0
 31 40  1  0  0  0  0
 33 42  2  0  0  0  0
 34 35  1  0  0  0  0
 34 43  1  6  0  0  0
 36 37  1  1  0  0  0
 36 45  1  0  0  0  0
 38 39  1  0  0  0  0
 40 41  1  0  0  0  0
 40 48  1  6  0  0  0
 43 44  1  0  0  0  0
 45 46  1  1  0  0  0
 47 50  1  0  0  0  0
 48 49  1  0  0  0  0
 50 51  1  0  0  0  0
 51 52  1  0  0  0  0
 52  8  1  0  0  0  0
M  END
>  <CHROM.1>
-170.93299481,-155.13528708,174.85823069,173.96781063,-161.99926097,62.42301468
58.87305631,-171.26528584,-76.13871448,-100.91661685,85.76517624,-74.81448766
129.62354967,72.47076978,-19.12977779,42.29143797,4.49893005,-2.77886459
-1.49271220,0.49507134,0.23713382

>  <Name>
2be0_lig

>  <RI>
0

>  <Rbt.Current_Directory>
/home/itssahil/PROJECTS/Mol_Feturizer/New_Systems/rnas/2be0

>  <Rbt.Executable>
rbdock ($Id: //depot/dev/client3/rdock/2013.1/src/exe/rbdock.cxx#4 $)

>  <Rbt.Library>
libRbt.so (2013.1, Build901 2013/11/27)

>  <Rbt.Parameter_File>
/export/apps/rDock/src/rDock_2013.1_src/data/scripts/dock_solv.prm

>  <Rbt.Receptor>
prm/pocket_docking_6.prm

>  <SCORE>
-23.7457

>  <SCORE.INTER>
-9.19605

>  <SCORE.INTER.CONST>
1

>  <SCORE.INTER.POLAR>
-1.72064

>  <SCORE.INTER.ROT>
15

>  <SCORE.INTER.SOLV>
17.2938

>  <SCORE.INTER.VDW>
-19.7598

>  <SCORE.INTER.norm>
-0.176847

>  <SCORE.INTRA>
-14.5497

>  <SCORE.INTRA.DIHEDRAL>
-31.0022

>  <SCORE.INTRA.DIHEDRAL.0>
47.8724

>  <SCORE.INTRA.POLAR>
0

>  <SCORE.INTRA.POLAR.0>
0

>  <SCORE.INTRA.REPUL>
0.0274105

>  <SCORE.INTRA.REPUL.0>
0

>  <SCORE.INTRA.SOLV>
-2.52315

>  <SCORE.INTRA.SOLV.lig_0>
-115.677

>  <SCORE.INTRA.VDW>
2.07591

>  <SCORE.INTRA.VDW.0>
-7.4833

>  <SCORE.INTRA.norm>
-0.279802

>  <SCORE.RESTR>
0

>  <SCORE.RESTR.CAVITY>
0

>  <SCORE.RESTR.norm>
0

>  <SCORE.SYSTEM>
0

>  <SCORE.SYSTEM.CONST>
0

>  <SCORE.SYSTEM.DIHEDRAL>
0

>  <SCORE.SYSTEM.SOLV>
0

>  <SCORE.SYSTEM.norm>
0

>  <SCORE.heavy>
52

>  <SCORE.norm>
-0.456649

>  <RMSD>
8.695

$$$$
2be0_lig
 OpenBabel11021811423D
libRbt.so/2013.1/901 2013/11/27
 52 56  0  0  0  0  0  0  0  0999 V2000
   38.7004    1.2136    0.5252 C   0  0  2  0  0  0  0  0  0  0  0  0
   39.9175    0.8025   -0.0516 O   0  0  0  0  0  0  0  0  0  0  0  0
   40.8145   -2.8831   -2.2837 C   0  0  2  0  0  0  0  0  0  0  0  0
   40.7419   -3.9234   -3.3477 N   0  0  0  0  0  0  0  0  0  0  0  0
   42.6604    0.9969   -3.2254 C   0  0  2  0  0  0  0  0  0  0  0  0
   43.9192    0.4252   -2.8143 O   0  0  0  0  0  0  0  0  0  0  0  0
   44.1083    5.2570   -2.5419 C   0  0  1  0  0  0  0  0  0  0  0  0
   41.5216    2.3289  -10.1131 C   0  0  0  0  0  0  0  0  0  0  0  0
   38.0037    2.3367   -0.3460 C   0  0  2  0  0  0  0  0  0  0  0  0
   37.8516    1.8704   -1.7259 N   0  0  0  0  0  0  0  0  0  0  0  0
   39.3664   -2.6921   -1.6397 C   0  0  0  0  0  0  0  0  0  0  0  0
   42.9319    2.4726   -3.5586 C   0  0  2  0  0  0  0  0  0  0  0  0
   43.3968    2.4303   -4.9797 O   0  0  0  0  0  0  0  0  0  0  0  0
   43.8289    5.6099   -0.9803 C   0  0  2  0  0  0  0  0  0  0  0  0
   42.9360    4.5546   -0.4017 N   0  0  0  0  0  0  0  0  0  0  0  0
   40.3765    2.1409   -9.2714 C   0  0  0  0  0  0  0  0  0  0  0  0
   39.1407    1.7414   -9.8442 N   0  0  0  0  0  0  0  0  0  0  0  0
   38.8544    3.6876   -0.2614 C   0  0  1  0  0  0  0  0  0  0  0  0
   38.2180    4.6779   -1.0540 O   0  0  0  0  0  0  0  0  0  0  0  0
   39.4000   -1.5466   -0.4750 C   0  0  2  0  0  0  0  0  0  0  0  0
   38.1032   -1.3667    0.1142 N   0  0  0  0  0  0  0  0  0  0  0  0
   43.9363    2.7872   -2.4338 C   0  0  2  0  0  0  0  0  0  0  0  0
   44.7259    3.9580   -2.5830 O   0  0  0  0  0  0  0  0  0  0  0  0
   43.1469    7.0100   -0.9209 C   0  0  1  0  0  0  0  0  0  0  0  0
   44.1124    7.9615   -1.4953 O   0  0  0  0  0  0  0  0  0  0  0  0
   38.9706    1.5136  -11.2397 C   0  0  0  0  0  0  0  0  0  0  0  0
   38.9552    4.1167    1.2313 C   0  0  2  0  0  0  0  0  0  0  0  0
   39.7399    5.3669    1.3745 O   0  0  0  0  0  0  0  0  0  0  0  0
   39.9004   -0.1735   -1.0862 C   0  0  2  0  0  0  0  0  0  0  0  0
   44.7632    1.4845   -2.3183 C   0  0  1  0  0  0  0  0  0  0  0  0
   41.7620    6.9908   -1.7738 C   0  0  2  0  0  0  0  0  0  0  0  0
   40.7922    6.0416   -1.2056 O   0  0  0  0  0  0  0  0  0  0  0  0
   40.0669    1.6825  -12.1208 C   0  0  0  0  0  0  0  0  0  0  0  0
   39.6510    2.9857    2.0823 C   0  0  2  0  0  0  0  0  0  0  0  0
   38.8413    1.7918    1.8985 O   0  0  0  0  0  0  0  0  0  0  0  0
   41.3169   -0.4180   -1.7130 C   0  0  2  0  0  0  0  0  0  0  0  0
   41.6678    0.8667   -2.2129 O   0  0  0  0  0  0  0  0  0  0  0  0
   45.1074    1.1392   -0.8703 C   0  0  0  0  0  0  0  0  0  0  0  0
   44.0973    1.4067    0.0727 O   0  0  0  0  0  0  0  0  0  0  0  0
   42.0766    6.5928   -3.2889 C   0  0  1  0  0  0  0  0  0  0  0  0
   42.7796    5.2510   -3.2971 O   0  0  0  0  0  0  0  0  0  0  0  0
   41.3784    2.0994  -11.5725 C   0  0  0  0  0  0  0  0  0  0  0  0
   39.6981    3.4377    3.4821 C   0  0  0  0  0  0  0  0  0  0  0  0
   40.1839    2.4558    4.2519 O   0  0  0  0  0  0  0  0  0  0  0  0
   41.2418   -1.5123   -2.8594 C   0  0  1  0  0  0  0  0  0  0  0  0
   42.5056   -1.7248   -3.3973 O   0  0  0  0  0  0  0  0  0  0  0  0
   43.9156    3.5431   -5.8097 C   0  0  0  0  0  0  0  0  0  0  0  0
   40.7221    6.5798   -4.0485 C   0  0  0  0  0  0  0  0  0  0  0  0
   40.8938    6.0621   -5.3831 N   0  0  0  0  0  0  0  0  0  0  0  0
   44.1921    2.9763   -7.2060 C   0  0  0  0  0  0  0  0  0  0  0  0
   42.8920    2.6755   -7.8887 N   0  0  0  0  0  0  0  0  0  0  0  0
   42.9074    2.7799   -9.4375 C   0  0  0  0  0  0  0  0  0  0  0  0
  1  2  1  6  0  0  0
  1  9  1  0  0  0  0
  1 35  1  0  0  0  0
  3  4  1  6  0  0  0
  3 11  1  0  0  0  0
  3 45  1  0  0  0  0
  5  6  1  0  0  0  0
  5 12  1  0  0  0  0
  5 37  1  1  0  0  0
  6 30  1  0  0  0  0
  7 14  1  0  0  0  0
  7 41  1  0  0  0  0
  7 23  1  1  0  0  0
  8 16  2  0  0  0  0
  8 42  1  0  0  0  0
  9 10  1  6  0  0  0
  9 18  1  0  0  0  0
 11 20  1  0  0  0  0
 12 13  1  6  0  0  0
 12 22  1  0  0  0  0
 13 47  1  0  0  0  0
 14 15  1  6  0  0  0
 14 24  1  0  0  0  0
 16 17  1  0  0  0  0
 17 26  2  0  0  0  0
 18 19  1  6  0  0  0
 18 27  1  0  0  0  0
 20 21  1  6  0  0  0
 20 29  1  0  0  0  0
 22 23  1  6  0  0  0
 22 30  1  0  0  0  0
 24 25  1  6  0  0  0
 24 31  1  0  0  0  0
 26 33  1  0  0  0  0
 27 28  1  6  0  0  0
 27 34  1  0  0  0  0
 29  2  1  1  0  0  0
 29 36  1  0  0  0  0
 30 38  1  1  0  0  0
 31 32  1  1  0  0  0
 31 40  1  0  0  0  0
 33 42  2  0  0  0  0
 34 35  1  0  0  0  0
 34 43  1  1  0  0  0
 36 37  1  6  0  0  0
 36 45  1  0  0  0  0
 38 39  1  0  0  0  0
 40 41  1  0  0  0  0
 40 48  1  6  0  0  0
 43 44  1  0  0  0  0
 45 46  1  1  0  0  0
 47 50  1  0  0  0  0
 48 49  1  0  0  0  0
 50 51  1  0  0  0  0
 51 52  1  0  0  0  0
 52  8  1  0  0  0  0
M  END
>  <CHROM.1>
-83.26753538,-57.65908898,78.33353489,-174.27527861,-177.59152593,66.83640731
-66.26860045,-78.27263977,174.97683931,-159.29879031,-172.58957444,70.70359411
150.80833281,175.24347735,11.81096600,41.40105918,2.48195863,-2.79258980
1.94795698,1.19968440,1.17685224

>  <Name>
2be0_lig

>  <RI>
0

>  <Rbt.Current_Directory>
/home/itssahil/PROJECTS/Mol_Feturizer/New_Systems/rnas/2be0

>  <Rbt.Executable>
rbdock ($Id: //depot/dev/client3/rdock/2013.1/src/exe/rbdock.cxx#4 $)

>  <Rbt.Library>
libRbt.so (2013.1, Build901 2013/11/27)

>  <Rbt.Parameter_File>
/export/apps/rDock/src/rDock_2013.1_src/data/scripts/dock_solv.prm

>  <Rbt.Receptor>
prm/pocket_docking_7.prm

>  <SCORE>
-21.1709

>  <SCORE.INTER>
-7.54262

>  <SCORE.INTER.CONST>
1

>  <SCORE.INTER.POLAR>
-0.681714

>  <SCORE.INTER.ROT>
15

>  <SCORE.INTER.SOLV>
11.4908

>  <SCORE.INTER.VDW>
-20.1863

>  <SCORE.INTER.norm>
-0.14505

>  <SCORE.INTRA>
-13.6283

>  <SCORE.INTRA.DIHEDRAL>
-37.8492

>  <SCORE.INTRA.DIHEDRAL.0>
47.8724

>  <SCORE.INTRA.POLAR>
0

>  <SCORE.INTRA.POLAR.0>
0

>  <SCORE.INTRA.REPUL>
0.104313

>  <SCORE.INTRA.REPUL.0>
0

>  <SCORE.INTRA.SOLV>
4.7363

>  <SCORE.INTRA.SOLV.lig_0>
-115.677

>  <SCORE.INTRA.VDW>
2.40657

>  <SCORE.INTRA.VDW.0>
-7.4833

>  <SCORE.INTRA.norm>
-0.262082

>  <SCORE.RESTR>
0

>  <SCORE.RESTR.CAVITY>
0

>  <SCORE.RESTR.norm>
0

>  <SCORE.SYSTEM>
0

>  <SCORE.SYSTEM.CONST>
0

>  <SCORE.SYSTEM.DIHEDRAL>
0

>  <SCORE.SYSTEM.SOLV>
0

>  <SCORE.SYSTEM.norm>
0

>  <SCORE.heavy>
52

>  <SCORE.norm>
-0.407133

>  <RMSD>
8.695

$$$$
2be0_lig
 OpenBabel11021811423D
libRbt.so/2013.1/901 2013/11/27
 52 56  0  0  0  0  0  0  0  0999 V2000
   42.6706   -0.8801   -5.5318 C   0  0  2  0  0  0  0  0  0  0  0  0
   41.9120   -0.2143   -6.5136 O   0  0  0  0  0  0  0  0  0  0  0  0
   39.0352    3.1166   -6.5003 C   0  0  2  0  0  0  0  0  0  0  0  0
   37.8691    3.9523   -6.0988 N   0  0  0  0  0  0  0  0  0  0  0  0
   43.2671    2.8660   -4.5299 C   0  0  2  0  0  0  0  0  0  0  0  0
   44.3472    2.3208   -3.7447 O   0  0  0  0  0  0  0  0  0  0  0  0
   41.5888    4.7012   -0.5423 C   0  0  1  0  0  0  0  0  0  0  0  0
   44.8404    7.7248   -7.9132 C   0  0  0  0  0  0  0  0  0  0  0  0
   43.8728   -1.6798   -6.1807 C   0  0  2  0  0  0  0  0  0  0  0  0
   44.6773   -0.7791   -7.0089 N   0  0  0  0  0  0  0  0  0  0  0  0
   38.5265    1.6458   -6.8556 C   0  0  0  0  0  0  0  0  0  0  0  0
   42.7423    4.0940   -3.7690 C   0  0  2  0  0  0  0  0  0  0  0  0
   43.6481    5.1966   -4.2176 O   0  0  0  0  0  0  0  0  0  0  0  0
   40.4718    5.2275   -1.5989 C   0  0  2  0  0  0  0  0  0  0  0  0
   40.9624    6.4984   -2.2233 N   0  0  0  0  0  0  0  0  0  0  0  0
   44.6842    9.0260   -8.4940 C   0  0  0  0  0  0  0  0  0  0  0  0
   43.7121    9.2315   -9.5078 N   0  0  0  0  0  0  0  0  0  0  0  0
   43.3048   -2.9165   -7.0197 C   0  0  1  0  0  0  0  0  0  0  0  0
   44.3963   -3.6147   -7.5986 O   0  0  0  0  0  0  0  0  0  0  0  0
   39.7800    0.6912   -7.2885 C   0  0  2  0  0  0  0  0  0  0  0  0
   39.3353   -0.6348   -7.6129 N   0  0  0  0  0  0  0  0  0  0  0  0
   42.8548    3.5474   -2.3333 C   0  0  2  0  0  0  0  0  0  0  0  0
   42.8089    4.4953   -1.2768 O   0  0  0  0  0  0  0  0  0  0  0  0
   39.1470    5.4682   -0.8141 C   0  0  1  0  0  0  0  0  0  0  0  0
   38.7533    4.1612   -0.2627 O   0  0  0  0  0  0  0  0  0  0  0  0
   42.8657    8.1937   -9.9922 C   0  0  0  0  0  0  0  0  0  0  0  0
   42.4771   -3.8246   -6.0645 C   0  0  2  0  0  0  0  0  0  0  0  0
   41.9188   -4.9916   -6.7895 O   0  0  0  0  0  0  0  0  0  0  0  0
   40.8357    0.6232   -6.1093 C   0  0  2  0  0  0  0  0  0  0  0  0
   44.1570    2.7125   -2.3695 C   0  0  1  0  0  0  0  0  0  0  0  0
   39.3916    6.5563    0.3700 C   0  0  2  0  0  0  0  0  0  0  0  0
   39.7858    7.8652   -0.1738 O   0  0  0  0  0  0  0  0  0  0  0  0
   42.9736    6.8871   -9.4553 C   0  0  0  0  0  0  0  0  0  0  0  0
   41.2855   -3.0106   -5.4280 C   0  0  2  0  0  0  0  0  0  0  0  0
   41.8943   -1.8842   -4.7385 O   0  0  0  0  0  0  0  0  0  0  0  0
   41.2935    2.0893   -5.7933 C   0  0  2  0  0  0  0  0  0  0  0  0
   42.2362    1.9073   -4.7437 O   0  0  0  0  0  0  0  0  0  0  0  0
   44.0482    1.4272   -1.5509 C   0  0  0  0  0  0  0  0  0  0  0  0
   43.8293    1.6041   -0.1718 O   0  0  0  0  0  0  0  0  0  0  0  0
   40.5291    6.0213    1.3563 C   0  0  1  0  0  0  0  0  0  0  0  0
   41.7815    5.7564    0.5463 O   0  0  0  0  0  0  0  0  0  0  0  0
   43.9736    6.6206   -8.3954 C   0  0  0  0  0  0  0  0  0  0  0  0
   40.5556   -3.9120   -4.5220 C   0  0  0  0  0  0  0  0  0  0  0  0
   39.8664   -4.8061   -5.2420 O   0  0  0  0  0  0  0  0  0  0  0  0
   40.0578    2.9792   -5.3476 C   0  0  1  0  0  0  0  0  0  0  0  0
   40.4780    4.2770   -5.0813 O   0  0  0  0  0  0  0  0  0  0  0  0
   43.7662    6.5684   -3.6695 C   0  0  0  0  0  0  0  0  0  0  0  0
   40.7264    7.1014    2.4545 C   0  0  0  0  0  0  0  0  0  0  0  0
   41.7389    6.6898    3.3948 N   0  0  0  0  0  0  0  0  0  0  0  0
   44.2720    7.4671   -4.8026 C   0  0  0  0  0  0  0  0  0  0  0  0
   45.3996    6.7839   -5.5156 N   0  0  0  0  0  0  0  0  0  0  0  0
   45.9473    7.5216   -6.7670 C   0  0  0  0  0  0  0  0  0  0  0  0
  1  2  1  6  0  0  0
  1  9  1  0  0  0  0
  1 35  1  0  0  0  0
  3  4  1  1  0  0  0
  3 11  1  0  0  0  0
  3 45  1  0  0  0  0
  5  6  1  0  0  0  0
  5 12  1  0  0  0  0
  5 37  1  1  0  0  0
  6 30  1  0  0  0  0
  7 14  1  0  0  0  0
  7 41  1  0  0  0  0
  7 23  1  6  0  0  0
  8 16  2  0  0  0  0
  8 42  1  0  0  0  0
  9 10  1  6  0  0  0
  9 18  1  0  0  0  0
 11 20  1  0  0  0  0
 12 13  1  1  0  0  0
 12 22  1  0  0  0  0
 13 47  1  0  0  0  0
 14 15  1  1  0  0  0
 14 24  1  0  0  0  0
 16 17  1  0  0  0  0
 17 26  2  0  0  0  0
 18 19  1  1  0  0  0
 18 27  1  0  0  0  0
 20 21  1  1  0  0  0
 20 29  1  0  0  0  0
 22 23  1  1  0  0  0
 22 30  1  0  0  0  0
 24 25  1  1  0  0  0
 24 31  1  0  0  0  0
 26 33  1  0  0  0  0
 27 28  1  6  0  0  0
 27 34  1  0  0  0  0
 29  2  1  6  0  0  0
 29 36  1  0  0  0  0
 30 38  1  1  0  0  0
 31 32  1  6  0  0  0
 31 40  1  0  0  0  0
 33 42  2  0  0  0  0
 34 35  1  0  0  0  0
 34 43  1  1  0  0  0
 36 37  1  1  0  0  0
 36 45  1  0  0  0  0
 38 39  1  0  0  0  0
 40 41  1  0  0  0  0
 40 48  1  1  0  0  0
 43 44  1  0  0  0  0
 45 46  1  6  0  0  0
 47 50  1  0  0  0  0
 48 49  1  0  0  0  0
 50 51  1  0  0  0  0
 51 52  1  0  0  0  0
 52  8  1  0  0  0  0
M  END
>  <CHROM.1>
-176.24559323,-161.29227947,-61.43283383,-169.62464638,-153.47130649,100.07998857
-153.90139959,-178.71614325,-72.14768316,154.35505005,179.72828634,-45.05056400
175.28328203,-60.68526544,131.17125354,42.05816437,2.98013736,-4.36805633
1.61730684,-1.24219144,-2.68565233

>  <Name>
2be0_lig

>  <RI>
2.75444e+07

>  <Rbt.Current_Directory>
/home/itssahil/PROJECTS/Mol_Feturizer/New_Systems/rnas/2be0

>  <Rbt.Executable>
rbdock ($Id: //depot/dev/client3/rdock/2013.1/src/exe/rbdock.cxx#4 $)

>  <Rbt.Library>
libRbt.so (2013.1, Build901 2013/11/27)

>  <Rbt.Parameter_File>
/export/apps/rDock/src/rDock_2013.1_src/data/scripts/dock_solv.prm

>  <Rbt.Receptor>
prm/pocket_docking_5.prm

>  <SCORE>
-16.7198

>  <SCORE.INTER>
-3.50311

>  <SCORE.INTER.CONST>
1

>  <SCORE.INTER.POLAR>
0

>  <SCORE.INTER.ROT>
15

>  <SCORE.INTER.SOLV>
16.1695

>  <SCORE.INTER.VDW>
-21.3252

>  <SCORE.INTER.norm>
-0.0673675

>  <SCORE.INTRA>
-13.2167

>  <SCORE.INTRA.DIHEDRAL>
-29.1683

>  <SCORE.INTRA.DIHEDRAL.0>
47.8724

>  <SCORE.INTRA.POLAR>
0

>  <SCORE.INTRA.POLAR.0>
0

>  <SCORE.INTRA.REPUL>
0

>  <SCORE.INTRA.REPUL.0>
0

>  <SCORE.INTRA.SOLV>
-0.667221

>  <SCORE.INTRA.SOLV.lig_0>
-115.677

>  <SCORE.INTRA.VDW>
1.70104

>  <SCORE.INTRA.VDW.0>
-7.4833

>  <SCORE.INTRA.norm>
-0.254168

>  <SCORE.RESTR>
0

>  <SCORE.RESTR.CAVITY>
0

>  <SCORE.RESTR.norm>
0

>  <SCORE.SYSTEM>
0

>  <SCORE.SYSTEM.CONST>
0

>  <SCORE.SYSTEM.DIHEDRAL>
0

>  <SCORE.SYSTEM.SOLV>
0

>  <SCORE.SYSTEM.norm>
0

>  <SCORE.heavy>
52

>  <SCORE.norm>
-0.321535

>  <RMSD>
8.714

$$$$
2be0_lig
 OpenBabel11021811423D
libRbt.so/2013.1/901 2013/11/27
 52 56  0  0  0  0  0  0  0  0999 V2000
   49.3386    6.1408   -7.2744 C   0  0  2  0  0  0  0  0  0  0  0  0
   48.9320    5.1181   -8.1529 O   0  0  0  0  0  0  0  0  0  0  0  0
   45.3994    2.5699   -8.7840 C   0  0  2  0  0  0  0  0  0  0  0  0
   44.1662    1.7924   -8.4769 N   0  0  0  0  0  0  0  0  0  0  0  0
   45.3577    6.7225   -7.6477 C   0  0  2  0  0  0  0  0  0  0  0  0
   44.0785    6.6062   -8.3039 O   0  0  0  0  0  0  0  0  0  0  0  0
   45.1474   11.1730   -9.3291 C   0  0  1  0  0  0  0  0  0  0  0  0
   41.0696    7.4200   -1.1589 C   0  0  0  0  0  0  0  0  0  0  0  0
   50.6827    5.7574   -6.5313 C   0  0  2  0  0  0  0  0  0  0  0  0
   51.7104    5.4088   -7.5146 N   0  0  0  0  0  0  0  0  0  0  0  0
   46.5946    2.0367   -7.8700 C   0  0  0  0  0  0  0  0  0  0  0  0
   45.5324    8.2039   -7.2770 C   0  0  2  0  0  0  0  0  0  0  0  0
   44.8279    8.3208   -5.9627 O   0  0  0  0  0  0  0  0  0  0  0  0
   46.0295   10.3526  -10.4201 C   0  0  2  0  0  0  0  0  0  0  0  0
   47.0587    9.5412   -9.6934 N   0  0  0  0  0  0  0  0  0  0  0  0
   40.8483    7.0254    0.2013 C   0  0  0  0  0  0  0  0  0  0  0  0
   39.5614    7.1840    0.7790 N   0  0  0  0  0  0  0  0  0  0  0  0
   50.4074    4.5632   -5.5047 C   0  0  1  0  0  0  0  0  0  0  0  0
   51.6246    4.2300   -4.8555 O   0  0  0  0  0  0  0  0  0  0  0  0
   47.9653    2.8751   -8.1667 C   0  0  2  0  0  0  0  0  0  0  0  0
   49.0493    2.4034   -7.3520 N   0  0  0  0  0  0  0  0  0  0  0  0
   44.9119    8.8367   -8.5369 C   0  0  2  0  0  0  0  0  0  0  0  0
   44.5399   10.2047   -8.4552 O   0  0  0  0  0  0  0  0  0  0  0  0
   46.7054   11.3903  -11.3664 C   0  0  1  0  0  0  0  0  0  0  0  0
   45.6094   12.1121  -12.0336 O   0  0  0  0  0  0  0  0  0  0  0  0
   38.4537    7.7270    0.0675 C   0  0  0  0  0  0  0  0  0  0  0  0
   49.3175    5.0214   -4.4927 C   0  0  2  0  0  0  0  0  0  0  0  0
   49.0154    3.9497   -3.5133 O   0  0  0  0  0  0  0  0  0  0  0  0
   47.7237    4.4158   -7.8883 C   0  0  2  0  0  0  0  0  0  0  0  0
   43.7373    7.8871   -8.8726 C   0  0  1  0  0  0  0  0  0  0  0  0
   47.6382   12.4056  -10.5032 C   0  0  2  0  0  0  0  0  0  0  0  0
   48.7357   11.6909   -9.8330 O   0  0  0  0  0  0  0  0  0  0  0  0
   38.6119    8.1336   -1.2803 C   0  0  0  0  0  0  0  0  0  0  0  0
   47.9874    5.3992   -5.2513 C   0  0  2  0  0  0  0  0  0  0  0  0
   48.3485    6.4459   -6.1942 O   0  0  0  0  0  0  0  0  0  0  0  0
   46.5371    4.8852   -8.7998 C   0  0  2  0  0  0  0  0  0  0  0  0
   46.4192    6.2661   -8.4798 O   0  0  0  0  0  0  0  0  0  0  0  0
   43.5695    7.6766  -10.3765 C   0  0  0  0  0  0  0  0  0  0  0  0
   42.3380    7.1251  -10.7771 O   0  0  0  0  0  0  0  0  0  0  0  0
   46.7413   13.1536   -9.4128 C   0  0  1  0  0  0  0  0  0  0  0  0
   46.0676   12.1093   -8.5466 O   0  0  0  0  0  0  0  0  0  0  0  0
   39.9358    7.9896   -1.9290 C   0  0  0  0  0  0  0  0  0  0  0  0
   47.0058    5.8433   -4.2487 C   0  0  0  0  0  0  0  0  0  0  0  0
   46.4900    7.0216   -4.6206 O   0  0  0  0  0  0  0  0  0  0  0  0
   45.2164    4.0725   -8.4644 C   0  0  1  0  0  0  0  0  0  0  0  0
   44.1778    4.4925   -9.2868 O   0  0  0  0  0  0  0  0  0  0  0  0
   43.6060    7.6148   -5.5098 C   0  0  0  0  0  0  0  0  0  0  0  0
   47.6831   14.0964   -8.6156 C   0  0  0  0  0  0  0  0  0  0  0  0
   48.4802   14.8950   -9.5133 N   0  0  0  0  0  0  0  0  0  0  0  0
   43.8090    7.2595   -4.0333 C   0  0  0  0  0  0  0  0  0  0  0  0
   42.6570    7.7848   -3.2310 N   0  0  0  0  0  0  0  0  0  0  0  0
   42.5355    7.2278   -1.7870 C   0  0  0  0  0  0  0  0  0  0  0  0
  1  2  1  1  0  0  0
  1  9  1  0  0  0  0
  1 35  1  0  0  0  0
  3  4  1  1  0  0  0
  3 11  1  0  0  0  0
  3 45  1  0  0  0  0
  5  6  1  0  0  0  0
  5 12  1  0  0  0  0
  5 37  1  6  0  0  0
  6 30  1  0  0  0  0
  7 14  1  0  0  0  0
  7 41  1  0  0  0  0
  7 23  1  1  0  0  0
  8 16  2  0  0  0  0
  8 42  1  0  0  0  0
  9 10  1  6  0  0  0
  9 18  1  0  0  0  0
 11 20  1  0  0  0  0
 12 13  1  1  0  0  0
 12 22  1  0  0  0  0
 13 47  1  0  0  0  0
 14 15  1  1  0  0  0
 14 24  1  0  0  0  0
 16 17  1  0  0  0  0
 17 26  2  0  0  0  0
 18 19  1  1  0  0  0
 18 27  1  0  0  0  0
 20 21  1  1  0  0  0
 20 29  1  0  0  0  0
 22 23  1  1  0  0  0
 22 30  1  0  0  0  0
 24 25  1  1  0  0  0
 24 31  1  0  0  0  0
 26 33  1  0  0  0  0
 27 28  1  1  0  0  0
 27 34  1  0  0  0  0
 29  2  1  6  0  0  0
 29 36  1  0  0  0  0
 30 38  1  6  0  0  0
 31 32  1  1  0  0  0
 31 40  1  0  0  0  0
 33 42  2  0  0  0  0
 34 35  1  0  0  0  0
 34 43  1  1  0  0  0
 36 37  1  1  0  0  0
 36 45  1  0  0  0  0
 38 39  1  0  0  0  0
 40 41  1  0  0  0  0
 40 48  1  1  0  0  0
 43 44  1  0  0  0  0
 45 46  1  6  0  0  0
 47 50  1  0  0  0  0
 48 49  1  0  0  0  0
 50 51  1  0  0  0  0
 51 52  1  0  0  0  0
 52  8  1  0  0  0  0
M  END
>  <CHROM.1>
114.52405586,-68.54440595,8.41794819,-35.16590979,141.03454471,119.12548309
-138.17814355,79.70708573,129.18798741,-104.31118334,49.63301899,126.18221145
166.06927957,-160.73368963,-176.05943130,45.81340390,7.32957445,-6.87978584
-0.70209059,-0.64631492,2.54750214

>  <Name>
2be0_lig

>  <RI>
224

>  <Rbt.Current_Directory>
/home/itssahil/PROJECTS/Mol_Feturizer/New_Systems/rnas/2be0

>  <Rbt.Executable>
rbdock ($Id: //depot/dev/client3/rdock/2013.1/src/exe/rbdock.cxx#4 $)

>  <Rbt.Library>
libRbt.so (2013.1, Build901 2013/11/27)

>  <Rbt.Parameter_File>
/export/apps/rDock/src/rDock_2013.1_src/data/scripts/dock_solv.prm

>  <Rbt.Receptor>
prm/blind_docking_100.prm

>  <SCORE>
25.8113

>  <SCORE.INTER>
-7.11122

>  <SCORE.INTER.CONST>
1

>  <SCORE.INTER.POLAR>
-0.690603

>  <SCORE.INTER.ROT>
15

>  <SCORE.INTER.SOLV>
21.3699

>  <SCORE.INTER.VDW>
-23.1621

>  <SCORE.INTER.norm>
-0.136754

>  <SCORE.INTRA>
15.9963

>  <SCORE.INTRA.DIHEDRAL>
6.49677

>  <SCORE.INTRA.DIHEDRAL.0>
47.8724

>  <SCORE.INTRA.POLAR>
0

>  <SCORE.INTRA.POLAR.0>
0

>  <SCORE.INTRA.REPUL>
0.0857301

>  <SCORE.INTRA.REPUL.0>
0

>  <SCORE.INTRA.SOLV>
4.62011

>  <SCORE.INTRA.SOLV.lig_0>
-115.677

>  <SCORE.INTRA.VDW>
10.0092

>  <SCORE.INTRA.VDW.0>
-7.4833

>  <SCORE.INTRA.norm>
0.307621

>  <SCORE.RESTR>
16.9263

>  <SCORE.RESTR.CAVITY>
16.9263

>  <SCORE.RESTR.norm>
0.325505

>  <SCORE.SYSTEM>
0

>  <SCORE.SYSTEM.CONST>
0

>  <SCORE.SYSTEM.DIHEDRAL>
0

>  <SCORE.SYSTEM.SOLV>
0

>  <SCORE.SYSTEM.norm>
0

>  <SCORE.heavy>
52

>  <SCORE.norm>
0.496372

>  <RMSD>
8.721

$$$$
2be0_lig
 OpenBabel11021811423D
libRbt.so/2013.1/901 2013/11/27
 52 56  0  0  0  0  0  0  0  0999 V2000
   49.3047    2.2282   -4.7297 C   0  0  2  0  0  0  0  0  0  0  0  0
   49.0934    2.8387   -5.9809 O   0  0  0  0  0  0  0  0  0  0  0  0
   45.2988    3.2206   -8.1778 C   0  0  2  0  0  0  0  0  0  0  0  0
   44.1319    2.8444   -9.0241 N   0  0  0  0  0  0  0  0  0  0  0  0
   46.3716    2.5609   -3.5464 C   0  0  2  0  0  0  0  0  0  0  0  0
   46.9095    1.7793   -2.4601 O   0  0  0  0  0  0  0  0  0  0  0  0
   42.1517    1.1260   -2.8766 C   0  0  1  0  0  0  0  0  0  0  0  0
   41.8636    6.0814    2.6808 C   0  0  0  0  0  0  0  0  0  0  0  0
   50.5989    2.8033   -4.0225 C   0  0  2  0  0  0  0  0  0  0  0  0
   50.5097    4.2625   -3.9368 N   0  0  0  0  0  0  0  0  0  0  0  0
   46.6450    2.9344   -8.9867 C   0  0  0  0  0  0  0  0  0  0  0  0
   44.8486    2.6106   -3.3447 C   0  0  2  0  0  0  0  0  0  0  0  0
   44.6580    3.7566   -2.4026 O   0  0  0  0  0  0  0  0  0  0  0  0
   40.9597    0.8370   -1.8103 C   0  0  2  0  0  0  0  0  0  0  0  0
   41.0720   -0.5803   -1.3367 N   0  0  0  0  0  0  0  0  0  0  0  0
   40.6217    5.4643    2.3180 C   0  0  0  0  0  0  0  0  0  0  0  0
   39.5824    5.3572    3.2790 N   0  0  0  0  0  0  0  0  0  0  0  0
   51.9018    2.3293   -4.8185 C   0  0  1  0  0  0  0  0  0  0  0  0
   53.0488    2.8609   -4.1737 O   0  0  0  0  0  0  0  0  0  0  0  0
   47.9521    3.3213   -8.0857 C   0  0  2  0  0  0  0  0  0  0  0  0
   49.1701    3.0705   -8.8032 N   0  0  0  0  0  0  0  0  0  0  0  0
   44.6294    1.1684   -2.8499 C   0  0  2  0  0  0  0  0  0  0  0  0
   43.3987    0.8901   -2.1984 O   0  0  0  0  0  0  0  0  0  0  0  0
   39.6010    1.0755   -2.5356 C   0  0  1  0  0  0  0  0  0  0  0  0
   39.5941    2.4914   -2.9391 O   0  0  0  0  0  0  0  0  0  0  0  0
   39.7081    5.8375    4.6137 C   0  0  0  0  0  0  0  0  0  0  0  0
   51.9239    0.7734   -4.8504 C   0  0  2  0  0  0  0  0  0  0  0  0
   53.1125    0.2723   -5.5821 O   0  0  0  0  0  0  0  0  0  0  0  0
   47.9456    2.4827   -6.7418 C   0  0  2  0  0  0  0  0  0  0  0  0
   45.8765    0.8970   -1.9751 C   0  0  1  0  0  0  0  0  0  0  0  0
   39.4808    0.0954   -3.8282 C   0  0  2  0  0  0  0  0  0  0  0  0
   39.4875   -1.3216   -3.4326 O   0  0  0  0  0  0  0  0  0  0  0  0
   40.9120    6.4577    5.0298 C   0  0  0  0  0  0  0  0  0  0  0  0
   50.6274    0.2199   -5.5577 C   0  0  2  0  0  0  0  0  0  0  0  0
   49.5032    0.7464   -4.8002 O   0  0  0  0  0  0  0  0  0  0  0  0
   46.6023    2.7906   -5.9935 C   0  0  2  0  0  0  0  0  0  0  0  0
   46.7104    2.0049   -4.8127 O   0  0  0  0  0  0  0  0  0  0  0  0
   46.3992   -0.5300   -2.1321 C   0  0  0  0  0  0  0  0  0  0  0  0
   45.4950   -1.5487   -1.7772 O   0  0  0  0  0  0  0  0  0  0  0  0
   40.6969    0.3790   -4.8249 C   0  0  1  0  0  0  0  0  0  0  0  0
   41.9943    0.1820   -4.0682 O   0  0  0  0  0  0  0  0  0  0  0  0
   42.0274    6.5931    4.0644 C   0  0  0  0  0  0  0  0  0  0  0  0
   50.6948   -1.2502   -5.5383 C   0  0  0  0  0  0  0  0  0  0  0  0
   49.6355   -1.7539   -6.1840 O   0  0  0  0  0  0  0  0  0  0  0  0
   45.3562    2.3751   -6.8835 C   0  0  1  0  0  0  0  0  0  0  0  0
   44.1745    2.6636   -6.2113 O   0  0  0  0  0  0  0  0  0  0  0  0
   43.4084    4.2069   -1.7453 C   0  0  0  0  0  0  0  0  0  0  0  0
   40.5363   -0.5889   -6.0286 C   0  0  0  0  0  0  0  0  0  0  0  0
   41.5572   -0.3436   -7.0167 N   0  0  0  0  0  0  0  0  0  0  0  0
   43.7973    5.2687   -0.7115 C   0  0  0  0  0  0  0  0  0  0  0  0
   42.6598    5.4765    0.2423 N   0  0  0  0  0  0  0  0  0  0  0  0
   43.0214    6.1903    1.5727 C   0  0  0  0  0  0  0  0  0  0  0  0
  1  2  1  6  0  0  0
  1  9  1  0  0  0  0
  1 35  1  0  0  0  0
  3  4  1  6  0  0  0
  3 11  1  0  0  0  0
  3 45  1  0  0  0  0
  5  6  1  0  0  0  0
  5 12  1  0  0  0  0
  5 37  1  6  0  0  0
  6 30  1  0  0  0  0
  7 14  1  0  0  0  0
  7 41  1  0  0  0  0
  7 23  1  1  0  0  0
  8 16  2  0  0  0  0
  8 42  1  0  0  0  0
  9 10  1  6  0  0  0
  9 18  1  0  0  0  0
 11 20  1  0  0  0  0
 12 13  1  1  0  0  0
 12 22  1  0  0  0  0
 13 47  1  0  0  0  0
 14 15  1  6  0  0  0
 14 24  1  0  0  0  0
 16 17  1  0  0  0  0
 17 26  2  0  0  0  0
 18 19  1  1  0  0  0
 18 27  1  0  0  0  0
 20 21  1  6  0  0  0
 20 29  1  0  0  0  0
 22 23  1  1  0  0  0
 22 30  1  0  0  0  0
 24 25  1  6  0  0  0
 24 31  1  0  0  0  0
 26 33  1  0  0  0  0
 27 28  1  6  0  0  0
 27 34  1  0  0  0  0
 29  2  1  1  0  0  0
 29 36  1  0  0  0  0
 30 38  1  6  0  0  0
 31 32  1  1  0  0  0
 31 40  1  0  0  0  0
 33 42  2  0  0  0  0
 34 35  1  0  0  0  0
 34 43  1  1  0  0  0
 36 37  1  1  0  0  0
 36 45  1  0  0  0  0
 38 39  1  0  0  0  0
 40 41  1  0  0  0  0
 40 48  1  6  0  0  0
 43 44  1  0  0  0  0
 45 46  1  1  0  0  0
 47 50  1  0  0  0  0
 48 49  1  0  0  0  0
 50 51  1  0  0  0  0
 51 52  1  0  0  0  0
 52  8  1  0  0  0  0
M  END
>  <CHROM.1>
-177.67800666,-162.81459572,-174.86357923,-173.78028564,170.89850067,57.85005933
179.54700717,-176.63966602,-177.31471761,134.75012711,176.72381384,-163.96963428
162.75882456,-166.62538352,-4.97010825,45.19282174,2.16810891,-3.43484001
-0.65192446,0.16650922,1.02533879

>  <Name>
2be0_lig

>  <RI>
0

>  <Rbt.Current_Directory>
/home/itssahil/PROJECTS/Mol_Feturizer/New_Systems/rnas/2be0

>  <Rbt.Executable>
rbdock ($Id: //depot/dev/client3/rdock/2013.1/src/exe/rbdock.cxx#4 $)

>  <Rbt.Library>
libRbt.so (2013.1, Build901 2013/11/27)

>  <Rbt.Parameter_File>
/export/apps/rDock/src/rDock_2013.1_src/data/scripts/dock_solv.prm

>  <Rbt.Receptor>
prm/pocket_docking_7.prm

>  <SCORE>
-25.1378

>  <SCORE.INTER>
-6.14813

>  <SCORE.INTER.CONST>
1

>  <SCORE.INTER.POLAR>
-0.761222

>  <SCORE.INTER.ROT>
15

>  <SCORE.INTER.SOLV>
14.1356

>  <SCORE.INTER.VDW>
-19.8732

>  <SCORE.INTER.norm>
-0.118233

>  <SCORE.INTRA>
-18.9896

>  <SCORE.INTRA.DIHEDRAL>
-36.9898

>  <SCORE.INTRA.DIHEDRAL.0>
47.8724

>  <SCORE.INTRA.POLAR>
0

>  <SCORE.INTRA.POLAR.0>
0

>  <SCORE.INTRA.REPUL>
0

>  <SCORE.INTRA.REPUL.0>
0

>  <SCORE.INTRA.SOLV>
-4.92702

>  <SCORE.INTRA.SOLV.lig_0>
-115.677

>  <SCORE.INTRA.VDW>
1.96877

>  <SCORE.INTRA.VDW.0>
-7.4833

>  <SCORE.INTRA.norm>
-0.365185

>  <SCORE.RESTR>
0

>  <SCORE.RESTR.CAVITY>
0

>  <SCORE.RESTR.norm>
0

>  <SCORE.SYSTEM>
0

>  <SCORE.SYSTEM.CONST>
0

>  <SCORE.SYSTEM.DIHEDRAL>
0

>  <SCORE.SYSTEM.SOLV>
0

>  <SCORE.SYSTEM.norm>
0

>  <SCORE.heavy>
52

>  <SCORE.norm>
-0.483419

>  <RMSD>
8.732

$$$$
2be0_lig
 OpenBabel11021811423D
libRbt.so/2013.1/901 2013/11/27
 52 56  0  0  0  0  0  0  0  0999 V2000
   40.5426    5.9332   -1.5818 C   0  0  2  0  0  0  0  0  0  0  0  0
   41.1717    4.6757   -1.5065 O   0  0  0  0  0  0  0  0  0  0  0  0
   40.1481    1.1094    0.8610 C   0  0  2  0  0  0  0  0  0  0  0  0
   39.3446   -0.0196    1.4078 N   0  0  0  0  0  0  0  0  0  0  0  0
   40.1918    1.9471   -3.4833 C   0  0  2  0  0  0  0  0  0  0  0  0
   39.7196    0.5855   -3.4266 O   0  0  0  0  0  0  0  0  0  0  0  0
   42.0372    1.4268   -7.5789 C   0  0  1  0  0  0  0  0  0  0  0  0
   34.6548   -0.3807   -8.2235 C   0  0  0  0  0  0  0  0  0  0  0  0
   39.3956    5.9360   -2.6727 C   0  0  2  0  0  0  0  0  0  0  0  0
   38.4567    4.8440   -2.4073 N   0  0  0  0  0  0  0  0  0  0  0  0
   39.3814    2.4810    1.1424 C   0  0  0  0  0  0  0  0  0  0  0  0
   40.5171    2.2422   -4.9563 C   0  0  2  0  0  0  0  0  0  0  0  0
   39.1991    2.6569   -5.5291 O   0  0  0  0  0  0  0  0  0  0  0  0
   41.1380    2.7226   -7.9707 C   0  0  2  0  0  0  0  0  0  0  0  0
   39.8972    2.2534   -8.6677 N   0  0  0  0  0  0  0  0  0  0  0  0
   33.5706   -0.5999   -7.3118 C   0  0  0  0  0  0  0  0  0  0  0  0
   32.5351   -1.5079   -7.6559 N   0  0  0  0  0  0  0  0  0  0  0  0
   40.0411    5.8287   -4.1314 C   0  0  1  0  0  0  0  0  0  0  0  0
   38.9974    5.8252   -5.0930 O   0  0  0  0  0  0  0  0  0  0  0  0
   40.2249    3.7461    0.5441 C   0  0  2  0  0  0  0  0  0  0  0  0
   39.5465    4.9868    0.7928 N   0  0  0  0  0  0  0  0  0  0  0  0
   41.1241    0.8797   -5.3409 C   0  0  2  0  0  0  0  0  0  0  0  0
   41.2338    0.5906   -6.7269 O   0  0  0  0  0  0  0  0  0  0  0  0
   41.9915    3.6319   -8.9055 C   0  0  1  0  0  0  0  0  0  0  0  0
   43.1653    4.0433   -8.1180 O   0  0  0  0  0  0  0  0  0  0  0  0
   32.5116   -2.2277   -8.8844 C   0  0  0  0  0  0  0  0  0  0  0  0
   41.0109    7.0291   -4.3333 C   0  0  2  0  0  0  0  0  0  0  0  0
   41.6459    6.9817   -5.6726 O   0  0  0  0  0  0  0  0  0  0  0  0
   40.4378    3.5609   -1.0147 C   0  0  2  0  0  0  0  0  0  0  0  0
   40.2558   -0.1328   -4.5567 C   0  0  1  0  0  0  0  0  0  0  0  0
   42.4352    2.8039  -10.2334 C   0  0  2  0  0  0  0  0  0  0  0  0
   41.2668    2.3890  -11.0254 O   0  0  0  0  0  0  0  0  0  0  0  0
   33.5569   -2.0528   -9.8245 C   0  0  0  0  0  0  0  0  0  0  0  0
   42.1452    7.0094   -3.2376 C   0  0  2  0  0  0  0  0  0  0  0  0
   41.4623    7.0536   -1.9544 O   0  0  0  0  0  0  0  0  0  0  0  0
   41.1826    2.1988   -1.2362 C   0  0  2  0  0  0  0  0  0  0  0  0
   41.3294    2.1446   -2.6500 O   0  0  0  0  0  0  0  0  0  0  0  0
   41.0761   -1.2944   -3.9981 C   0  0  0  0  0  0  0  0  0  0  0  0
   41.7026   -2.1105   -4.9587 O   0  0  0  0  0  0  0  0  0  0  0  0
   43.2737    1.5147   -9.8000 C   0  0  1  0  0  0  0  0  0  0  0  0
   42.4265    0.6852   -8.8572 O   0  0  0  0  0  0  0  0  0  0  0  0
   34.6609   -1.1156   -9.5130 C   0  0  0  0  0  0  0  0  0  0  0  0
   43.0144    8.1748   -3.4660 C   0  0  0  0  0  0  0  0  0  0  0  0
   44.1077    8.0730   -2.6998 O   0  0  0  0  0  0  0  0  0  0  0  0
   40.3226    0.9908   -0.6716 C   0  0  1  0  0  0  0  0  0  0  0  0
   41.0002   -0.2069   -0.8660 O   0  0  0  0  0  0  0  0  0  0  0  0
   37.9441    1.8726   -5.6070 C   0  0  0  0  0  0  0  0  0  0  0  0
   43.6586    0.7611  -11.1021 C   0  0  0  0  0  0  0  0  0  0  0  0
   42.4985    0.1387  -11.6899 N   0  0  0  0  0  0  0  0  0  0  0  0
   38.1389    0.8128   -6.6962 C   0  0  0  0  0  0  0  0  0  0  0  0
   36.8730    0.0270   -6.8598 N   0  0  0  0  0  0  0  0  0  0  0  0
   35.8134    0.6512   -7.8073 C   0  0  0  0  0  0  0  0  0  0  0  0
  1  2  1  6  0  0  0
  1  9  1  0  0  0  0
  1 35  1  0  0  0  0
  3  4  1  6  0  0  0
  3 11  1  0  0  0  0
  3 45  1  0  0  0  0
  5  6  1  0  0  0  0
  5 12  1  0  0  0  0
  5 37  1  1  0  0  0
  6 30  1  0  0  0  0
  7 14  1  0  0  0  0
  7 41  1  0  0  0  0
  7 23  1  1  0  0  0
  8 16  2  0  0  0  0
  8 42  1  0  0  0  0
  9 10  1  1  0  0  0
  9 18  1  0  0  0  0
 11 20  1  0  0  0  0
 12 13  1  6  0  0  0
 12 22  1  0  0  0  0
 13 47  1  0  0  0  0
 14 15  1  6  0  0  0
 14 24  1  0  0  0  0
 16 17  1  0  0  0  0
 17 26  2  0  0  0  0
 18 19  1  6  0  0  0
 18 27  1  0  0  0  0
 20 21  1  6  0  0  0
 20 29  1  0  0  0  0
 22 23  1  6  0  0  0
 22 30  1  0  0  0  0
 24 25  1  1  0  0  0
 24 31  1  0  0  0  0
 26 33  1  0  0  0  0
 27 28  1  6  0  0  0
 27 34  1  0  0  0  0
 29  2  1  1  0  0  0
 29 36  1  0  0  0  0
 30 38  1  1  0  0  0
 31 32  1  1  0  0  0
 31 40  1  0  0  0  0
 33 42  2  0  0  0  0
 34 35  1  0  0  0  0
 34 43  1  6  0  0  0
 36 37  1  6  0  0  0
 36 45  1  0  0  0  0
 38 39  1  0  0  0  0
 40 41  1  0  0  0  0
 40 48  1  6  0  0  0
 43 44  1  0  0  0  0
 45 46  1  1  0  0  0
 47 50  1  0  0  0  0
 48 49  1  0  0  0  0
 50 51  1  0  0  0  0
 51 52  1  0  0  0  0
 52  8  1  0  0  0  0
M  END
>  <CHROM.1>
-67.54170869,-73.83957625,-81.70384621,-60.55312262,-73.34452612,60.90852968
-71.17909155,-179.13913723,-169.91336777,-69.95123432,-71.21579511,-177.50546969
84.94666869,165.94151130,81.36062999,39.95929674,2.37342667,-5.09783888,1.05829277
0.69779687,1.31222121

>  <Name>
2be0_lig

>  <RI>
0

>  <Rbt.Current_Directory>
/home/itssahil/PROJECTS/Mol_Feturizer/New_Systems/rnas/2be0

>  <Rbt.Executable>
rbdock ($Id: //depot/dev/client3/rdock/2013.1/src/exe/rbdock.cxx#4 $)

>  <Rbt.Library>
libRbt.so (2013.1, Build901 2013/11/27)

>  <Rbt.Parameter_File>
/export/apps/rDock/src/rDock_2013.1_src/data/scripts/dock_solv.prm

>  <Rbt.Receptor>
prm/pocket_docking_7.prm

>  <SCORE>
-12.5664

>  <SCORE.INTER>
1.72762

>  <SCORE.INTER.CONST>
1

>  <SCORE.INTER.POLAR>
-0.546515

>  <SCORE.INTER.ROT>
15

>  <SCORE.INTER.SOLV>
8.44986

>  <SCORE.INTER.VDW>
-13.4432

>  <SCORE.INTER.norm>
0.0332234

>  <SCORE.INTRA>
-14.2941

>  <SCORE.INTRA.DIHEDRAL>
-40.0631

>  <SCORE.INTRA.DIHEDRAL.0>
47.8724

>  <SCORE.INTRA.POLAR>
0

>  <SCORE.INTRA.POLAR.0>
0

>  <SCORE.INTRA.REPUL>
0

>  <SCORE.INTRA.REPUL.0>
0

>  <SCORE.INTRA.SOLV>
6.92977

>  <SCORE.INTRA.SOLV.lig_0>
-115.677

>  <SCORE.INTRA.VDW>
2.27261

>  <SCORE.INTRA.VDW.0>
-7.4833

>  <SCORE.INTRA.norm>
-0.274886

>  <SCORE.RESTR>
0

>  <SCORE.RESTR.CAVITY>
0

>  <SCORE.RESTR.norm>
0

>  <SCORE.SYSTEM>
0

>  <SCORE.SYSTEM.CONST>
0

>  <SCORE.SYSTEM.DIHEDRAL>
0

>  <SCORE.SYSTEM.SOLV>
0

>  <SCORE.SYSTEM.norm>
0

>  <SCORE.heavy>
52

>  <SCORE.norm>
-0.241662

>  <RMSD>
8.735

$$$$
2be0_lig
 OpenBabel11021811423D
libRbt.so/2013.1/901 2013/11/27
 52 56  0  0  0  0  0  0  0  0999 V2000
   40.1105    4.0431   -6.7703 C   0  0  2  0  0  0  0  0  0  0  0  0
   41.2513    4.3571   -6.0070 O   0  0  0  0  0  0  0  0  0  0  0  0
   44.5824    7.2115   -6.3647 C   0  0  2  0  0  0  0  0  0  0  0  0
   45.3218    8.4575   -6.7112 N   0  0  0  0  0  0  0  0  0  0  0  0
   41.7703    7.0597   -2.8907 C   0  0  2  0  0  0  0  0  0  0  0  0
   42.7982    6.4275   -2.1008 O   0  0  0  0  0  0  0  0  0  0  0  0
   40.1600    4.2954    0.6180 C   0  0  1  0  0  0  0  0  0  0  0  0
   43.6482   12.0994    0.3408 C   0  0  0  0  0  0  0  0  0  0  0  0
   39.1416    3.0721   -5.9802 C   0  0  2  0  0  0  0  0  0  0  0  0
   38.8129    3.6530   -4.6767 N   0  0  0  0  0  0  0  0  0  0  0  0
   43.9227    6.6101   -7.6882 C   0  0  0  0  0  0  0  0  0  0  0  0
   40.4935    7.0634   -2.0350 C   0  0  2  0  0  0  0  0  0  0  0  0
   40.6353    8.2968   -1.2007 O   0  0  0  0  0  0  0  0  0  0  0  0
   39.6771    2.9541   -0.1624 C   0  0  2  0  0  0  0  0  0  0  0  0
   38.2069    3.0587   -0.4328 N   0  0  0  0  0  0  0  0  0  0  0  0
   42.6010   12.3265    1.2929 C   0  0  0  0  0  0  0  0  0  0  0  0
   42.1181   13.6442    1.5062 N   0  0  0  0  0  0  0  0  0  0  0  0
   39.8216    1.6322   -5.8392 C   0  0  1  0  0  0  0  0  0  0  0  0
   38.9415    0.7803   -5.1224 O   0  0  0  0  0  0  0  0  0  0  0  0
   43.0885    5.2469   -7.3482 C   0  0  2  0  0  0  0  0  0  0  0  0
   42.4917    4.6944   -8.5314 N   0  0  0  0  0  0  0  0  0  0  0  0
   40.6434    5.6763   -1.3822 C   0  0  2  0  0  0  0  0  0  0  0  0
   39.8547    5.4170   -0.2301 O   0  0  0  0  0  0  0  0  0  0  0  0
   39.9894    1.7306    0.7512 C   0  0  1  0  0  0  0  0  0  0  0  0
   41.4500    1.7175    0.9346 O   0  0  0  0  0  0  0  0  0  0  0  0
   42.6285   14.7787    0.8130 C   0  0  0  0  0  0  0  0  0  0  0  0
   40.1242    1.0856   -7.2646 C   0  0  2  0  0  0  0  0  0  0  0  0
   40.7620   -0.2515   -7.1983 O   0  0  0  0  0  0  0  0  0  0  0  0
   41.9602    5.5595   -6.2811 C   0  0  2  0  0  0  0  0  0  0  0  0
   42.1667    5.5589   -1.1377 C   0  0  1  0  0  0  0  0  0  0  0  0
   39.2194    1.8888    2.1753 C   0  0  2  0  0  0  0  0  0  0  0  0
   37.7588    1.9030    1.9996 O   0  0  0  0  0  0  0  0  0  0  0  0
   43.6632   14.6158   -0.1408 C   0  0  0  0  0  0  0  0  0  0  0  0
   41.0896    2.0660   -8.0355 C   0  0  2  0  0  0  0  0  0  0  0  0
   40.4133    3.3531   -8.0635 O   0  0  0  0  0  0  0  0  0  0  0  0
   42.6578    6.1558   -5.0095 C   0  0  2  0  0  0  0  0  0  0  0  0
   41.5658    6.3831   -4.1267 O   0  0  0  0  0  0  0  0  0  0  0  0
   42.6918    4.1481   -1.3982 C   0  0  0  0  0  0  0  0  0  0  0  0
   44.0844    3.9871   -1.2714 O   0  0  0  0  0  0  0  0  0  0  0  0
   39.6869    3.2420    2.8845 C   0  0  1  0  0  0  0  0  0  0  0  0
   39.4090    4.3975    1.9452 O   0  0  0  0  0  0  0  0  0  0  0  0
   44.2024   13.2605   -0.3993 C   0  0  0  0  0  0  0  0  0  0  0  0
   41.3208    1.5095   -9.3782 C   0  0  0  0  0  0  0  0  0  0  0  0
   40.1867    1.5693  -10.0874 O   0  0  0  0  0  0  0  0  0  0  0  0
   43.4320    7.4931   -5.3694 C   0  0  1  0  0  0  0  0  0  0  0  0
   44.0527    8.0031   -4.2354 O   0  0  0  0  0  0  0  0  0  0  0  0
   40.9800    9.6690   -1.6416 C   0  0  0  0  0  0  0  0  0  0  0  0
   38.9141    3.3444    4.2276 C   0  0  0  0  0  0  0  0  0  0  0  0
   39.2306    2.2266    5.0815 N   0  0  0  0  0  0  0  0  0  0  0  0
   42.5088    9.7652   -1.6705 C   0  0  0  0  0  0  0  0  0  0  0  0
   43.0448    9.6098   -0.2794 N   0  0  0  0  0  0  0  0  0  0  0  0
   44.1741   10.5978    0.1189 C   0  0  0  0  0  0  0  0  0  0  0  0
  1  2  1  1  0  0  0
  1  9  1  0  0  0  0
  1 35  1  0  0  0  0
  3  4  1  6  0  0  0
  3 11  1  0  0  0  0
  3 45  1  0  0  0  0
  5  6  1  0  0  0  0
  5 12  1  0  0  0  0
  5 37  1  6  0  0  0
  6 30  1  0  0  0  0
  7 14  1  0  0  0  0
  7 41  1  0  0  0  0
  7 23  1  6  0  0  0
  8 16  2  0  0  0  0
  8 42  1  0  0  0  0
  9 10  1  1  0  0  0
  9 18  1  0  0  0  0
 11 20  1  0  0  0  0
 12 13  1  1  0  0  0
 12 22  1  0  0  0  0
 13 47  1  0  0  0  0
 14 15  1  1  0  0  0
 14 24  1  0  0  0  0
 16 17  1  0  0  0  0
 17 26  2  0  0  0  0
 18 19  1  6  0  0  0
 18 27  1  0  0  0  0
 20 21  1  6  0  0  0
 20 29  1  0  0  0  0
 22 23  1  1  0  0  0
 22 30  1  0  0  0  0
 24 25  1  1  0  0  0
 24 31  1  0  0  0  0
 26 33  1  0  0  0  0
 27 28  1  1  0  0  0
 27 34  1  0  0  0  0
 29  2  1  1  0  0  0
 29 36  1  0  0  0  0
 30 38  1  6  0  0  0
 31 32  1  6  0  0  0
 31 40  1  0  0  0  0
 33 42  2  0  0  0  0
 34 35  1  0  0  0  0
 34 43  1  6  0  0  0
 36 37  1  1  0  0  0
 36 45  1  0  0  0  0
 38 39  1  0  0  0  0
 40 41  1  0  0  0  0
 40 48  1  1  0  0  0
 43 44  1  0  0  0  0
 45 46  1  1  0  0  0
 47 50  1  0  0  0  0
 48 49  1  0  0  0  0
 50 51  1  0  0  0  0
 51 52  1  0  0  0  0
 52  8  1  0  0  0  0
M  END
>  <CHROM.1>
-155.94672136,-54.70230908,-74.30708961,48.92935825,-86.37564700,-165.03803964
-90.88774393,60.15898150,68.13698578,-173.40881847,61.04824986,-64.53066572
-136.52848320,72.07621841,56.30060811,41.38816266,5.62946579,-2.71284151
-1.94616586,1.13146452,1.07724260

>  <Name>
2be0_lig

>  <RI>
0

>  <Rbt.Current_Directory>
/home/itssahil/PROJECTS/Mol_Feturizer/New_Systems/rnas/2be0

>  <Rbt.Executable>
rbdock ($Id: //depot/dev/client3/rdock/2013.1/src/exe/rbdock.cxx#4 $)

>  <Rbt.Library>
libRbt.so (2013.1, Build901 2013/11/27)

>  <Rbt.Parameter_File>
/export/apps/rDock/src/rDock_2013.1_src/data/scripts/dock_solv.prm

>  <Rbt.Receptor>
prm/pocket_docking_7.prm

>  <SCORE>
-24.2138

>  <SCORE.INTER>
-11.1431

>  <SCORE.INTER.CONST>
1

>  <SCORE.INTER.POLAR>
-0.966125

>  <SCORE.INTER.ROT>
15

>  <SCORE.INTER.SOLV>
15.5435

>  <SCORE.INTER.VDW>
-22.9895

>  <SCORE.INTER.norm>
-0.214291

>  <SCORE.INTRA>
-13.0707

>  <SCORE.INTRA.DIHEDRAL>
-33.1878

>  <SCORE.INTRA.DIHEDRAL.0>
47.8724

>  <SCORE.INTRA.POLAR>
0

>  <SCORE.INTRA.POLAR.0>
0

>  <SCORE.INTRA.REPUL>
0

>  <SCORE.INTRA.REPUL.0>
0

>  <SCORE.INTRA.SOLV>
1.41299

>  <SCORE.INTRA.SOLV.lig_0>
-115.677

>  <SCORE.INTRA.VDW>
2.81673

>  <SCORE.INTRA.VDW.0>
-7.4833

>  <SCORE.INTRA.norm>
-0.251359

>  <SCORE.RESTR>
0

>  <SCORE.RESTR.CAVITY>
0

>  <SCORE.RESTR.norm>
0

>  <SCORE.SYSTEM>
0

>  <SCORE.SYSTEM.CONST>
0

>  <SCORE.SYSTEM.DIHEDRAL>
0

>  <SCORE.SYSTEM.SOLV>
0

>  <SCORE.SYSTEM.norm>
0

>  <SCORE.heavy>
52

>  <SCORE.norm>
-0.465651

>  <RMSD>
8.735

$$$$
2be0_lig
 OpenBabel11021811423D
libRbt.so/2013.1/901 2013/11/27
 52 56  0  0  0  0  0  0  0  0999 V2000
   41.1163    6.1928    0.3510 C   0  0  2  0  0  0  0  0  0  0  0  0
   41.3389    6.0742    1.7364 O   0  0  0  0  0  0  0  0  0  0  0  0
   38.9967    3.9777    4.8169 C   0  0  2  0  0  0  0  0  0  0  0  0
   37.8720    3.6626    5.7416 N   0  0  0  0  0  0  0  0  0  0  0  0
   38.8995    3.0548    0.3884 C   0  0  2  0  0  0  0  0  0  0  0  0
   39.8971    2.0134    0.4170 O   0  0  0  0  0  0  0  0  0  0  0  0
   39.5489    3.9091   -4.0185 C   0  0  1  0  0  0  0  0  0  0  0  0
   36.4093    0.1964   -5.9431 C   0  0  0  0  0  0  0  0  0  0  0  0
   42.4745    6.1064   -0.4573 C   0  0  2  0  0  0  0  0  0  0  0  0
   43.1879    4.8790   -0.0978 N   0  0  0  0  0  0  0  0  0  0  0  0
   39.5028    5.4655    5.0974 C   0  0  0  0  0  0  0  0  0  0  0  0
   38.5387    3.2821   -1.0883 C   0  0  2  0  0  0  0  0  0  0  0  0
   37.4918    2.2477   -1.3556 O   0  0  0  0  0  0  0  0  0  0  0  0
   39.6473    3.2819   -5.5145 C   0  0  2  0  0  0  0  0  0  0  0  0
   41.0723    2.9051   -5.7848 N   0  0  0  0  0  0  0  0  0  0  0  0
   35.4264   -0.3012   -6.8603 C   0  0  0  0  0  0  0  0  0  0  0  0
   35.3721    0.2154   -8.1814 N   0  0  0  0  0  0  0  0  0  0  0  0
   43.3518    7.4127   -0.1752 C   0  0  1  0  0  0  0  0  0  0  0  0
   44.5666    7.3121   -0.9021 O   0  0  0  0  0  0  0  0  0  0  0  0
   40.7298    5.8562    4.0916 C   0  0  2  0  0  0  0  0  0  0  0  0
   41.1958    7.1922    4.3354 N   0  0  0  0  0  0  0  0  0  0  0  0
   39.9434    3.1255   -1.7008 C   0  0  2  0  0  0  0  0  0  0  0  0
   40.0151    2.9030   -3.1014 O   0  0  0  0  0  0  0  0  0  0  0  0
   39.1579    4.3665   -6.5210 C   0  0  1  0  0  0  0  0  0  0  0  0
   37.7543    4.6446   -6.1744 O   0  0  0  0  0  0  0  0  0  0  0  0
   36.2581    1.2240   -8.6565 C   0  0  0  0  0  0  0  0  0  0  0  0
   42.5269    8.6636   -0.5958 C   0  0  2  0  0  0  0  0  0  0  0  0
   43.2902    9.9116   -0.3529 O   0  0  0  0  0  0  0  0  0  0  0  0
   40.2527    5.7269    2.5866 C   0  0  2  0  0  0  0  0  0  0  0  0
   40.5789    1.9972   -0.8540 C   0  0  1  0  0  0  0  0  0  0  0  0
   40.0730    5.7045   -6.3857 C   0  0  2  0  0  0  0  0  0  0  0  0
   41.4775    5.4339   -6.7302 O   0  0  0  0  0  0  0  0  0  0  0  0
   37.2510    1.7533   -7.7957 C   0  0  0  0  0  0  0  0  0  0  0  0
   41.1784    8.7319    0.2194 C   0  0  2  0  0  0  0  0  0  0  0  0
   40.4814    7.4856   -0.0559 O   0  0  0  0  0  0  0  0  0  0  0  0
   39.7574    4.2553    2.3676 C   0  0  2  0  0  0  0  0  0  0  0  0
   39.3709    4.2518    0.9987 O   0  0  0  0  0  0  0  0  0  0  0  0
   42.0592    2.2458   -0.5688 C   0  0  0  0  0  0  0  0  0  0  0  0
   42.9078    2.2020   -1.6909 O   0  0  0  0  0  0  0  0  0  0  0  0
   39.9856    6.2587   -4.8896 C   0  0  1  0  0  0  0  0  0  0  0  0
   40.4242    5.1598   -3.9438 O   0  0  0  0  0  0  0  0  0  0  0  0
   37.3485    1.2481   -6.4067 C   0  0  0  0  0  0  0  0  0  0  0  0
   40.4351    9.9180   -0.2352 C   0  0  0  0  0  0  0  0  0  0  0  0
   41.1168   11.0236    0.0902 O   0  0  0  0  0  0  0  0  0  0  0  0
   38.5474    3.9202    3.3377 C   0  0  1  0  0  0  0  0  0  0  0  0
   38.1271    2.6105    3.1388 O   0  0  0  0  0  0  0  0  0  0  0  0
   37.6287    0.7724   -1.3213 C   0  0  0  0  0  0  0  0  0  0  0  0
   40.8835    7.5237   -4.8180 C   0  0  0  0  0  0  0  0  0  0  0  0
   40.9781    8.0026   -3.4613 N   0  0  0  0  0  0  0  0  0  0  0  0
   36.3578    0.1848   -1.9431 C   0  0  0  0  0  0  0  0  0  0  0  0
   36.2252    0.6665   -3.3563 N   0  0  0  0  0  0  0  0  0  0  0  0
   36.4485   -0.4073   -4.4551 C   0  0  0  0  0  0  0  0  0  0  0  0
  1  2  1  1  0  0  0
  1  9  1  0  0  0  0
  1 35  1  0  0  0  0
  3  4  1  1  0  0  0
  3 11  1  0  0  0  0
  3 45  1  0  0  0  0
  5  6  1  0  0  0  0
  5 12  1  0  0  0  0
  5 37  1  6  0  0  0
  6 30  1  0  0  0  0
  7 14  1  0  0  0  0
  7 41  1  0  0  0  0
  7 23  1  1  0  0  0
  8 16  2  0  0  0  0
  8 42  1  0  0  0  0
  9 10  1  1  0  0  0
  9 18  1  0  0  0  0
 11 20  1  0  0  0  0
 12 13  1  6  0  0  0
 12 22  1  0  0  0  0
 13 47  1  0  0  0  0
 14 15  1  6  0  0  0
 14 24  1  0  0  0  0
 16 17  1  0  0  0  0
 17 26  2  0  0  0  0
 18 19  1  6  0  0  0
 18 27  1  0  0  0  0
 20 21  1  1  0  0  0
 20 29  1  0  0  0  0
 22 23  1  6  0  0  0
 22 30  1  0  0  0  0
 24 25  1  1  0  0  0
 24 31  1  0  0  0  0
 26 33  1  0  0  0  0
 27 28  1  1  0  0  0
 27 34  1  0  0  0  0
 29  2  1  6  0  0  0
 29 36  1  0  0  0  0
 30 38  1  1  0  0  0
 31 32  1  1  0  0  0
 31 40  1  0  0  0  0
 33 42  2  0  0  0  0
 34 35  1  0  0  0  0
 34 43  1  6  0  0  0
 36 37  1  6  0  0  0
 36 45  1  0  0  0  0
 38 39  1  0  0  0  0
 40 41  1  0  0  0  0
 40 48  1  6  0  0  0
 43 44  1  0  0  0  0
 45 46  1  6  0  0  0
 47 50  1  0  0  0  0
 48 49  1  0  0  0  0
 50 51  1  0  0  0  0
 51 52  1  0  0  0  0
 52  8  1  0  0  0  0
M  END
>  <CHROM.1>
-161.24374650,-60.78209372,-174.87322300,-63.88278213,-168.63569295,63.68719598
-172.38991273,177.04862685,-65.20753442,177.70646020,-173.64886982,60.15191035
109.89423866,-175.37460696,-120.22126624,39.76544894,4.40000110,-1.63307896
-0.89718657,-0.97160922,-1.54151063

>  <Name>
2be0_lig

>  <RI>
0

>  <Rbt.Current_Directory>
/home/itssahil/PROJECTS/Mol_Feturizer/New_Systems/rnas/2be0

>  <Rbt.Executable>
rbdock ($Id: //depot/dev/client3/rdock/2013.1/src/exe/rbdock.cxx#4 $)

>  <Rbt.Library>
libRbt.so (2013.1, Build901 2013/11/27)

>  <Rbt.Parameter_File>
/export/apps/rDock/src/rDock_2013.1_src/data/scripts/dock_solv.prm

>  <Rbt.Receptor>
prm/pocket_docking_6.prm

>  <SCORE>
-30.2992

>  <SCORE.INTER>
-12.0525

>  <SCORE.INTER.CONST>
1

>  <SCORE.INTER.POLAR>
-0.787085

>  <SCORE.INTER.ROT>
15

>  <SCORE.INTER.SOLV>
14.8892

>  <SCORE.INTER.VDW>
-23.9744

>  <SCORE.INTER.norm>
-0.231779

>  <SCORE.INTRA>
-18.9147

>  <SCORE.INTRA.DIHEDRAL>
-42.4625

>  <SCORE.INTRA.DIHEDRAL.0>
47.8724

>  <SCORE.INTRA.POLAR>
0

>  <SCORE.INTRA.POLAR.0>
0

>  <SCORE.INTRA.REPUL>
0

>  <SCORE.INTRA.REPUL.0>
0

>  <SCORE.INTRA.SOLV>
3.22787

>  <SCORE.INTRA.SOLV.lig_0>
-115.677

>  <SCORE.INTRA.VDW>
0.70267

>  <SCORE.INTRA.VDW.0>
-7.4833

>  <SCORE.INTRA.norm>
-0.363744

>  <SCORE.RESTR>
0.667982

>  <SCORE.RESTR.CAVITY>
0.667982

>  <SCORE.RESTR.norm>
0.0128458

>  <SCORE.SYSTEM>
0

>  <SCORE.SYSTEM.CONST>
0

>  <SCORE.SYSTEM.DIHEDRAL>
0

>  <SCORE.SYSTEM.SOLV>
0

>  <SCORE.SYSTEM.norm>
0

>  <SCORE.heavy>
52

>  <SCORE.norm>
-0.582676

>  <RMSD>
8.738

$$$$
2be0_lig
 OpenBabel11021811423D
libRbt.so/2013.1/901 2013/11/27
 52 56  0  0  0  0  0  0  0  0999 V2000
   40.6946    3.0107   -3.7345 C   0  0  2  0  0  0  0  0  0  0  0  0
   41.8885    3.2685   -3.0338 O   0  0  0  0  0  0  0  0  0  0  0  0
   45.1852    0.5774   -1.9108 C   0  0  2  0  0  0  0  0  0  0  0  0
   45.9145   -0.5261   -1.2254 N   0  0  0  0  0  0  0  0  0  0  0  0
   42.3158   -0.1195   -5.3309 C   0  0  2  0  0  0  0  0  0  0  0  0
   42.8051    0.5689   -6.5001 O   0  0  0  0  0  0  0  0  0  0  0  0
   38.2978   -0.8814   -7.0555 C   0  0  1  0  0  0  0  0  0  0  0  0
   40.6869   -5.0147   -3.4464 C   0  0  0  0  0  0  0  0  0  0  0  0
   40.2612    4.2583   -4.6070 C   0  0  2  0  0  0  0  0  0  0  0  0
   41.3634    4.6553   -5.4858 N   0  0  0  0  0  0  0  0  0  0  0  0
   44.5668    1.5567   -0.8122 C   0  0  0  0  0  0  0  0  0  0  0  0
   40.9972   -0.7978   -5.7357 C   0  0  2  0  0  0  0  0  0  0  0  0
   41.4407   -2.0945   -6.3350 O   0  0  0  0  0  0  0  0  0  0  0  0
   37.2448   -1.0410   -8.2832 C   0  0  2  0  0  0  0  0  0  0  0  0
   36.7622    0.3205   -8.6822 N   0  0  0  0  0  0  0  0  0  0  0  0
   41.0881   -5.7801   -2.3027 C   0  0  0  0  0  0  0  0  0  0  0  0
   41.3186   -5.1257   -1.0643 N   0  0  0  0  0  0  0  0  0  0  0  0
   39.8016    5.4516   -3.6475 C   0  0  1  0  0  0  0  0  0  0  0  0
   39.4249    6.5613   -4.4479 O   0  0  0  0  0  0  0  0  0  0  0  0
   43.7446    2.7760   -1.5244 C   0  0  2  0  0  0  0  0  0  0  0  0
   43.1850    3.6658   -0.5465 N   0  0  0  0  0  0  0  0  0  0  0  0
   40.4308    0.3108   -6.6429 C   0  0  2  0  0  0  0  0  0  0  0  0
   39.3766   -0.0515   -7.5226 O   0  0  0  0  0  0  0  0  0  0  0  0
   36.0627   -1.9273   -7.7871 C   0  0  1  0  0  0  0  0  0  0  0  0
   36.6463   -3.2338   -7.4410 O   0  0  0  0  0  0  0  0  0  0  0  0
   41.1721   -3.7198   -0.8912 C   0  0  0  0  0  0  0  0  0  0  0  0
   38.6243    4.9496   -2.7620 C   0  0  2  0  0  0  0  0  0  0  0  0
   38.1556    6.0159   -1.8442 O   0  0  0  0  0  0  0  0  0  0  0  0
   42.5862    2.1860   -2.4297 C   0  0  2  0  0  0  0  0  0  0  0  0
   41.6858    0.8602   -7.3621 C   0  0  1  0  0  0  0  0  0  0  0  0
   35.3551   -1.2384   -6.4946 C   0  0  2  0  0  0  0  0  0  0  0  0
   34.7698    0.0682   -6.8331 O   0  0  0  0  0  0  0  0  0  0  0  0
   40.7767   -2.9118   -1.9856 C   0  0  0  0  0  0  0  0  0  0  0  0
   39.0751    3.7072   -1.9013 C   0  0  2  0  0  0  0  0  0  0  0  0
   39.5247    2.7036   -2.8530 O   0  0  0  0  0  0  0  0  0  0  0  0
   43.2438    1.2261   -3.4810 C   0  0  2  0  0  0  0  0  0  0  0  0
   42.1275    0.7713   -4.2362 O   0  0  0  0  0  0  0  0  0  0  0  0
   41.6404    2.3773   -7.5364 C   0  0  0  0  0  0  0  0  0  0  0  0
   42.7941    2.9574   -8.0965 O   0  0  0  0  0  0  0  0  0  0  0  0
   36.4355   -1.0563   -5.3317 C   0  0  1  0  0  0  0  0  0  0  0  0
   37.5861   -0.2308   -5.8698 O   0  0  0  0  0  0  0  0  0  0  0  0
   40.5248   -3.5467   -3.3000 C   0  0  0  0  0  0  0  0  0  0  0  0
   37.9189    3.2659   -1.1047 C   0  0  0  0  0  0  0  0  0  0  0  0
   38.2989    2.2916   -0.2686 O   0  0  0  0  0  0  0  0  0  0  0  0
   44.0069    0.0387   -2.7563 C   0  0  1  0  0  0  0  0  0  0  0  0
   44.5923   -0.7966   -3.7003 O   0  0  0  0  0  0  0  0  0  0  0  0
   42.3147   -3.1312   -5.7370 C   0  0  0  0  0  0  0  0  0  0  0  0
   35.7087   -0.3872   -4.1335 C   0  0  0  0  0  0  0  0  0  0  0  0
   34.7588   -1.2975   -3.5438 N   0  0  0  0  0  0  0  0  0  0  0  0
   41.9783   -4.4588   -6.4239 C   0  0  0  0  0  0  0  0  0  0  0  0
   40.5768   -4.8599   -6.0752 N   0  0  0  0  0  0  0  0  0  0  0  0
   40.4316   -5.7818   -4.8345 C   0  0  0  0  0  0  0  0  0  0  0  0
  1  2  1  1  0  0  0
  1  9  1  0  0  0  0
  1 35  1  0  0  0  0
  3  4  1  1  0  0  0
  3 11  1  0  0  0  0
  3 45  1  0  0  0  0
  5  6  1  0  0  0  0
  5 12  1  0  0  0  0
  5 37  1  1  0  0  0
  6 30  1  0  0  0  0
  7 14  1  0  0  0  0
  7 41  1  0  0  0  0
  7 23  1  6  0  0  0
  8 16  2  0  0  0  0
  8 42  1  0  0  0  0
  9 10  1  1  0  0  0
  9 18  1  0  0  0  0
 11 20  1  0  0  0  0
 12 13  1  6  0  0  0
 12 22  1  0  0  0  0
 13 47  1  0  0  0  0
 14 15  1  1  0  0  0
 14 24  1  0  0  0  0
 16 17  1  0  0  0  0
 17 26  2  0  0  0  0
 18 19  1  6  0  0  0
 18 27  1  0  0  0  0
 20 21  1  1  0  0  0
 20 29  1  0  0  0  0
 22 23  1  6  0  0  0
 22 30  1  0  0  0  0
 24 25  1  1  0  0  0
 24 31  1  0  0  0  0
 26 33  1  0  0  0  0
 27 28  1  1  0  0  0
 27 34  1  0  0  0  0
 29  2  1  6  0  0  0
 29 36  1  0  0  0  0
 30 38  1  1  0  0  0
 31 32  1  6  0  0  0
 31 40  1  0  0  0  0
 33 42  2  0  0  0  0
 34 35  1  0  0  0  0
 34 43  1  6  0  0  0
 36 37  1  6  0  0  0
 36 45  1  0  0  0  0
 38 39  1  0  0  0  0
 40 41  1  0  0  0  0
 40 48  1  1  0  0  0
 43 44  1  0  0  0  0
 45 46  1  6  0  0  0
 47 50  1  0  0  0  0
 48 49  1  0  0  0  0
 50 51  1  0  0  0  0
 51 52  1  0  0  0  0
 52  8  1  0  0  0  0
M  END
>  <CHROM.1>
-166.58594629,-77.41479179,177.43716118,54.03202046,155.53125578,43.47897467
-171.00060019,59.32407247,-174.24117844,178.73277610,68.81415719,-65.83625196
-92.21719877,72.83225854,-156.52238504,40.33150885,0.25506485,-4.39149664
1.14251992,-0.53237206,0.20581644

>  <Name>
2be0_lig

>  <RI>
0

>  <Rbt.Current_Directory>
/home/itssahil/PROJECTS/Mol_Feturizer/New_Systems/rnas/2be0

>  <Rbt.Executable>
rbdock ($Id: //depot/dev/client3/rdock/2013.1/src/exe/rbdock.cxx#4 $)

>  <Rbt.Library>
libRbt.so (2013.1, Build901 2013/11/27)

>  <Rbt.Parameter_File>
/export/apps/rDock/src/rDock_2013.1_src/data/scripts/dock_solv.prm

>  <Rbt.Receptor>
prm/pocket_docking_6.prm

>  <SCORE>
-17.7142

>  <SCORE.INTER>
1.1168

>  <SCORE.INTER.CONST>
1

>  <SCORE.INTER.POLAR>
0

>  <SCORE.INTER.ROT>
15

>  <SCORE.INTER.SOLV>
12.259

>  <SCORE.INTER.VDW>
-16.9418

>  <SCORE.INTER.norm>
0.0214769

>  <SCORE.INTRA>
-18.831

>  <SCORE.INTRA.DIHEDRAL>
-38.6768

>  <SCORE.INTRA.DIHEDRAL.0>
47.8724

>  <SCORE.INTRA.POLAR>
0

>  <SCORE.INTRA.POLAR.0>
0

>  <SCORE.INTRA.REPUL>
0

>  <SCORE.INTRA.REPUL.0>
0

>  <SCORE.INTRA.SOLV>
-2.02831

>  <SCORE.INTRA.SOLV.lig_0>
-115.677

>  <SCORE.INTRA.VDW>
1.5216

>  <SCORE.INTRA.VDW.0>
-7.4833

>  <SCORE.INTRA.norm>
-0.362134

>  <SCORE.RESTR>
0

>  <SCORE.RESTR.CAVITY>
0

>  <SCORE.RESTR.norm>
0

>  <SCORE.SYSTEM>
0

>  <SCORE.SYSTEM.CONST>
0

>  <SCORE.SYSTEM.DIHEDRAL>
0

>  <SCORE.SYSTEM.SOLV>
0

>  <SCORE.SYSTEM.norm>
0

>  <SCORE.heavy>
52

>  <SCORE.norm>
-0.340657

>  <RMSD>
8.762

$$$$
2be0_lig
 OpenBabel11021811423D
libRbt.so/2013.1/901 2013/11/27
 52 56  0  0  0  0  0  0  0  0999 V2000
   41.9419    4.0816   -3.9852 C   0  0  2  0  0  0  0  0  0  0  0  0
   42.8700    5.1282   -3.8236 O   0  0  0  0  0  0  0  0  0  0  0  0
   43.1280    8.7802   -1.3808 C   0  0  2  0  0  0  0  0  0  0  0  0
   42.7100   10.0420   -0.7080 N   0  0  0  0  0  0  0  0  0  0  0  0
   42.1377    4.6110    0.1555 C   0  0  2  0  0  0  0  0  0  0  0  0
   43.2771    3.7387    0.3011 O   0  0  0  0  0  0  0  0  0  0  0  0
   39.1728    1.3573    0.6242 C   0  0  1  0  0  0  0  0  0  0  0  0
   39.0053    8.6266    2.9544 C   0  0  0  0  0  0  0  0  0  0  0  0
   41.7247    3.7392   -5.5153 C   0  0  2  0  0  0  0  0  0  0  0  0
   43.0152    3.4594   -6.1485 N   0  0  0  0  0  0  0  0  0  0  0  0
   42.8486    8.9059   -2.9474 C   0  0  0  0  0  0  0  0  0  0  0  0
   40.9007    3.7959    0.5653 C   0  0  2  0  0  0  0  0  0  0  0  0
   40.8542    3.9546    2.0519 O   0  0  0  0  0  0  0  0  0  0  0  0
   38.7620    0.0641    1.5187 C   0  0  2  0  0  0  0  0  0  0  0  0
   39.1543   -1.1774    0.7767 N   0  0  0  0  0  0  0  0  0  0  0  0
   38.7683    9.8868    2.3136 C   0  0  0  0  0  0  0  0  0  0  0  0
   39.7252   10.9283    2.4349 N   0  0  0  0  0  0  0  0  0  0  0  0
   40.9556    4.9439   -6.2317 C   0  0  1  0  0  0  0  0  0  0  0  0
   40.7778    4.6208   -7.6021 O   0  0  0  0  0  0  0  0  0  0  0  0
   43.2812    7.5337   -3.7219 C   0  0  2  0  0  0  0  0  0  0  0  0
   43.0369    7.6347   -5.1331 N   0  0  0  0  0  0  0  0  0  0  0  0
   41.2984    2.4399   -0.0476 C   0  0  2  0  0  0  0  0  0  0  0  0
   40.5942    1.2944    0.4088 O   0  0  0  0  0  0  0  0  0  0  0  0
   37.2213    0.1116    1.7487 C   0  0  1  0  0  0  0  0  0  0  0  0
   36.9556    1.3535    2.4933 O   0  0  0  0  0  0  0  0  0  0  0  0
   40.9334   10.7887    3.1756 C   0  0  0  0  0  0  0  0  0  0  0  0
   39.5959    5.1639   -5.5071 C   0  0  2  0  0  0  0  0  0  0  0  0
   38.8357    6.2761   -6.1269 O   0  0  0  0  0  0  0  0  0  0  0  0
   42.4744    6.3055   -3.1302 C   0  0  2  0  0  0  0  0  0  0  0  0
   42.8255    2.3731    0.1924 C   0  0  1  0  0  0  0  0  0  0  0  0
   36.4449    0.1055    0.3194 C   0  0  2  0  0  0  0  0  0  0  0  0
   36.7062   -1.1329   -0.4306 O   0  0  0  0  0  0  0  0  0  0  0  0
   41.2226    9.5658    3.8297 C   0  0  0  0  0  0  0  0  0  0  0  0
   39.8329    5.5031   -3.9852 C   0  0  2  0  0  0  0  0  0  0  0  0
   40.5818    4.3830   -3.4379 O   0  0  0  0  0  0  0  0  0  0  0  0
   42.7742    6.2337   -1.5927 C   0  0  2  0  0  0  0  0  0  0  0  0
   42.0186    5.1031   -1.1753 O   0  0  0  0  0  0  0  0  0  0  0  0
   43.5737    1.7485   -0.9841 C   0  0  0  0  0  0  0  0  0  0  0  0
   44.9721    1.6745   -0.8420 O   0  0  0  0  0  0  0  0  0  0  0  0
   36.9139    1.3646   -0.5453 C   0  0  1  0  0  0  0  0  0  0  0  0
   38.4191    1.3043   -0.7043 O   0  0  0  0  0  0  0  0  0  0  0  0
   40.2554    8.4479    3.7344 C   0  0  0  0  0  0  0  0  0  0  0  0
   38.5165    5.6783   -3.3509 C   0  0  0  0  0  0  0  0  0  0  0  0
   38.6800    6.1274   -2.1002 O   0  0  0  0  0  0  0  0  0  0  0  0
   42.3144    7.5683   -0.8683 C   0  0  1  0  0  0  0  0  0  0  0  0
   42.5960    7.4931    0.4905 O   0  0  0  0  0  0  0  0  0  0  0  0
   40.3515    5.1066    2.8371 C   0  0  0  0  0  0  0  0  0  0  0  0
   36.1516    1.3002   -1.8967 C   0  0  0  0  0  0  0  0  0  0  0  0
   34.7376    1.4932   -1.6913 N   0  0  0  0  0  0  0  0  0  0  0  0
   38.8210    5.0508    2.7945 C   0  0  0  0  0  0  0  0  0  0  0  0
   38.2580    6.1829    3.5995 N   0  0  0  0  0  0  0  0  0  0  0  0
   37.9060    7.4656    2.7990 C   0  0  0  0  0  0  0  0  0  0  0  0
  1  2  1  6  0  0  0
  1  9  1  0  0  0  0
  1 35  1  0  0  0  0
  3  4  1  1  0  0  0
  3 11  1  0  0  0  0
  3 45  1  0  0  0  0
  5  6  1  0  0  0  0
  5 12  1  0  0  0  0
  5 37  1  6  0  0  0
  6 30  1  0  0  0  0
  7 14  1  0  0  0  0
  7 41  1  0  0  0  0
  7 23  1  6  0  0  0
  8 16  2  0  0  0  0
  8 42  1  0  0  0  0
  9 10  1  6  0  0  0
  9 18  1  0  0  0  0
 11 20  1  0  0  0  0
 12 13  1  1  0  0  0
 12 22  1  0  0  0  0
 13 47  1  0  0  0  0
 14 15  1  6  0  0  0
 14 24  1  0  0  0  0
 16 17  1  0  0  0  0
 17 26  2  0  0  0  0
 18 19  1  6  0  0  0
 18 27  1  0  0  0  0
 20 21  1  6  0  0  0
 20 29  1  0  0  0  0
 22 23  1  1  0  0  0
 22 30  1  0  0  0  0
 24 25  1  6  0  0  0
 24 31  1  0  0  0  0
 26 33  1  0  0  0  0
 27 28  1  6  0  0  0
 27 34  1  0  0  0  0
 29  2  1  6  0  0  0
 29 36  1  0  0  0  0
 30 38  1  6  0  0  0
 31 32  1  6  0  0  0
 31 40  1  0  0  0  0
 33 42  2  0  0  0  0
 34 35  1  0  0  0  0
 34 43  1  1  0  0  0
 36 37  1  1  0  0  0
 36 45  1  0  0  0  0
 38 39  1  0  0  0  0
 40 41  1  0  0  0  0
 40 48  1  6  0  0  0
 43 44  1  0  0  0  0
 45 46  1  1  0  0  0
 47 50  1  0  0  0  0
 48 49  1  0  0  0  0
 50 51  1  0  0  0  0
 51 52  1  0  0  0  0
 52  8  1  0  0  0  0
M  END
>  <CHROM.1>
122.35242096,-83.14647318,-164.33773943,79.22217444,75.81222230,40.97880499
-149.61494030,62.81845449,-172.47106397,173.26894653,66.06160048,178.87620701
94.50811272,-101.91212815,-177.18299705,40.40350102,4.71996761,-0.87180363
-0.46625486,-1.04413402,-2.28021628

>  <Name>
2be0_lig

>  <RI>
3.37048e+07

>  <Rbt.Current_Directory>
/home/itssahil/PROJECTS/Mol_Feturizer/New_Systems/rnas/2be0

>  <Rbt.Executable>
rbdock ($Id: //depot/dev/client3/rdock/2013.1/src/exe/rbdock.cxx#4 $)

>  <Rbt.Library>
libRbt.so (2013.1, Build901 2013/11/27)

>  <Rbt.Parameter_File>
/export/apps/rDock/src/rDock_2013.1_src/data/scripts/dock_solv.prm

>  <Rbt.Receptor>
prm/pocket_docking_8.prm

>  <SCORE>
-18.5451

>  <SCORE.INTER>
-5.08722

>  <SCORE.INTER.CONST>
1

>  <SCORE.INTER.POLAR>
0

>  <SCORE.INTER.ROT>
15

>  <SCORE.INTER.SOLV>
19.9456

>  <SCORE.INTER.VDW>
-23.64

>  <SCORE.INTER.norm>
-0.0978312

>  <SCORE.INTRA>
-13.4578

>  <SCORE.INTRA.DIHEDRAL>
-25.7826

>  <SCORE.INTRA.DIHEDRAL.0>
47.8724

>  <SCORE.INTRA.POLAR>
0

>  <SCORE.INTRA.POLAR.0>
0

>  <SCORE.INTRA.REPUL>
0

>  <SCORE.INTRA.REPUL.0>
0

>  <SCORE.INTRA.SOLV>
-2.25542

>  <SCORE.INTRA.SOLV.lig_0>
-115.677

>  <SCORE.INTRA.VDW>
0.56119

>  <SCORE.INTRA.VDW.0>
-7.4833

>  <SCORE.INTRA.norm>
-0.258805

>  <SCORE.RESTR>
0

>  <SCORE.RESTR.CAVITY>
0

>  <SCORE.RESTR.norm>
0

>  <SCORE.SYSTEM>
0

>  <SCORE.SYSTEM.CONST>
0

>  <SCORE.SYSTEM.DIHEDRAL>
0

>  <SCORE.SYSTEM.SOLV>
0

>  <SCORE.SYSTEM.norm>
0

>  <SCORE.heavy>
52

>  <SCORE.norm>
-0.356636

>  <RMSD>
8.763

$$$$
2be0_lig
 OpenBabel11021811423D
libRbt.so/2013.1/901 2013/11/27
 52 56  0  0  0  0  0  0  0  0999 V2000
   42.6229   -1.3750   -4.8599 C   0  0  2  0  0  0  0  0  0  0  0  0
   43.8703   -1.6608   -4.2723 O   0  0  0  0  0  0  0  0  0  0  0  0
   47.2844    0.6103   -2.6733 C   0  0  2  0  0  0  0  0  0  0  0  0
   48.2929    1.6972   -2.5282 N   0  0  0  0  0  0  0  0  0  0  0  0
   43.1171    1.3916   -1.4900 C   0  0  2  0  0  0  0  0  0  0  0  0
   41.7700    1.2155   -1.0053 O   0  0  0  0  0  0  0  0  0  0  0  0
   40.8831    4.5119   -4.3402 C   0  0  1  0  0  0  0  0  0  0  0  0
   40.4744    6.7891    2.5057 C   0  0  0  0  0  0  0  0  0  0  0  0
   41.7376   -2.6809   -4.9893 C   0  0  2  0  0  0  0  0  0  0  0  0
   41.6165   -3.3290   -3.6817 N   0  0  0  0  0  0  0  0  0  0  0  0
   47.3641    0.0177   -4.1535 C   0  0  0  0  0  0  0  0  0  0  0  0
   43.2066    2.8246   -2.0387 C   0  0  2  0  0  0  0  0  0  0  0  0
   43.5169    3.6442   -0.8266 O   0  0  0  0  0  0  0  0  0  0  0  0
   40.3172    6.0353   -4.3300 C   0  0  2  0  0  0  0  0  0  0  0  0
   39.1993    6.1259   -3.3362 N   0  0  0  0  0  0  0  0  0  0  0  0
   39.4784    6.0903    3.2635 C   0  0  0  0  0  0  0  0  0  0  0  0
   38.1469    6.5814    3.2967 N   0  0  0  0  0  0  0  0  0  0  0  0
   42.3754   -3.6562   -6.0837 C   0  0  1  0  0  0  0  0  0  0  0  0
   41.5722   -4.8224   -6.1789 O   0  0  0  0  0  0  0  0  0  0  0  0
   46.2615   -1.1706   -4.3587 C   0  0  2  0  0  0  0  0  0  0  0  0
   46.3245   -1.7139   -5.6862 N   0  0  0  0  0  0  0  0  0  0  0  0
   41.8127    2.9157   -2.6880 C   0  0  2  0  0  0  0  0  0  0  0  0
   41.3331    4.2139   -3.0063 O   0  0  0  0  0  0  0  0  0  0  0  0
   39.8131    6.3679   -5.7668 C   0  0  1  0  0  0  0  0  0  0  0  0
   40.9878    6.2647   -6.6481 O   0  0  0  0  0  0  0  0  0  0  0  0
   37.7367    7.7569    2.6053 C   0  0  0  0  0  0  0  0  0  0  0  0
   42.4549   -2.8953   -7.4390 C   0  0  2  0  0  0  0  0  0  0  0  0
   43.0445   -3.7511   -8.4969 O   0  0  0  0  0  0  0  0  0  0  0  0
   44.8067   -0.6067   -4.0846 C   0  0  2  0  0  0  0  0  0  0  0  0
   40.9079    2.1378   -1.7031 C   0  0  1  0  0  0  0  0  0  0  0  0
   38.6536    5.3154   -6.2070 C   0  0  2  0  0  0  0  0  0  0  0  0
   37.4763    5.4127   -5.3301 O   0  0  0  0  0  0  0  0  0  0  0  0
   38.6769    8.4888    1.8390 C   0  0  0  0  0  0  0  0  0  0  0  0
   43.3399   -1.5983   -7.2898 C   0  0  2  0  0  0  0  0  0  0  0  0
   42.7157   -0.8069   -6.2415 O   0  0  0  0  0  0  0  0  0  0  0  0
   44.7856   -0.0289   -2.6269 C   0  0  2  0  0  0  0  0  0  0  0  0
   43.4467    0.4312   -2.4882 O   0  0  0  0  0  0  0  0  0  0  0  0
   39.8489    1.3022   -2.4204 C   0  0  0  0  0  0  0  0  0  0  0  0
   39.0531    0.4907   -1.5901 O   0  0  0  0  0  0  0  0  0  0  0  0
   39.2381    3.8292   -6.1562 C   0  0  1  0  0  0  0  0  0  0  0  0
   39.7586    3.5652   -4.7584 O   0  0  0  0  0  0  0  0  0  0  0  0
   40.0799    8.0181    1.7729 C   0  0  0  0  0  0  0  0  0  0  0  0
   43.3601   -0.9127   -8.5919 C   0  0  0  0  0  0  0  0  0  0  0  0
   43.8982    0.3047   -8.4469 O   0  0  0  0  0  0  0  0  0  0  0  0
   45.8455    1.1416   -2.4719 C   0  0  1  0  0  0  0  0  0  0  0  0
   45.8217    1.6356   -1.1731 O   0  0  0  0  0  0  0  0  0  0  0  0
   43.8043    5.0960   -0.7488 C   0  0  0  0  0  0  0  0  0  0  0  0
   38.0888    2.8719   -6.5735 C   0  0  0  0  0  0  0  0  0  0  0  0
   38.5025    1.4966   -6.4461 N   0  0  0  0  0  0  0  0  0  0  0  0
   43.7253    5.4951    0.7283 C   0  0  0  0  0  0  0  0  0  0  0  0
   42.3014    5.4187    1.1902 N   0  0  0  0  0  0  0  0  0  0  0  0
   41.9725    6.2098    2.4849 C   0  0  0  0  0  0  0  0  0  0  0  0
  1  2  1  6  0  0  0
  1  9  1  0  0  0  0
  1 35  1  0  0  0  0
  3  4  1  6  0  0  0
  3 11  1  0  0  0  0
  3 45  1  0  0  0  0
  5  6  1  0  0  0  0
  5 12  1  0  0  0  0
  5 37  1  6  0  0  0
  6 30  1  0  0  0  0
  7 14  1  0  0  0  0
  7 41  1  0  0  0  0
  7 23  1  1  0  0  0
  8 16  2  0  0  0  0
  8 42  1  0  0  0  0
  9 10  1  1  0  0  0
  9 18  1  0  0  0  0
 11 20  1  0  0  0  0
 12 13  1  1  0  0  0
 12 22  1  0  0  0  0
 13 47  1  0  0  0  0
 14 15  1  1  0  0  0
 14 24  1  0  0  0  0
 16 17  1  0  0  0  0
 17 26  2  0  0  0  0
 18 19  1  6  0  0  0
 18 27  1  0  0  0  0
 20 21  1  6  0  0  0
 20 29  1  0  0  0  0
 22 23  1  1  0  0  0
 22 30  1  0  0  0  0
 24 25  1  6  0  0  0
 24 31  1  0  0  0  0
 26 33  1  0  0  0  0
 27 28  1  6  0  0  0
 27 34  1  0  0  0  0
 29  2  1  1  0  0  0
 29 36  1  0  0  0  0
 30 38  1  6  0  0  0
 31 32  1  1  0  0  0
 31 40  1  0  0  0  0
 33 42  2  0  0  0  0
 34 35  1  0  0  0  0
 34 43  1  6  0  0  0
 36 37  1  6  0  0  0
 36 45  1  0  0  0  0
 38 39  1  0  0  0  0
 40 41  1  0  0  0  0
 40 48  1  1  0  0  0
 43 44  1  0  0  0  0
 45 46  1  1  0  0  0
 47 50  1  0  0  0  0
 48 49  1  0  0  0  0
 50 51  1  0  0  0  0
 51 52  1  0  0  0  0
 52  8  1  0  0  0  0
M  END
>  <CHROM.1>
179.51659615,-148.74916549,176.35546215,175.70670513,166.81431955,126.45947025
-142.70648262,59.24215070,169.10952272,-159.99859393,-175.20823030,-69.43667236
-160.95500253,147.81166549,100.83692667,42.05789442,2.11144334,-3.26281408
1.15562820,0.61915861,-2.22921901

>  <Name>
2be0_lig

>  <RI>
0

>  <Rbt.Current_Directory>
/home/itssahil/PROJECTS/Mol_Feturizer/New_Systems/rnas/2be0

>  <Rbt.Executable>
rbdock ($Id: //depot/dev/client3/rdock/2013.1/src/exe/rbdock.cxx#4 $)

>  <Rbt.Library>
libRbt.so (2013.1, Build901 2013/11/27)

>  <Rbt.Parameter_File>
/export/apps/rDock/src/rDock_2013.1_src/data/scripts/dock_solv.prm

>  <Rbt.Receptor>
prm/pocket_docking_6.prm

>  <SCORE>
-19.8611

>  <SCORE.INTER>
-6.87343

>  <SCORE.INTER.CONST>
1

>  <SCORE.INTER.POLAR>
0

>  <SCORE.INTER.ROT>
15

>  <SCORE.INTER.SOLV>
22.4669

>  <SCORE.INTER.VDW>
-25.6713

>  <SCORE.INTER.norm>
-0.132181

>  <SCORE.INTRA>
-12.9877

>  <SCORE.INTRA.DIHEDRAL>
-26.3462

>  <SCORE.INTRA.DIHEDRAL.0>
47.8724

>  <SCORE.INTRA.POLAR>
0

>  <SCORE.INTRA.POLAR.0>
0

>  <SCORE.INTRA.REPUL>
0

>  <SCORE.INTRA.REPUL.0>
0

>  <SCORE.INTRA.SOLV>
-2.77824

>  <SCORE.INTRA.SOLV.lig_0>
-115.677

>  <SCORE.INTRA.VDW>
1.57453

>  <SCORE.INTRA.VDW.0>
-7.4833

>  <SCORE.INTRA.norm>
-0.249763

>  <SCORE.RESTR>
0

>  <SCORE.RESTR.CAVITY>
0

>  <SCORE.RESTR.norm>
0

>  <SCORE.SYSTEM>
0

>  <SCORE.SYSTEM.CONST>
0

>  <SCORE.SYSTEM.DIHEDRAL>
0

>  <SCORE.SYSTEM.SOLV>
0

>  <SCORE.SYSTEM.norm>
0

>  <SCORE.heavy>
52

>  <SCORE.norm>
-0.381945

>  <RMSD>
8.764

$$$$
2be0_lig
 OpenBabel11021811423D
libRbt.so/2013.1/901 2013/11/27
 52 56  0  0  0  0  0  0  0  0999 V2000
   44.6353    1.2881   -5.0938 C   0  0  2  0  0  0  0  0  0  0  0  0
   45.2699    2.4509   -4.6165 O   0  0  0  0  0  0  0  0  0  0  0  0
   45.2727    6.6181   -6.0326 C   0  0  2  0  0  0  0  0  0  0  0  0
   44.7547    7.9267   -6.5214 N   0  0  0  0  0  0  0  0  0  0  0  0
   43.5276    5.0337   -2.3991 C   0  0  2  0  0  0  0  0  0  0  0  0
   43.3318    4.8211   -0.9860 O   0  0  0  0  0  0  0  0  0  0  0  0
   40.8012    1.5210   -3.4872 C   0  0  1  0  0  0  0  0  0  0  0  0
   38.2008    9.1636    0.6126 C   0  0  0  0  0  0  0  0  0  0  0  0
   44.5952    0.1602   -3.9838 C   0  0  2  0  0  0  0  0  0  0  0  0
   43.9780    0.6866   -2.7646 N   0  0  0  0  0  0  0  0  0  0  0  0
   44.7744    5.4601   -7.0119 C   0  0  0  0  0  0  0  0  0  0  0  0
   42.3645    4.3317   -3.1180 C   0  0  2  0  0  0  0  0  0  0  0  0
   41.2729    5.3541   -3.0976 O   0  0  0  0  0  0  0  0  0  0  0  0
   40.6894    2.5342   -4.7530 C   0  0  2  0  0  0  0  0  0  0  0  0
   39.5802    3.5077   -4.4926 N   0  0  0  0  0  0  0  0  0  0  0  0
   38.1154   10.5158    0.1444 C   0  0  0  0  0  0  0  0  0  0  0  0
   37.9841   11.5765    1.0786 N   0  0  0  0  0  0  0  0  0  0  0  0
   46.0743   -0.3852   -3.7182 C   0  0  1  0  0  0  0  0  0  0  0  0
   46.0174   -1.3885   -2.7161 O   0  0  0  0  0  0  0  0  0  0  0  0
   45.3107    4.0034   -6.5017 C   0  0  2  0  0  0  0  0  0  0  0  0
   44.8709    2.9528   -7.3758 N   0  0  0  0  0  0  0  0  0  0  0  0
   42.2577    3.0800   -2.2265 C   0  0  2  0  0  0  0  0  0  0  0  0
   41.0607    2.3218   -2.3201 O   0  0  0  0  0  0  0  0  0  0  0  0
   40.3945    1.6812   -6.0237 C   0  0  1  0  0  0  0  0  0  0  0  0
   41.5471    0.7805   -6.1900 O   0  0  0  0  0  0  0  0  0  0  0  0
   37.9294   11.3676    2.4862 C   0  0  0  0  0  0  0  0  0  0  0  0
   46.6473   -0.9349   -5.0567 C   0  0  2  0  0  0  0  0  0  0  0  0
   48.0245   -1.4534   -4.8738 O   0  0  0  0  0  0  0  0  0  0  0  0
   44.7898    3.7238   -5.0320 C   0  0  2  0  0  0  0  0  0  0  0  0
   42.5436    3.6264   -0.8074 C   0  0  1  0  0  0  0  0  0  0  0  0
   39.0162    0.8412   -5.8224 C   0  0  2  0  0  0  0  0  0  0  0  0
   37.8598    1.7352   -5.6551 O   0  0  0  0  0  0  0  0  0  0  0  0
   38.0102   10.0529    3.0079 C   0  0  0  0  0  0  0  0  0  0  0  0
   46.6787    0.2023   -6.1491 C   0  0  2  0  0  0  0  0  0  0  0  0
   45.3078    0.6695   -6.2793 O   0  0  0  0  0  0  0  0  0  0  0  0
   45.2958    4.8916   -4.1159 C   0  0  2  0  0  0  0  0  0  0  0  0
   44.7870    4.5337   -2.8367 O   0  0  0  0  0  0  0  0  0  0  0  0
   43.3804    2.6615    0.0310 C   0  0  0  0  0  0  0  0  0  0  0  0
   42.7843    1.4137    0.2936 O   0  0  0  0  0  0  0  0  0  0  0  0
   39.1523   -0.1039   -4.5413 C   0  0  1  0  0  0  0  0  0  0  0  0
   39.4847    0.7585   -3.3412 O   0  0  0  0  0  0  0  0  0  0  0  0
   38.1472    8.9111    2.0743 C   0  0  0  0  0  0  0  0  0  0  0  0
   47.2073   -0.3805   -7.3930 C   0  0  0  0  0  0  0  0  0  0  0  0
   47.3852    0.5888   -8.2994 O   0  0  0  0  0  0  0  0  0  0  0  0
   44.7322    6.2859   -4.6216 C   0  0  1  0  0  0  0  0  0  0  0  0
   45.1976    7.3108   -3.8064 O   0  0  0  0  0  0  0  0  0  0  0  0
   40.6971    6.0594   -1.9283 C   0  0  0  0  0  0  0  0  0  0  0  0
   37.8091   -0.8690   -4.3933 C   0  0  0  0  0  0  0  0  0  0  0  0
   37.8488   -1.7474   -3.2507 N   0  0  0  0  0  0  0  0  0  0  0  0
   39.7364    7.1235   -2.4689 C   0  0  0  0  0  0  0  0  0  0  0  0
   39.5446    8.1930   -1.4364 N   0  0  0  0  0  0  0  0  0  0  0  0
   38.3504    7.9835   -0.4669 C   0  0  0  0  0  0  0  0  0  0  0  0
  1  2  1  1  0  0  0
  1  9  1  0  0  0  0
  1 35  1  0  0  0  0
  3  4  1  6  0  0  0
  3 11  1  0  0  0  0
  3 45  1  0  0  0  0
  5  6  1  0  0  0  0
  5 12  1  0  0  0  0
  5 37  1  6  0  0  0
  6 30  1  0  0  0  0
  7 14  1  0  0  0  0
  7 41  1  0  0  0  0
  7 23  1  1  0  0  0
  8 16  2  0  0  0  0
  8 42  1  0  0  0  0
  9 10  1  1  0  0  0
  9 18  1  0  0  0  0
 11 20  1  0  0  0  0
 12 13  1  1  0  0  0
 12 22  1  0  0  0  0
 13 47  1  0  0  0  0
 14 15  1  1  0  0  0
 14 24  1  0  0  0  0
 16 17  1  0  0  0  0
 17 26  2  0  0  0  0
 18 19  1  1  0  0  0
 18 27  1  0  0  0  0
 20 21  1  6  0  0  0
 20 29  1  0  0  0  0
 22 23  1  1  0  0  0
 22 30  1  0  0  0  0
 24 25  1  1  0  0  0
 24 31  1  0  0  0  0
 26 33  1  0  0  0  0
 27 28  1  1  0  0  0
 27 34  1  0  0  0  0
 29  2  1  1  0  0  0
 29 36  1  0  0  0  0
 30 38  1  1  0  0  0
 31 32  1  1  0  0  0
 31 40  1  0  0  0  0
 33 42  2  0  0  0  0
 34 35  1  0  0  0  0
 34 43  1  6  0  0  0
 36 37  1  1  0  0  0
 36 45  1  0  0  0  0
 38 39  1  0  0  0  0
 40 41  1  0  0  0  0
 40 48  1  1  0  0  0
 43 44  1  0  0  0  0
 45 46  1  1  0  0  0
 47 50  1  0  0  0  0
 48 49  1  0  0  0  0
 50 51  1  0  0  0  0
 51 52  1  0  0  0  0
 52  8  1  0  0  0  0
M  END
>  <CHROM.1>
-143.86960384,-166.54672360,-63.14157820,-55.05135939,173.02928562,72.38756111
-77.74802265,-178.83190217,-173.30191361,-92.95450366,-179.87404838,-157.85301189
-91.64486183,-179.98735167,54.11674813,42.45615499,3.56323959,-3.46191019
-0.95556733,0.39779679,0.34236702

>  <Name>
2be0_lig

>  <RI>
3.37048e+07

>  <Rbt.Current_Directory>
/home/itssahil/PROJECTS/Mol_Feturizer/New_Systems/rnas/2be0

>  <Rbt.Executable>
rbdock ($Id: //depot/dev/client3/rdock/2013.1/src/exe/rbdock.cxx#4 $)

>  <Rbt.Library>
libRbt.so (2013.1, Build901 2013/11/27)

>  <Rbt.Parameter_File>
/export/apps/rDock/src/rDock_2013.1_src/data/scripts/dock_solv.prm

>  <Rbt.Receptor>
prm/pocket_docking_8.prm

>  <SCORE>
-15.2524

>  <SCORE.INTER>
-3.88345

>  <SCORE.INTER.CONST>
1

>  <SCORE.INTER.POLAR>
-1.058

>  <SCORE.INTER.ROT>
15

>  <SCORE.INTER.SOLV>
11.7726

>  <SCORE.INTER.VDW>
-16.5865

>  <SCORE.INTER.norm>
-0.0746816

>  <SCORE.INTRA>
-11.3689

>  <SCORE.INTRA.DIHEDRAL>
-31.8866

>  <SCORE.INTRA.DIHEDRAL.0>
47.8724

>  <SCORE.INTRA.POLAR>
0

>  <SCORE.INTRA.POLAR.0>
0

>  <SCORE.INTRA.REPUL>
0

>  <SCORE.INTRA.REPUL.0>
0

>  <SCORE.INTRA.SOLV>
5.94541

>  <SCORE.INTRA.SOLV.lig_0>
-115.677

>  <SCORE.INTRA.VDW>
1.60169

>  <SCORE.INTRA.VDW.0>
-7.4833

>  <SCORE.INTRA.norm>
-0.218633

>  <SCORE.RESTR>
0

>  <SCORE.RESTR.CAVITY>
0

>  <SCORE.RESTR.norm>
0

>  <SCORE.SYSTEM>
0

>  <SCORE.SYSTEM.CONST>
0

>  <SCORE.SYSTEM.DIHEDRAL>
0

>  <SCORE.SYSTEM.SOLV>
0

>  <SCORE.SYSTEM.norm>
0

>  <SCORE.heavy>
52

>  <SCORE.norm>
-0.293315

>  <RMSD>
8.774

$$$$
2be0_lig
 OpenBabel11021811423D
libRbt.so/2013.1/901 2013/11/27
 52 56  0  0  0  0  0  0  0  0999 V2000
   41.3113    0.4479   -4.8620 C   0  0  2  0  0  0  0  0  0  0  0  0
   41.6764    0.6292   -6.2099 O   0  0  0  0  0  0  0  0  0  0  0  0
   42.1418    3.9959   -9.0062 C   0  0  2  0  0  0  0  0  0  0  0  0
   41.8924    5.3096   -9.6632 N   0  0  0  0  0  0  0  0  0  0  0  0
   44.3005    3.5750   -5.0540 C   0  0  2  0  0  0  0  0  0  0  0  0
   45.2755    2.6793   -4.4819 O   0  0  0  0  0  0  0  0  0  0  0  0
   43.0244    5.1206   -0.9461 C   0  0  1  0  0  0  0  0  0  0  0  0
   45.5689    9.7635   -8.5103 C   0  0  0  0  0  0  0  0  0  0  0  0
   41.6775   -1.0079   -4.3598 C   0  0  2  0  0  0  0  0  0  0  0  0
   43.0960   -1.2750   -4.6069 N   0  0  0  0  0  0  0  0  0  0  0  0
   40.7999    3.1318   -9.0396 C   0  0  0  0  0  0  0  0  0  0  0  0
   43.9898    4.6337   -3.9838 C   0  0  2  0  0  0  0  0  0  0  0  0
   45.0665    5.6536   -4.1781 O   0  0  0  0  0  0  0  0  0  0  0  0
   43.0186    6.5595   -1.7017 C   0  0  2  0  0  0  0  0  0  0  0  0
   44.3296    7.2401   -1.4489 N   0  0  0  0  0  0  0  0  0  0  0  0
   46.7486    9.2200   -9.1168 C   0  0  0  0  0  0  0  0  0  0  0  0
   47.7864   10.0909   -9.5405 N   0  0  0  0  0  0  0  0  0  0  0  0
   40.7330   -2.0782   -5.0796 C   0  0  1  0  0  0  0  0  0  0  0  0
   41.0821   -3.3754   -4.6220 O   0  0  0  0  0  0  0  0  0  0  0  0
   41.0277    1.6854   -8.3145 C   0  0  2  0  0  0  0  0  0  0  0  0
   39.8280    0.8971   -8.3399 N   0  0  0  0  0  0  0  0  0  0  0  0
   44.0117    3.7250   -2.7402 C   0  0  2  0  0  0  0  0  0  0  0  0
   44.1268    4.3633   -1.4769 O   0  0  0  0  0  0  0  0  0  0  0  0
   41.8367    7.3970   -1.1265 C   0  0  1  0  0  0  0  0  0  0  0  0
   40.6099    6.6477   -1.4443 O   0  0  0  0  0  0  0  0  0  0  0  0
   47.7189   11.5059   -9.3951 C   0  0  0  0  0  0  0  0  0  0  0  0
   39.2515   -1.7286   -4.7553 C   0  0  2  0  0  0  0  0  0  0  0  0
   38.3238   -2.6882   -5.4016 O   0  0  0  0  0  0  0  0  0  0  0  0
   41.4881    1.9030   -6.8145 C   0  0  2  0  0  0  0  0  0  0  0  0
   45.1558    2.7290   -3.0452 C   0  0  1  0  0  0  0  0  0  0  0  0
   42.0144    7.5798    0.4800 C   0  0  2  0  0  0  0  0  0  0  0  0
   43.2389    8.3277    0.8051 O   0  0  0  0  0  0  0  0  0  0  0  0
   46.5781   12.1004   -8.8017 C   0  0  0  0  0  0  0  0  0  0  0  0
   38.9062   -0.2757   -5.2625 C   0  0  2  0  0  0  0  0  0  0  0  0
   39.8471    0.6133   -4.5996 O   0  0  0  0  0  0  0  0  0  0  0  0
   42.7991    2.7632   -6.8375 C   0  0  2  0  0  0  0  0  0  0  0  0
   43.1234    2.8829   -5.4578 O   0  0  0  0  0  0  0  0  0  0  0  0
   44.8350    1.3111   -2.5754 C   0  0  0  0  0  0  0  0  0  0  0  0
   44.2814    1.2113   -1.2851 O   0  0  0  0  0  0  0  0  0  0  0  0
   42.0638    6.1425    1.1760 C   0  0  1  0  0  0  0  0  0  0  0  0
   43.1939    5.3470    0.5558 O   0  0  0  0  0  0  0  0  0  0  0  0
   45.4667   11.2348   -8.3435 C   0  0  0  0  0  0  0  0  0  0  0  0
   37.5051    0.0050   -4.9099 C   0  0  0  0  0  0  0  0  0  0  0  0
   36.7011   -0.4535   -5.8774 O   0  0  0  0  0  0  0  0  0  0  0  0
   42.5345    4.1708   -7.5201 C   0  0  1  0  0  0  0  0  0  0  0  0
   43.7071    4.9165   -7.5421 O   0  0  0  0  0  0  0  0  0  0  0  0
   44.9242    7.0760   -4.5690 C   0  0  0  0  0  0  0  0  0  0  0  0
   42.2449    6.3789    2.7001 C   0  0  0  0  0  0  0  0  0  0  0  0
   41.0917    7.0467    3.2505 N   0  0  0  0  0  0  0  0  0  0  0  0
   44.5732    7.1034   -6.0601 C   0  0  0  0  0  0  0  0  0  0  0  0
   44.3924    8.5235   -6.5041 N   0  0  0  0  0  0  0  0  0  0  0  0
   44.4113    8.7544   -8.0392 C   0  0  0  0  0  0  0  0  0  0  0  0
  1  2  1  6  0  0  0
  1  9  1  0  0  0  0
  1 35  1  0  0  0  0
  3  4  1  1  0  0  0
  3 11  1  0  0  0  0
  3 45  1  0  0  0  0
  5  6  1  0  0  0  0
  5 12  1  0  0  0  0
  5 37  1  1  0  0  0
  6 30  1  0  0  0  0
  7 14  1  0  0  0  0
  7 41  1  0  0  0  0
  7 23  1  6  0  0  0
  8 16  2  0  0  0  0
  8 42  1  0  0  0  0
  9 10  1  6  0  0  0
  9 18  1  0  0  0  0
 11 20  1  0  0  0  0
 12 13  1  1  0  0  0
 12 22  1  0  0  0  0
 13 47  1  0  0  0  0
 14 15  1  1  0  0  0
 14 24  1  0  0  0  0
 16 17  1  0  0  0  0
 17 26  2  0  0  0  0
 18 19  1  1  0  0  0
 18 27  1  0  0  0  0
 20 21  1  1  0  0  0
 20 29  1  0  0  0  0
 22 23  1  1  0  0  0
 22 30  1  0  0  0  0
 24 25  1  1  0  0  0
 24 31  1  0  0  0  0
 26 33  1  0  0  0  0
 27 28  1  6  0  0  0
 27 34  1  0  0  0  0
 29  2  1  6  0  0  0
 29 36  1  0  0  0  0
 30 38  1  6  0  0  0
 31 32  1  6  0  0  0
 31 40  1  0  0  0  0
 33 42  2  0  0  0  0
 34 35  1  0  0  0  0
 34 43  1  1  0  0  0
 36 37  1  1  0  0  0
 36 45  1  0  0  0  0
 38 39  1  0  0  0  0
 40 41  1  0  0  0  0
 40 48  1  1  0  0  0
 43 44  1  0  0  0  0
 45 46  1  6  0  0  0
 47 50  1  0  0  0  0
 48 49  1  0  0  0  0
 50 51  1  0  0  0  0
 51 52  1  0  0  0  0
 52  8  1  0  0  0  0
M  END
>  <CHROM.1>
-176.69722769,-111.97698764,-78.44784839,117.47177714,-73.76802777,70.91142676
-142.68374800,-161.25855277,-86.55631474,177.98492231,64.96393651,178.96938673
164.23523551,-120.86867347,103.18522741,42.75833746,4.13967610,-4.64158614
-3.04882821,1.08578905,1.35379395

>  <Name>
2be0_lig

>  <RI>
2.10017e+07

>  <Rbt.Current_Directory>
/home/itssahil/PROJECTS/Mol_Feturizer/New_Systems/rnas/2be0

>  <Rbt.Executable>
rbdock ($Id: //depot/dev/client3/rdock/2013.1/src/exe/rbdock.cxx#4 $)

>  <Rbt.Library>
libRbt.so (2013.1, Build901 2013/11/27)

>  <Rbt.Parameter_File>
/export/apps/rDock/src/rDock_2013.1_src/data/scripts/dock_solv.prm

>  <Rbt.Receptor>
prm/pocket_docking_3.prm

>  <SCORE>
-22.5767

>  <SCORE.INTER>
-14.9711

>  <SCORE.INTER.CONST>
1

>  <SCORE.INTER.POLAR>
-1.8529

>  <SCORE.INTER.ROT>
15

>  <SCORE.INTER.SOLV>
16.9471

>  <SCORE.INTER.VDW>
-23.0535

>  <SCORE.INTER.norm>
-0.287907

>  <SCORE.INTRA>
-9.17004

>  <SCORE.INTRA.DIHEDRAL>
-20.577

>  <SCORE.INTRA.DIHEDRAL.0>
47.8724

>  <SCORE.INTRA.POLAR>
0

>  <SCORE.INTRA.POLAR.0>
0

>  <SCORE.INTRA.REPUL>
0

>  <SCORE.INTRA.REPUL.0>
0

>  <SCORE.INTRA.SOLV>
0.583184

>  <SCORE.INTRA.SOLV.lig_0>
-115.677

>  <SCORE.INTRA.VDW>
0.826851

>  <SCORE.INTRA.VDW.0>
-7.4833

>  <SCORE.INTRA.norm>
-0.176347

>  <SCORE.RESTR>
1.56445

>  <SCORE.RESTR.CAVITY>
1.56445

>  <SCORE.RESTR.norm>
0.0300856

>  <SCORE.SYSTEM>
0

>  <SCORE.SYSTEM.CONST>
0

>  <SCORE.SYSTEM.DIHEDRAL>
0

>  <SCORE.SYSTEM.SOLV>
0

>  <SCORE.SYSTEM.norm>
0

>  <SCORE.heavy>
52

>  <SCORE.norm>
-0.434168

>  <RMSD>
8.791

$$$$
2be0_lig
 OpenBabel11021811423D
libRbt.so/2013.1/901 2013/11/27
 52 56  0  0  0  0  0  0  0  0999 V2000
   42.0827    4.7295   -2.1671 C   0  0  2  0  0  0  0  0  0  0  0  0
   42.5388    5.7488   -3.0249 O   0  0  0  0  0  0  0  0  0  0  0  0
   45.7312    5.7286   -6.0546 C   0  0  2  0  0  0  0  0  0  0  0  0
   47.1000    5.6697   -6.6397 N   0  0  0  0  0  0  0  0  0  0  0  0
   42.3720    2.6393   -4.2199 C   0  0  2  0  0  0  0  0  0  0  0  0
   42.3324    1.3595   -3.5560 O   0  0  0  0  0  0  0  0  0  0  0  0
   43.6909   -0.9044   -7.1620 C   0  0  1  0  0  0  0  0  0  0  0  0
   39.8270    0.3027   -0.9731 C   0  0  0  0  0  0  0  0  0  0  0  0
   40.5989    5.0041   -1.6887 C   0  0  2  0  0  0  0  0  0  0  0  0
   39.7315    5.2003   -2.8522 N   0  0  0  0  0  0  0  0  0  0  0  0
   45.6664    6.9210   -4.9953 C   0  0  0  0  0  0  0  0  0  0  0  0
   42.2152    2.3633   -5.7238 C   0  0  2  0  0  0  0  0  0  0  0  0
   40.7332    2.2911   -5.9133 O   0  0  0  0  0  0  0  0  0  0  0  0
   45.2425   -0.4298   -7.2533 C   0  0  2  0  0  0  0  0  0  0  0  0
   45.3873    0.5207   -8.4028 N   0  0  0  0  0  0  0  0  0  0  0  0
   39.1731   -0.0230    0.2602 C   0  0  0  0  0  0  0  0  0  0  0  0
   39.6913    0.4757    1.4840 N   0  0  0  0  0  0  0  0  0  0  0  0
   40.5758    6.2647   -0.7059 C   0  0  1  0  0  0  0  0  0  0  0  0
   39.2376    6.4984   -0.2951 O   0  0  0  0  0  0  0  0  0  0  0  0
   44.1819    7.0107   -4.3185 C   0  0  2  0  0  0  0  0  0  0  0  0
   44.1098    8.0815   -3.3648 N   0  0  0  0  0  0  0  0  0  0  0  0
   43.0621    1.0800   -5.8173 C   0  0  2  0  0  0  0  0  0  0  0  0
   42.8921    0.2781   -6.9769 O   0  0  0  0  0  0  0  0  0  0  0  0
   46.1195   -1.7003   -7.4677 C   0  0  1  0  0  0  0  0  0  0  0  0
   45.9127   -2.5468   -6.2811 O   0  0  0  0  0  0  0  0  0  0  0  0
   40.8514    1.2984    1.5568 C   0  0  0  0  0  0  0  0  0  0  0  0
   41.5094    5.9672    0.5033 C   0  0  2  0  0  0  0  0  0  0  0  0
   41.5324    7.1068    1.4518 O   0  0  0  0  0  0  0  0  0  0  0  0
   43.8330    5.6401   -3.6049 C   0  0  2  0  0  0  0  0  0  0  0  0
   42.7430    0.3438   -4.4944 C   0  0  1  0  0  0  0  0  0  0  0  0
   45.6615   -2.4696   -8.8257 C   0  0  2  0  0  0  0  0  0  0  0  0
   45.8650   -1.6292  -10.0160 O   0  0  0  0  0  0  0  0  0  0  0  0
   41.5393    1.6545    0.3706 C   0  0  0  0  0  0  0  0  0  0  0  0
   42.9817    5.6960    0.0069 C   0  0  2  0  0  0  0  0  0  0  0  0
   42.8921    4.5768   -0.9174 O   0  0  0  0  0  0  0  0  0  0  0  0
   43.9213    4.5047   -4.6830 C   0  0  2  0  0  0  0  0  0  0  0  0
   43.5811    3.3385   -3.9430 O   0  0  0  0  0  0  0  0  0  0  0  0
   43.9708   -0.3431   -3.8988 C   0  0  0  0  0  0  0  0  0  0  0  0
   43.7404   -1.0835   -2.7241 O   0  0  0  0  0  0  0  0  0  0  0  0
   44.1200   -2.8744   -8.7129 C   0  0  1  0  0  0  0  0  0  0  0  0
   43.3111   -1.6191   -8.4584 O   0  0  0  0  0  0  0  0  0  0  0  0
   41.0389    1.1586   -0.9325 C   0  0  0  0  0  0  0  0  0  0  0  0
   43.8095    5.4009    1.1874 C   0  0  0  0  0  0  0  0  0  0  0  0
   44.4539    6.5107    1.5692 O   0  0  0  0  0  0  0  0  0  0  0  0
   45.3823    4.4259   -5.2966 C   0  0  1  0  0  0  0  0  0  0  0  0
   45.4413    3.4228   -6.2567 O   0  0  0  0  0  0  0  0  0  0  0  0
   39.7776    1.3256   -5.3208 C   0  0  0  0  0  0  0  0  0  0  0  0
   43.7381   -3.5920  -10.0361 C   0  0  0  0  0  0  0  0  0  0  0  0
   44.4451   -4.8426  -10.1573 N   0  0  0  0  0  0  0  0  0  0  0  0
   39.5091    1.7786   -3.8821 C   0  0  0  0  0  0  0  0  0  0  0  0
   38.5612    0.8206   -3.2261 N   0  0  0  0  0  0  0  0  0  0  0  0
   39.2178   -0.2743   -2.3429 C   0  0  0  0  0  0  0  0  0  0  0  0
  1  2  1  1  0  0  0
  1  9  1  0  0  0  0
  1 35  1  0  0  0  0
  3  4  1  1  0  0  0
  3 11  1  0  0  0  0
  3 45  1  0  0  0  0
  5  6  1  0  0  0  0
  5 12  1  0  0  0  0
  5 37  1  6  0  0  0
  6 30  1  0  0  0  0
  7 14  1  0  0  0  0
  7 41  1  0  0  0  0
  7 23  1  6  0  0  0
  8 16  2  0  0  0  0
  8 42  1  0  0  0  0
  9 10  1  6  0  0  0
  9 18  1  0  0  0  0
 11 20  1  0  0  0  0
 12 13  1  1  0  0  0
 12 22  1  0  0  0  0
 13 47  1  0  0  0  0
 14 15  1  6  0  0  0
 14 24  1  0  0  0  0
 16 17  1  0  0  0  0
 17 26  2  0  0  0  0
 18 19  1  1  0  0  0
 18 27  1  0  0  0  0
 20 21  1  1  0  0  0
 20 29  1  0  0  0  0
 22 23  1  6  0  0  0
 22 30  1  0  0  0  0
 24 25  1  1  0  0  0
 24 31  1  0  0  0  0
 26 33  1  0  0  0  0
 27 28  1  1  0  0  0
 27 34  1  0  0  0  0
 29  2  1  6  0  0  0
 29 36  1  0  0  0  0
 30 38  1  1  0  0  0
 31 32  1  6  0  0  0
 31 40  1  0  0  0  0
 33 42  2  0  0  0  0
 34 35  1  0  0  0  0
 34 43  1  1  0  0  0
 36 37  1  1  0  0  0
 36 45  1  0  0  0  0
 38 39  1  0  0  0  0
 40 41  1  0  0  0  0
 40 48  1  6  0  0  0
 43 44  1  0  0  0  0
 45 46  1  6  0  0  0
 47 50  1  0  0  0  0
 48 49  1  0  0  0  0
 50 51  1  0  0  0  0
 51 52  1  0  0  0  0
 52  8  1  0  0  0  0
M  END
>  <CHROM.1>
-177.14211860,168.82747485,-62.37519461,-62.43475708,79.01409606,177.28909762
-170.77185167,66.47468154,-97.34140415,113.02011380,66.07471844,-179.11331970
97.27939754,71.30848491,109.45743411,42.85557479,2.29002675,-3.96029525,-1.97290823
-0.83987536,-2.60235209

>  <Name>
2be0_lig

>  <RI>
3.37048e+07

>  <Rbt.Current_Directory>
/home/itssahil/PROJECTS/Mol_Feturizer/New_Systems/rnas/2be0

>  <Rbt.Executable>
rbdock ($Id: //depot/dev/client3/rdock/2013.1/src/exe/rbdock.cxx#4 $)

>  <Rbt.Library>
libRbt.so (2013.1, Build901 2013/11/27)

>  <Rbt.Parameter_File>
/export/apps/rDock/src/rDock_2013.1_src/data/scripts/dock_solv.prm

>  <Rbt.Receptor>
prm/pocket_docking_8.prm

>  <SCORE>
-15.2446

>  <SCORE.INTER>
0.516227

>  <SCORE.INTER.CONST>
1

>  <SCORE.INTER.POLAR>
-0.633155

>  <SCORE.INTER.ROT>
15

>  <SCORE.INTER.SOLV>
11.8528

>  <SCORE.INTER.VDW>
-15.0963

>  <SCORE.INTER.norm>
0.00992745

>  <SCORE.INTRA>
-15.7608

>  <SCORE.INTRA.DIHEDRAL>
-32.0948

>  <SCORE.INTRA.DIHEDRAL.0>
47.8724

>  <SCORE.INTRA.POLAR>
0

>  <SCORE.INTRA.POLAR.0>
0

>  <SCORE.INTRA.REPUL>
0

>  <SCORE.INTRA.REPUL.0>
0

>  <SCORE.INTRA.SOLV>
-1.09891

>  <SCORE.INTRA.SOLV.lig_0>
-115.677

>  <SCORE.INTRA.VDW>
0.836053

>  <SCORE.INTRA.VDW.0>
-7.4833

>  <SCORE.INTRA.norm>
-0.303092

>  <SCORE.RESTR>
0

>  <SCORE.RESTR.CAVITY>
0

>  <SCORE.RESTR.norm>
0

>  <SCORE.SYSTEM>
0

>  <SCORE.SYSTEM.CONST>
0

>  <SCORE.SYSTEM.DIHEDRAL>
0

>  <SCORE.SYSTEM.SOLV>
0

>  <SCORE.SYSTEM.norm>
0

>  <SCORE.heavy>
52

>  <SCORE.norm>
-0.293165

>  <RMSD>
8.795

$$$$
2be0_lig
 OpenBabel11021811423D
libRbt.so/2013.1/901 2013/11/27
 52 56  0  0  0  0  0  0  0  0999 V2000
   44.0097    5.2733   -7.1475 C   0  0  2  0  0  0  0  0  0  0  0  0
   44.6464    4.0177   -7.1184 O   0  0  0  0  0  0  0  0  0  0  0  0
   48.9283    3.9840   -8.1358 C   0  0  2  0  0  0  0  0  0  0  0  0
   50.1785    3.7272   -8.9043 N   0  0  0  0  0  0  0  0  0  0  0  0
   44.9463    6.9652   -8.1098 C   0  0  2  0  0  0  0  0  0  0  0  0
   44.0724    7.6818   -9.0060 O   0  0  0  0  0  0  0  0  0  0  0  0
   47.4069   10.8923   -9.4010 C   0  0  1  0  0  0  0  0  0  0  0  0
   42.3775    7.9635   -1.3851 C   0  0  0  0  0  0  0  0  0  0  0  0
   43.1541    5.5128   -5.8374 C   0  0  2  0  0  0  0  0  0  0  0  0
   43.9974    5.3288   -4.6544 N   0  0  0  0  0  0  0  0  0  0  0  0
   48.1724    2.5996   -7.8897 C   0  0  0  0  0  0  0  0  0  0  0  0
   45.8608    8.0110   -7.4523 C   0  0  2  0  0  0  0  0  0  0  0  0
   45.0513    8.5054   -6.2957 O   0  0  0  0  0  0  0  0  0  0  0  0
   47.7822   12.3572   -8.8057 C   0  0  2  0  0  0  0  0  0  0  0  0
   46.5124   13.1064   -8.5372 N   0  0  0  0  0  0  0  0  0  0  0  0
   43.7510    8.1901   -1.0431 C   0  0  0  0  0  0  0  0  0  0  0  0
   44.3143    7.5293    0.0799 N   0  0  0  0  0  0  0  0  0  0  0  0
   41.8932    4.5300   -5.8319 C   0  0  1  0  0  0  0  0  0  0  0  0
   41.1446    4.7549   -4.6474 O   0  0  0  0  0  0  0  0  0  0  0  0
   46.7853    2.8399   -7.0602 C   0  0  2  0  0  0  0  0  0  0  0  0
   46.0965    1.6013   -6.8302 N   0  0  0  0  0  0  0  0  0  0  0  0
   46.0899    8.9236   -8.6719 C   0  0  2  0  0  0  0  0  0  0  0  0
   46.5954   10.2260   -8.4170 O   0  0  0  0  0  0  0  0  0  0  0  0
   48.6508   13.0967   -9.8677 C   0  0  1  0  0  0  0  0  0  0  0  0
   49.8684   12.2868  -10.0382 O   0  0  0  0  0  0  0  0  0  0  0  0
   43.5742    6.6354    0.9052 C   0  0  0  0  0  0  0  0  0  0  0  0
   41.0488    4.8005   -7.1110 C   0  0  2  0  0  0  0  0  0  0  0  0
   39.8626    3.9122   -7.1642 O   0  0  0  0  0  0  0  0  0  0  0  0
   45.8440    3.8296   -7.8626 C   0  0  2  0  0  0  0  0  0  0  0  0
   44.7188    8.9131   -9.3889 C   0  0  1  0  0  0  0  0  0  0  0  0
   47.8299   13.2255  -11.2660 C   0  0  2  0  0  0  0  0  0  0  0  0
   46.6113   14.0336  -11.1030 O   0  0  0  0  0  0  0  0  0  0  0  0
   42.2128    6.3714    0.6156 C   0  0  0  0  0  0  0  0  0  0  0  0
   41.9179    4.5573   -8.4046 C   0  0  2  0  0  0  0  0  0  0  0  0
   43.0609    5.4493   -8.2917 O   0  0  0  0  0  0  0  0  0  0  0  0
   46.6352    5.1648   -8.0863 C   0  0  2  0  0  0  0  0  0  0  0  0
   45.7016    5.9711   -8.7945 O   0  0  0  0  0  0  0  0  0  0  0  0
   44.8569    8.8897  -10.9103 C   0  0  0  0  0  0  0  0  0  0  0  0
   44.3593   10.0227  -11.5811 O   0  0  0  0  0  0  0  0  0  0  0  0
   47.4397   11.7672  -11.7892 C   0  0  1  0  0  0  0  0  0  0  0  0
   46.6385   11.0681  -10.7103 O   0  0  0  0  0  0  0  0  0  0  0  0
   41.5778    7.0370   -0.5455 C   0  0  0  0  0  0  0  0  0  0  0  0
   41.0758    4.8485   -9.5760 C   0  0  0  0  0  0  0  0  0  0  0  0
   40.8694    6.1687   -9.6601 O   0  0  0  0  0  0  0  0  0  0  0  0
   47.9589    4.8996   -8.9201 C   0  0  1  0  0  0  0  0  0  0  0  0
   48.6534    6.0898   -9.1008 O   0  0  0  0  0  0  0  0  0  0  0  0
   43.6485    8.1763   -5.9493 C   0  0  0  0  0  0  0  0  0  0  0  0
   46.6519   11.9530  -13.1145 C   0  0  0  0  0  0  0  0  0  0  0  0
   45.2539   12.1817  -12.8460 N   0  0  0  0  0  0  0  0  0  0  0  0
   43.5597    8.1226   -4.4207 C   0  0  0  0  0  0  0  0  0  0  0  0
   42.1216    8.0350   -4.0073 N   0  0  0  0  0  0  0  0  0  0  0  0
   41.7670    8.7235   -2.6618 C   0  0  0  0  0  0  0  0  0  0  0  0
  1  2  1  1  0  0  0
  1  9  1  0  0  0  0
  1 35  1  0  0  0  0
  3  4  1  6  0  0  0
  3 11  1  0  0  0  0
  3 45  1  0  0  0  0
  5  6  1  0  0  0  0
  5 12  1  0  0  0  0
  5 37  1  6  0  0  0
  6 30  1  0  0  0  0
  7 14  1  0  0  0  0
  7 41  1  0  0  0  0
  7 23  1  1  0  0  0
  8 16  2  0  0  0  0
  8 42  1  0  0  0  0
  9 10  1  1  0  0  0
  9 18  1  0  0  0  0
 11 20  1  0  0  0  0
 12 13  1  1  0  0  0
 12 22  1  0  0  0  0
 13 47  1  0  0  0  0
 14 15  1  6  0  0  0
 14 24  1  0  0  0  0
 16 17  1  0  0  0  0
 17 26  2  0  0  0  0
 18 19  1  1  0  0  0
 18 27  1  0  0  0  0
 20 21  1  6  0  0  0
 20 29  1  0  0  0  0
 22 23  1  1  0  0  0
 22 30  1  0  0  0  0
 24 25  1  6  0  0  0
 24 31  1  0  0  0  0
 26 33  1  0  0  0  0
 27 28  1  6  0  0  0
 27 34  1  0  0  0  0
 29  2  1  1  0  0  0
 29 36  1  0  0  0  0
 30 38  1  6  0  0  0
 31 32  1  1  0  0  0
 31 40  1  0  0  0  0
 33 42  2  0  0  0  0
 34 35  1  0  0  0  0
 34 43  1  6  0  0  0
 36 37  1  6  0  0  0
 36 45  1  0  0  0  0
 38 39  1  0  0  0  0
 40 41  1  0  0  0  0
 40 48  1  6  0  0  0
 43 44  1  0  0  0  0
 45 46  1  1  0  0  0
 47 50  1  0  0  0  0
 48 49  1  0  0  0  0
 50 51  1  0  0  0  0
 51 52  1  0  0  0  0
 52  8  1  0  0  0  0
M  END
>  <CHROM.1>
-154.00702940,179.27354181,178.78328345,-5.91356026,144.17421749,150.64366176
145.39028469,127.84112175,71.29521113,99.97855504,-85.35247759,170.03424622
-147.66575097,-69.73520651,80.74803247,44.94910204,7.53366248,-7.44205313
-2.68653472,1.06983571,0.17894617

>  <Name>
2be0_lig

>  <RI>
224

>  <Rbt.Current_Directory>
/home/itssahil/PROJECTS/Mol_Feturizer/New_Systems/rnas/2be0

>  <Rbt.Executable>
rbdock ($Id: //depot/dev/client3/rdock/2013.1/src/exe/rbdock.cxx#4 $)

>  <Rbt.Library>
libRbt.so (2013.1, Build901 2013/11/27)

>  <Rbt.Parameter_File>
/export/apps/rDock/src/rDock_2013.1_src/data/scripts/dock_solv.prm

>  <Rbt.Receptor>
prm/blind_docking_100.prm

>  <SCORE>
46.432

>  <SCORE.INTER>
0.0506206

>  <SCORE.INTER.CONST>
1

>  <SCORE.INTER.POLAR>
-0.695546

>  <SCORE.INTER.ROT>
15

>  <SCORE.INTER.SOLV>
19.6288

>  <SCORE.INTER.VDW>
-17.7907

>  <SCORE.INTER.norm>
0.000973472

>  <SCORE.INTRA>
24.1331

>  <SCORE.INTRA.DIHEDRAL>
-11.0425

>  <SCORE.INTRA.DIHEDRAL.0>
47.8724

>  <SCORE.INTRA.POLAR>
0

>  <SCORE.INTRA.POLAR.0>
0

>  <SCORE.INTRA.REPUL>
0.0879549

>  <SCORE.INTRA.REPUL.0>
0

>  <SCORE.INTRA.SOLV>
5.51898

>  <SCORE.INTRA.SOLV.lig_0>
-115.677

>  <SCORE.INTRA.VDW>
26.4551

>  <SCORE.INTRA.VDW.0>
-7.4833

>  <SCORE.INTRA.norm>
0.464099

>  <SCORE.RESTR>
22.2483

>  <SCORE.RESTR.CAVITY>
22.2483

>  <SCORE.RESTR.norm>
0.427851

>  <SCORE.SYSTEM>
0

>  <SCORE.SYSTEM.CONST>
0

>  <SCORE.SYSTEM.DIHEDRAL>
0

>  <SCORE.SYSTEM.SOLV>
0

>  <SCORE.SYSTEM.norm>
0

>  <SCORE.heavy>
52

>  <SCORE.norm>
0.892924

>  <RMSD>
8.798

$$$$
2be0_lig
 OpenBabel11021811423D
libRbt.so/2013.1/901 2013/11/27
 52 56  0  0  0  0  0  0  0  0999 V2000
   44.7961    1.2502   -3.9188 C   0  0  2  0  0  0  0  0  0  0  0  0
   44.2298    1.8782   -5.0447 O   0  0  0  0  0  0  0  0  0  0  0  0
   45.5511    6.0171   -4.3412 C   0  0  2  0  0  0  0  0  0  0  0  0
   45.8744    7.4451   -4.6166 N   0  0  0  0  0  0  0  0  0  0  0  0
   41.6762    4.4622   -5.6319 C   0  0  2  0  0  0  0  0  0  0  0  0
   40.8655    5.5814   -5.2190 O   0  0  0  0  0  0  0  0  0  0  0  0
   38.0793    1.7087   -6.0480 C   0  0  1  0  0  0  0  0  0  0  0  0
   43.5430    8.3908   -9.7844 C   0  0  0  0  0  0  0  0  0  0  0  0
   44.3128   -0.2522   -3.7968 C   0  0  2  0  0  0  0  0  0  0  0  0
   44.5892   -0.9647   -5.0461 N   0  0  0  0  0  0  0  0  0  0  0  0
   46.3814    5.0909   -5.3416 C   0  0  0  0  0  0  0  0  0  0  0  0
   40.7307    3.4551   -6.3059 C   0  0  2  0  0  0  0  0  0  0  0  0
   40.6515    3.9412   -7.7182 O   0  0  0  0  0  0  0  0  0  0  0  0
   37.7733    1.0511   -4.5936 C   0  0  2  0  0  0  0  0  0  0  0  0
   38.9338    1.3286   -3.6871 N   0  0  0  0  0  0  0  0  0  0  0  0
   43.5012    9.4812  -10.7139 C   0  0  0  0  0  0  0  0  0  0  0  0
   44.2736   10.6462  -10.4666 N   0  0  0  0  0  0  0  0  0  0  0  0
   42.7598   -0.2881   -3.4188 C   0  0  1  0  0  0  0  0  0  0  0  0
   42.3451   -1.6419   -3.3218 O   0  0  0  0  0  0  0  0  0  0  0  0
   46.0437    3.5135   -5.0812 C   0  0  2  0  0  0  0  0  0  0  0  0
   46.7864    2.6691   -5.9738 N   0  0  0  0  0  0  0  0  0  0  0  0
   39.5152    3.6124   -5.3729 C   0  0  2  0  0  0  0  0  0  0  0  0
   38.2702    3.1208   -5.8471 O   0  0  0  0  0  0  0  0  0  0  0  0
   37.5775   -0.4821   -4.7937 C   0  0  1  0  0  0  0  0  0  0  0  0
   36.4116   -0.6349   -5.6795 O   0  0  0  0  0  0  0  0  0  0  0  0
   45.1048   10.7964   -9.3200 C   0  0  0  0  0  0  0  0  0  0  0  0
   42.5586    0.4769   -2.0784 C   0  0  2  0  0  0  0  0  0  0  0  0
   41.1312    0.4812   -1.6764 O   0  0  0  0  0  0  0  0  0  0  0  0
   44.4926    3.2570   -5.2756 C   0  0  2  0  0  0  0  0  0  0  0  0
   39.5081    5.1249   -5.0469 C   0  0  1  0  0  0  0  0  0  0  0  0
   38.9117   -1.1309   -5.4608 C   0  0  2  0  0  0  0  0  0  0  0  0
   40.0813   -0.9816   -4.5810 O   0  0  0  0  0  0  0  0  0  0  0  0
   45.1873    9.7515   -8.3669 C   0  0  0  0  0  0  0  0  0  0  0  0
   43.0460    1.9702   -2.2197 C   0  0  2  0  0  0  0  0  0  0  0  0
   44.4431    1.8988   -2.6170 O   0  0  0  0  0  0  0  0  0  0  0  0
   43.7252    4.1957   -4.2810 C   0  0  2  0  0  0  0  0  0  0  0  0
   42.3621    3.8749   -4.5309 O   0  0  0  0  0  0  0  0  0  0  0  0
   39.1238    5.4065   -3.5952 C   0  0  0  0  0  0  0  0  0  0  0  0
   39.2459    6.7475   -3.1856 O   0  0  0  0  0  0  0  0  0  0  0  0
   39.2024   -0.4229   -6.8633 C   0  0  1  0  0  0  0  0  0  0  0  0
   39.3386    1.0676   -6.6300 O   0  0  0  0  0  0  0  0  0  0  0  0
   44.3998    8.5149   -8.5787 C   0  0  0  0  0  0  0  0  0  0  0  0
   42.8517    2.6338   -0.9205 C   0  0  0  0  0  0  0  0  0  0  0  0
   42.9374    3.9605   -1.0798 O   0  0  0  0  0  0  0  0  0  0  0  0
   44.0522    5.7189   -4.5816 C   0  0  1  0  0  0  0  0  0  0  0  0
   43.3733    6.5366   -3.6861 O   0  0  0  0  0  0  0  0  0  0  0  0
   41.7345    4.0112   -8.7274 C   0  0  0  0  0  0  0  0  0  0  0  0
   40.4874   -1.0723   -7.4452 C   0  0  0  0  0  0  0  0  0  0  0  0
   40.1673   -2.2908   -8.1464 N   0  0  0  0  0  0  0  0  0  0  0  0
   42.6393    5.1855   -8.3405 C   0  0  0  0  0  0  0  0  0  0  0  0
   42.0240    6.4670   -8.8159 N   0  0  0  0  0  0  0  0  0  0  0  0
   42.6598    7.0844  -10.0905 C   0  0  0  0  0  0  0  0  0  0  0  0
  1  2  1  6  0  0  0
  1  9  1  0  0  0  0
  1 35  1  0  0  0  0
  3  4  1  6  0  0  0
  3 11  1  0  0  0  0
  3 45  1  0  0  0  0
  5  6  1  0  0  0  0
  5 12  1  0  0  0  0
  5 37  1  1  0  0  0
  6 30  1  0  0  0  0
  7 14  1  0  0  0  0
  7 41  1  0  0  0  0
  7 23  1  1  0  0  0
  8 16  2  0  0  0  0
  8 42  1  0  0  0  0
  9 10  1  6  0  0  0
  9 18  1  0  0  0  0
 11 20  1  0  0  0  0
 12 13  1  6  0  0  0
 12 22  1  0  0  0  0
 13 47  1  0  0  0  0
 14 15  1  1  0  0  0
 14 24  1  0  0  0  0
 16 17  1  0  0  0  0
 17 26  2  0  0  0  0
 18 19  1  1  0  0  0
 18 27  1  0  0  0  0
 20 21  1  6  0  0  0
 20 29  1  0  0  0  0
 22 23  1  6  0  0  0
 22 30  1  0  0  0  0
 24 25  1  6  0  0  0
 24 31  1  0  0  0  0
 26 33  1  0  0  0  0
 27 28  1  6  0  0  0
 27 34  1  0  0  0  0
 29  2  1  1  0  0  0
 29 36  1  0  0  0  0
 30 38  1  1  0  0  0
 31 32  1  1  0  0  0
 31 40  1  0  0  0  0
 33 42  2  0  0  0  0
 34 35  1  0  0  0  0
 34 43  1  1  0  0  0
 36 37  1  6  0  0  0
 36 45  1  0  0  0  0
 38 39  1  0  0  0  0
 40 41  1  0  0  0  0
 40 48  1  1  0  0  0
 43 44  1  0  0  0  0
 45 46  1  1  0  0  0
 47 50  1  0  0  0  0
 48 49  1  0  0  0  0
 50 51  1  0  0  0  0
 51 52  1  0  0  0  0
 52  8  1  0  0  0  0
M  END
>  <CHROM.1>
176.56258489,-99.10673684,80.01999574,64.65639669,-74.21953683,66.39733246
46.01586306,56.71033721,-164.88783636,-81.80248776,84.13194113,-80.92364705
-103.29258252,-106.79229272,-141.86746352,42.07339632,3.40404929,-5.48141182
-2.04411699,-0.50174891,-0.65168527

>  <Name>
2be0_lig

>  <RI>
0

>  <Rbt.Current_Directory>
/home/itssahil/PROJECTS/Mol_Feturizer/New_Systems/rnas/2be0

>  <Rbt.Executable>
rbdock ($Id: //depot/dev/client3/rdock/2013.1/src/exe/rbdock.cxx#4 $)

>  <Rbt.Library>
libRbt.so (2013.1, Build901 2013/11/27)

>  <Rbt.Parameter_File>
/export/apps/rDock/src/rDock_2013.1_src/data/scripts/dock_solv.prm

>  <Rbt.Receptor>
prm/pocket_docking_4.prm

>  <SCORE>
-20.9008

>  <SCORE.INTER>
-9.04434

>  <SCORE.INTER.CONST>
1

>  <SCORE.INTER.POLAR>
-0.100521

>  <SCORE.INTER.ROT>
15

>  <SCORE.INTER.SOLV>
15.5484

>  <SCORE.INTER.VDW>
-24.4773

>  <SCORE.INTER.norm>
-0.17393

>  <SCORE.INTRA>
-12.229

>  <SCORE.INTRA.DIHEDRAL>
-29.1016

>  <SCORE.INTRA.DIHEDRAL.0>
47.8724

>  <SCORE.INTRA.POLAR>
0

>  <SCORE.INTRA.POLAR.0>
0

>  <SCORE.INTRA.REPUL>
0.0435912

>  <SCORE.INTRA.REPUL.0>
0

>  <SCORE.INTRA.SOLV>
1.68835

>  <SCORE.INTRA.SOLV.lig_0>
-115.677

>  <SCORE.INTRA.VDW>
1.25966

>  <SCORE.INTRA.VDW.0>
-7.4833

>  <SCORE.INTRA.norm>
-0.235173

>  <SCORE.RESTR>
0.372583

>  <SCORE.RESTR.CAVITY>
0.372583

>  <SCORE.RESTR.norm>
0.00716506

>  <SCORE.SYSTEM>
0

>  <SCORE.SYSTEM.CONST>
0

>  <SCORE.SYSTEM.DIHEDRAL>
0

>  <SCORE.SYSTEM.SOLV>
0

>  <SCORE.SYSTEM.norm>
0

>  <SCORE.heavy>
52

>  <SCORE.norm>
-0.401938

>  <RMSD>
8.804

$$$$
2be0_lig
 OpenBabel11021811423D
libRbt.so/2013.1/901 2013/11/27
 52 56  0  0  0  0  0  0  0  0999 V2000
   38.6972    2.1098   -3.1074 C   0  0  2  0  0  0  0  0  0  0  0  0
   39.9577    1.6380   -2.6934 O   0  0  0  0  0  0  0  0  0  0  0  0
   41.3046   -2.5386   -2.3566 C   0  0  2  0  0  0  0  0  0  0  0  0
   41.6748   -3.9230   -2.7637 N   0  0  0  0  0  0  0  0  0  0  0  0
   43.9884    1.1124   -2.8745 C   0  0  2  0  0  0  0  0  0  0  0  0
   44.1677    1.5053   -1.4983 O   0  0  0  0  0  0  0  0  0  0  0  0
   44.8172    5.3511   -4.3849 C   0  0  1  0  0  0  0  0  0  0  0  0
   51.0660    2.9525   -5.4576 C   0  0  0  0  0  0  0  0  0  0  0  0
   38.7382    2.6142   -4.6073 C   0  0  2  0  0  0  0  0  0  0  0  0
   39.2623    1.5549   -5.4721 N   0  0  0  0  0  0  0  0  0  0  0  0
   39.8121   -2.2347   -2.8346 C   0  0  0  0  0  0  0  0  0  0  0  0
   44.6714    2.1876   -3.7347 C   0  0  2  0  0  0  0  0  0  0  0  0
   46.0999    1.7463   -3.7766 O   0  0  0  0  0  0  0  0  0  0  0  0
   44.0890    6.7533   -4.0044 C   0  0  2  0  0  0  0  0  0  0  0  0
   42.7851    6.4502   -3.3308 N   0  0  0  0  0  0  0  0  0  0  0  0
   51.2093    2.8340   -6.8789 C   0  0  0  0  0  0  0  0  0  0  0  0
   51.7843    3.9001   -7.6191 N   0  0  0  0  0  0  0  0  0  0  0  0
   39.6114    3.9500   -4.7014 C   0  0  1  0  0  0  0  0  0  0  0  0
   39.6419    4.3808   -6.0533 O   0  0  0  0  0  0  0  0  0  0  0  0
   39.3714   -0.7172   -2.4189 C   0  0  2  0  0  0  0  0  0  0  0  0
   38.0293   -0.4319   -2.8415 N   0  0  0  0  0  0  0  0  0  0  0  0
   44.2780    3.4306   -2.9144 C   0  0  2  0  0  0  0  0  0  0  0  0
   45.0097    4.6228   -3.1588 O   0  0  0  0  0  0  0  0  0  0  0  0
   43.8614    7.5479   -5.3257 C   0  0  1  0  0  0  0  0  0  0  0  0
   45.1984    7.8020   -5.8874 O   0  0  0  0  0  0  0  0  0  0  0  0
   52.2350    5.1085   -7.0154 C   0  0  0  0  0  0  0  0  0  0  0  0
   38.9797    5.0215   -3.7660 C   0  0  2  0  0  0  0  0  0  0  0  0
   39.7516    6.2870   -3.8078 O   0  0  0  0  0  0  0  0  0  0  0  0
   40.3667    0.3289   -3.0707 C   0  0  2  0  0  0  0  0  0  0  0  0
   44.3603    2.9341   -1.4512 C   0  0  1  0  0  0  0  0  0  0  0  0
   42.9497    6.6738   -6.3506 C   0  0  2  0  0  0  0  0  0  0  0  0
   41.6118    6.4156   -5.7956 O   0  0  0  0  0  0  0  0  0  0  0  0
   52.1202    5.2825   -5.6141 C   0  0  0  0  0  0  0  0  0  0  0  0
   38.9472    4.5009   -2.2775 C   0  0  2  0  0  0  0  0  0  0  0  0
   38.1840    3.2633   -2.3035 O   0  0  0  0  0  0  0  0  0  0  0  0
   41.8145   -0.0196   -2.5793 C   0  0  2  0  0  0  0  0  0  0  0  0
   42.6106    0.9777   -3.2078 O   0  0  0  0  0  0  0  0  0  0  0  0
   43.2445    3.5057   -0.5781 C   0  0  0  0  0  0  0  0  0  0  0  0
   42.0933    3.9306   -1.2677 O   0  0  0  0  0  0  0  0  0  0  0  0
   43.6788    5.2859   -6.6586 C   0  0  1  0  0  0  0  0  0  0  0  0
   43.9225    4.5696   -5.3463 O   0  0  0  0  0  0  0  0  0  0  0  0
   51.5261    4.1993   -4.7967 C   0  0  0  0  0  0  0  0  0  0  0  0
   38.3225    5.5435   -1.4477 C   0  0  0  0  0  0  0  0  0  0  0  0
   39.1773    6.5623   -1.2928 O   0  0  0  0  0  0  0  0  0  0  0  0
   42.2207   -1.4868   -3.0259 C   0  0  1  0  0  0  0  0  0  0  0  0
   43.5011   -1.7840   -2.5744 O   0  0  0  0  0  0  0  0  0  0  0  0
   47.0751    1.6848   -2.6623 C   0  0  0  0  0  0  0  0  0  0  0  0
   42.7611    4.4931   -7.6286 C   0  0  0  0  0  0  0  0  0  0  0  0
   42.6389    5.1827   -8.8889 N   0  0  0  0  0  0  0  0  0  0  0  0
   48.3629    1.0706   -3.2206 C   0  0  0  0  0  0  0  0  0  0  0  0
   48.9217    1.9656   -4.2853 N   0  0  0  0  0  0  0  0  0  0  0  0
   50.4133    1.7300   -4.6454 C   0  0  0  0  0  0  0  0  0  0  0  0
  1  2  1  1  0  0  0
  1  9  1  0  0  0  0
  1 35  1  0  0  0  0
  3  4  1  6  0  0  0
  3 11  1  0  0  0  0
  3 45  1  0  0  0  0
  5  6  1  0  0  0  0
  5 12  1  0  0  0  0
  5 37  1  6  0  0  0
  6 30  1  0  0  0  0
  7 14  1  0  0  0  0
  7 41  1  0  0  0  0
  7 23  1  1  0  0  0
  8 16  2  0  0  0  0
  8 42  1  0  0  0  0
  9 10  1  6  0  0  0
  9 18  1  0  0  0  0
 11 20  1  0  0  0  0
 12 13  1  1  0  0  0
 12 22  1  0  0  0  0
 13 47  1  0  0  0  0
 14 15  1  6  0  0  0
 14 24  1  0  0  0  0
 16 17  1  0  0  0  0
 17 26  2  0  0  0  0
 18 19  1  6  0  0  0
 18 27  1  0  0  0  0
 20 21  1  6  0  0  0
 20 29  1  0  0  0  0
 22 23  1  1  0  0  0
 22 30  1  0  0  0  0
 24 25  1  6  0  0  0
 24 31  1  0  0  0  0
 26 33  1  0  0  0  0
 27 28  1  1  0  0  0
 27 34  1  0  0  0  0
 29  2  1  1  0  0  0
 29 36  1  0  0  0  0
 30 38  1  1  0  0  0
 31 32  1  1  0  0  0
 31 40  1  0  0  0  0
 33 42  2  0  0  0  0
 34 35  1  0  0  0  0
 34 43  1  1  0  0  0
 36 37  1  6  0  0  0
 36 45  1  0  0  0  0
 38 39  1  0  0  0  0
 40 41  1  0  0  0  0
 40 48  1  6  0  0  0
 43 44  1  0  0  0  0
 45 46  1  1  0  0  0
 47 50  1  0  0  0  0
 48 49  1  0  0  0  0
 50 51  1  0  0  0  0
 51 52  1  0  0  0  0
 52  8  1  0  0  0  0
M  END
>  <CHROM.1>
-79.93522707,-64.34499141,111.59427614,-66.66573340,176.06098621,71.88374335
-63.04108462,-93.20360349,-73.32156881,171.92434143,64.21554693,62.77930908
162.09127231,-163.53987416,-100.76256716,43.40506299,3.05726506,-3.93991202
-2.90266892,0.17605240,-0.32891352

>  <Name>
2be0_lig

>  <RI>
2.75444e+07

>  <Rbt.Current_Directory>
/home/itssahil/PROJECTS/Mol_Feturizer/New_Systems/rnas/2be0

>  <Rbt.Executable>
rbdock ($Id: //depot/dev/client3/rdock/2013.1/src/exe/rbdock.cxx#4 $)

>  <Rbt.Library>
libRbt.so (2013.1, Build901 2013/11/27)

>  <Rbt.Parameter_File>
/export/apps/rDock/src/rDock_2013.1_src/data/scripts/dock_solv.prm

>  <Rbt.Receptor>
prm/pocket_docking_5.prm

>  <SCORE>
-17.1498

>  <SCORE.INTER>
-6.32072

>  <SCORE.INTER.CONST>
1

>  <SCORE.INTER.POLAR>
0

>  <SCORE.INTER.ROT>
15

>  <SCORE.INTER.SOLV>
12.2275

>  <SCORE.INTER.VDW>
-21.8896

>  <SCORE.INTER.norm>
-0.121552

>  <SCORE.INTRA>
-10.8291

>  <SCORE.INTRA.DIHEDRAL>
-32.4381

>  <SCORE.INTRA.DIHEDRAL.0>
47.8724

>  <SCORE.INTRA.POLAR>
0

>  <SCORE.INTRA.POLAR.0>
0

>  <SCORE.INTRA.REPUL>
0.125539

>  <SCORE.INTRA.REPUL.0>
0

>  <SCORE.INTRA.SOLV>
5.56371

>  <SCORE.INTRA.SOLV.lig_0>
-115.677

>  <SCORE.INTRA.VDW>
1.98044

>  <SCORE.INTRA.VDW.0>
-7.4833

>  <SCORE.INTRA.norm>
-0.208251

>  <SCORE.RESTR>
0

>  <SCORE.RESTR.CAVITY>
0

>  <SCORE.RESTR.norm>
0

>  <SCORE.SYSTEM>
0

>  <SCORE.SYSTEM.CONST>
0

>  <SCORE.SYSTEM.DIHEDRAL>
0

>  <SCORE.SYSTEM.SOLV>
0

>  <SCORE.SYSTEM.norm>
0

>  <SCORE.heavy>
52

>  <SCORE.norm>
-0.329804

>  <RMSD>
8.825

$$$$
2be0_lig
 OpenBabel11021811423D
libRbt.so/2013.1/901 2013/11/27
 52 56  0  0  0  0  0  0  0  0999 V2000
   40.7519    7.5836   -1.0782 C   0  0  2  0  0  0  0  0  0  0  0  0
   40.3939    6.7703   -2.1705 O   0  0  0  0  0  0  0  0  0  0  0  0
   39.9044    2.8885   -0.1549 C   0  0  2  0  0  0  0  0  0  0  0  0
   39.4272    1.5016    0.1062 N   0  0  0  0  0  0  0  0  0  0  0  0
   43.2888    4.2204   -3.0429 C   0  0  2  0  0  0  0  0  0  0  0  0
   43.9542    4.8911   -4.1328 O   0  0  0  0  0  0  0  0  0  0  0  0
   43.3065    0.2281   -5.0696 C   0  0  1  0  0  0  0  0  0  0  0  0
   48.8446    2.7430   -4.2350 C   0  0  0  0  0  0  0  0  0  0  0  0
   41.6686    8.7896   -1.5375 C   0  0  2  0  0  0  0  0  0  0  0  0
   41.0063    9.5350   -2.6100 N   0  0  0  0  0  0  0  0  0  0  0  0
   38.6432    3.8554   -0.3059 C   0  0  0  0  0  0  0  0  0  0  0  0
   43.4622    2.7116   -3.2794 C   0  0  2  0  0  0  0  0  0  0  0  0
   44.7960    2.4135   -2.6716 O   0  0  0  0  0  0  0  0  0  0  0  0
   43.0276   -0.6473   -6.4102 C   0  0  2  0  0  0  0  0  0  0  0  0
   41.9838    0.0486   -7.2299 N   0  0  0  0  0  0  0  0  0  0  0  0
   49.7636    3.8357   -4.1074 C   0  0  0  0  0  0  0  0  0  0  0  0
   49.4703    5.0776   -4.7293 N   0  0  0  0  0  0  0  0  0  0  0  0
   43.0989    8.2359   -1.9889 C   0  0  1  0  0  0  0  0  0  0  0  0
   43.9016    9.3303   -2.4035 O   0  0  0  0  0  0  0  0  0  0  0  0
   39.1244    5.3875   -0.6080 C   0  0  2  0  0  0  0  0  0  0  0  0
   37.9987    6.2682   -0.7437 N   0  0  0  0  0  0  0  0  0  0  0  0
   43.2976    2.6927   -4.8109 C   0  0  2  0  0  0  0  0  0  0  0  0
   43.7460    1.5310   -5.4935 O   0  0  0  0  0  0  0  0  0  0  0  0
   42.5372   -2.0586   -5.9664 C   0  0  1  0  0  0  0  0  0  0  0  0
   43.6388   -2.6503   -5.1894 O   0  0  0  0  0  0  0  0  0  0  0  0
   48.2885    5.3031   -5.4913 C   0  0  0  0  0  0  0  0  0  0  0  0
   43.7346    7.4719   -0.7912 C   0  0  2  0  0  0  0  0  0  0  0  0
   45.0667    6.9294   -1.1520 O   0  0  0  0  0  0  0  0  0  0  0  0
   39.9918    5.4268   -1.9329 C   0  0  2  0  0  0  0  0  0  0  0  0
   44.0007    3.9950   -5.2621 C   0  0  1  0  0  0  0  0  0  0  0  0
   41.1897   -1.9215   -5.0656 C   0  0  2  0  0  0  0  0  0  0  0  0
   40.0844   -1.3304   -5.8357 O   0  0  0  0  0  0  0  0  0  0  0  0
   47.3427    4.2605   -5.6512 C   0  0  0  0  0  0  0  0  0  0  0  0
   42.8073    6.2756   -0.3481 C   0  0  2  0  0  0  0  0  0  0  0  0
   41.5225    6.8687   -0.0127 O   0  0  0  0  0  0  0  0  0  0  0  0
   41.2072    4.4555   -1.7368 C   0  0  2  0  0  0  0  0  0  0  0  0
   41.9132    4.5797   -2.9654 O   0  0  0  0  0  0  0  0  0  0  0  0
   43.2665    4.6861   -6.4100 C   0  0  0  0  0  0  0  0  0  0  0  0
   41.9365    5.0597   -6.1405 O   0  0  0  0  0  0  0  0  0  0  0  0
   41.4961   -1.0149   -3.7861 C   0  0  1  0  0  0  0  0  0  0  0  0
   42.0135    0.3272   -4.2610 O   0  0  0  0  0  0  0  0  0  0  0  0
   47.6028    2.9448   -5.0224 C   0  0  0  0  0  0  0  0  0  0  0  0
   43.4475    5.6074    0.7963 C   0  0  0  0  0  0  0  0  0  0  0  0
   43.5439    6.4672    1.8182 O   0  0  0  0  0  0  0  0  0  0  0  0
   40.7046    2.9733   -1.4762 C   0  0  1  0  0  0  0  0  0  0  0  0
   41.7923    2.1275   -1.2943 O   0  0  0  0  0  0  0  0  0  0  0  0
   45.5522    1.1391   -2.6960 C   0  0  0  0  0  0  0  0  0  0  0  0
   40.1768   -0.9107   -2.9736 C   0  0  0  0  0  0  0  0  0  0  0  0
   39.9194   -2.1393   -2.2643 N   0  0  0  0  0  0  0  0  0  0  0  0
   46.9744    1.4468   -2.2164 C   0  0  0  0  0  0  0  0  0  0  0  0
   47.9514    0.6045   -2.9798 N   0  0  0  0  0  0  0  0  0  0  0  0
   49.2017    1.3498   -3.5196 C   0  0  0  0  0  0  0  0  0  0  0  0
  1  2  1  6  0  0  0
  1  9  1  0  0  0  0
  1 35  1  0  0  0  0
  3  4  1  6  0  0  0
  3 11  1  0  0  0  0
  3 45  1  0  0  0  0
  5  6  1  0  0  0  0
  5 12  1  0  0  0  0
  5 37  1  6  0  0  0
  6 30  1  0  0  0  0
  7 14  1  0  0  0  0
  7 41  1  0  0  0  0
  7 23  1  6  0  0  0
  8 16  2  0  0  0  0
  8 42  1  0  0  0  0
  9 10  1  6  0  0  0
  9 18  1  0  0  0  0
 11 20  1  0  0  0  0
 12 13  1  6  0  0  0
 12 22  1  0  0  0  0
 13 47  1  0  0  0  0
 14 15  1  6  0  0  0
 14 24  1  0  0  0  0
 16 17  1  0  0  0  0
 17 26  2  0  0  0  0
 18 19  1  1  0  0  0
 18 27  1  0  0  0  0
 20 21  1  6  0  0  0
 20 29  1  0  0  0  0
 22 23  1  6  0  0  0
 22 30  1  0  0  0  0
 24 25  1  1  0  0  0
 24 31  1  0  0  0  0
 26 33  1  0  0  0  0
 27 28  1  6  0  0  0
 27 34  1  0  0  0  0
 29  2  1  1  0  0  0
 29 36  1  0  0  0  0
 30 38  1  6  0  0  0
 31 32  1  6  0  0  0
 31 40  1  0  0  0  0
 33 42  2  0  0  0  0
 34 35  1  0  0  0  0
 34 43  1  1  0  0  0
 36 37  1  6  0  0  0
 36 45  1  0  0  0  0
 38 39  1  0  0  0  0
 40 41  1  0  0  0  0
 40 48  1  6  0  0  0
 43 44  1  0  0  0  0
 45 46  1  1  0  0  0
 47 50  1  0  0  0  0
 48 49  1  0  0  0  0
 50 51  1  0  0  0  0
 51 52  1  0  0  0  0
 52  8  1  0  0  0  0
M  END
>  <CHROM.1>
158.12944873,-156.50757065,140.13412377,-174.29711631,167.38179014,51.69207196
38.20250732,-56.95494074,62.28285656,159.02993574,75.28385982,-143.67090016
134.05870116,-46.12015611,145.25391866,43.11929825,3.43543550,-3.03718831
1.86463835,0.31028139,0.40426939

>  <Name>
2be0_lig

>  <RI>
0

>  <Rbt.Current_Directory>
/home/itssahil/PROJECTS/Mol_Feturizer/New_Systems/rnas/2be0

>  <Rbt.Executable>
rbdock ($Id: //depot/dev/client3/rdock/2013.1/src/exe/rbdock.cxx#4 $)

>  <Rbt.Library>
libRbt.so (2013.1, Build901 2013/11/27)

>  <Rbt.Parameter_File>
/export/apps/rDock/src/rDock_2013.1_src/data/scripts/dock_solv.prm

>  <Rbt.Receptor>
prm/pocket_docking_4.prm

>  <SCORE>
-14.9223

>  <SCORE.INTER>
-3.66966

>  <SCORE.INTER.CONST>
1

>  <SCORE.INTER.POLAR>
-1.51078

>  <SCORE.INTER.ROT>
15

>  <SCORE.INTER.SOLV>
17.9238

>  <SCORE.INTER.VDW>
-16.9851

>  <SCORE.INTER.norm>
-0.0705703

>  <SCORE.INTRA>
-11.2526

>  <SCORE.INTRA.DIHEDRAL>
-25.7798

>  <SCORE.INTRA.DIHEDRAL.0>
47.8724

>  <SCORE.INTRA.POLAR>
0

>  <SCORE.INTRA.POLAR.0>
0

>  <SCORE.INTRA.REPUL>
0

>  <SCORE.INTRA.REPUL.0>
0

>  <SCORE.INTRA.SOLV>
-0.478241

>  <SCORE.INTRA.SOLV.lig_0>
-115.677

>  <SCORE.INTRA.VDW>
1.87639

>  <SCORE.INTRA.VDW.0>
-7.4833

>  <SCORE.INTRA.norm>
-0.216397

>  <SCORE.RESTR>
0

>  <SCORE.RESTR.CAVITY>
0

>  <SCORE.RESTR.norm>
0

>  <SCORE.SYSTEM>
0

>  <SCORE.SYSTEM.CONST>
0

>  <SCORE.SYSTEM.DIHEDRAL>
0

>  <SCORE.SYSTEM.SOLV>
0

>  <SCORE.SYSTEM.norm>
0

>  <SCORE.heavy>
52

>  <SCORE.norm>
-0.286967

>  <RMSD>
8.828

$$$$
2be0_lig
 OpenBabel11021811423D
libRbt.so/2013.1/901 2013/11/27
 52 56  0  0  0  0  0  0  0  0999 V2000
   41.1089    6.4828    0.4484 C   0  0  2  0  0  0  0  0  0  0  0  0
   40.5846    5.5365   -0.4529 O   0  0  0  0  0  0  0  0  0  0  0  0
   44.1352    2.9975   -1.0168 C   0  0  2  0  0  0  0  0  0  0  0  0
   44.9612    1.8171   -1.3960 N   0  0  0  0  0  0  0  0  0  0  0  0
   42.4534    5.4716   -4.2173 C   0  0  2  0  0  0  0  0  0  0  0  0
   41.6544    6.2215   -5.1552 O   0  0  0  0  0  0  0  0  0  0  0  0
   41.4927    1.5186   -6.0638 C   0  0  1  0  0  0  0  0  0  0  0  0
   45.6771    8.9188   -8.5323 C   0  0  0  0  0  0  0  0  0  0  0  0
   40.0523    7.6176    0.7671 C   0  0  2  0  0  0  0  0  0  0  0  0
   38.8035    7.0140    1.2370 N   0  0  0  0  0  0  0  0  0  0  0  0
   42.9956    2.5331    0.0001 C   0  0  0  0  0  0  0  0  0  0  0  0
   42.6136    4.0592   -4.8018 C   0  0  2  0  0  0  0  0  0  0  0  0
   43.7860    4.1922   -5.7211 O   0  0  0  0  0  0  0  0  0  0  0  0
   40.5559    0.4880   -6.9014 C   0  0  2  0  0  0  0  0  0  0  0  0
   39.1334    0.6703   -6.4667 N   0  0  0  0  0  0  0  0  0  0  0  0
   44.3768    8.9766   -9.1329 C   0  0  0  0  0  0  0  0  0  0  0  0
   44.1612    9.8053  -10.2650 N   0  0  0  0  0  0  0  0  0  0  0  0
   39.8277    8.5229   -0.5313 C   0  0  1  0  0  0  0  0  0  0  0  0
   38.8729    9.5278   -0.2271 O   0  0  0  0  0  0  0  0  0  0  0  0
   42.0564    3.7990    0.4305 C   0  0  2  0  0  0  0  0  0  0  0  0
   41.0282    3.3947    1.3474 N   0  0  0  0  0  0  0  0  0  0  0  0
   41.1990    3.8841   -5.3859 C   0  0  2  0  0  0  0  0  0  0  0  0
   41.0192    2.8488   -6.3411 O   0  0  0  0  0  0  0  0  0  0  0  0
   41.0489   -0.9594   -6.5999 C   0  0  1  0  0  0  0  0  0  0  0  0
   42.4393   -1.0276   -7.0790 O   0  0  0  0  0  0  0  0  0  0  0  0
   45.1870   10.6017  -10.8495 C   0  0  0  0  0  0  0  0  0  0  0  0
   41.1963    9.1325   -0.9528 C   0  0  2  0  0  0  0  0  0  0  0  0
   41.0520    9.9826   -2.1592 O   0  0  0  0  0  0  0  0  0  0  0  0
   41.3958    4.4407   -0.8584 C   0  0  2  0  0  0  0  0  0  0  0  0
   40.8554    5.2952   -5.9195 C   0  0  1  0  0  0  0  0  0  0  0  0
   40.9623   -1.2553   -5.0027 C   0  0  2  0  0  0  0  0  0  0  0  0
   39.5754   -1.1884   -4.5166 O   0  0  0  0  0  0  0  0  0  0  0  0
   46.4927   10.5846  -10.3000 C   0  0  0  0  0  0  0  0  0  0  0  0
   42.2348    7.9874   -1.2655 C   0  0  2  0  0  0  0  0  0  0  0  0
   42.3288    7.1908   -0.0524 O   0  0  0  0  0  0  0  0  0  0  0  0
   42.5537    4.8683   -1.8256 C   0  0  2  0  0  0  0  0  0  0  0  0
   41.8536    5.4351   -2.9264 O   0  0  0  0  0  0  0  0  0  0  0  0
   39.3927    5.6675   -5.6829 C   0  0  0  0  0  0  0  0  0  0  0  0
   38.9938    6.9145   -6.1999 O   0  0  0  0  0  0  0  0  0  0  0  0
   41.8576   -0.1911   -4.2160 C   0  0  1  0  0  0  0  0  0  0  0  0
   41.3758    1.1999   -4.5737 O   0  0  0  0  0  0  0  0  0  0  0  0
   46.7690    9.7365   -9.1173 C   0  0  0  0  0  0  0  0  0  0  0  0
   43.5099    8.6224   -1.6356 C   0  0  0  0  0  0  0  0  0  0  0  0
   43.4158    9.1237   -2.8736 O   0  0  0  0  0  0  0  0  0  0  0  0
   43.4259    3.6116   -2.2469 C   0  0  1  0  0  0  0  0  0  0  0  0
   44.4530    4.0084   -3.0949 O   0  0  0  0  0  0  0  0  0  0  0  0
   44.7044    5.3449   -5.8772 C   0  0  0  0  0  0  0  0  0  0  0  0
   41.7276   -0.5146   -2.7027 C   0  0  0  0  0  0  0  0  0  0  0  0
   40.4200   -0.1505   -2.2165 N   0  0  0  0  0  0  0  0  0  0  0  0
   44.8389    5.6171   -7.3789 C   0  0  0  0  0  0  0  0  0  0  0  0
   46.0453    6.4719   -7.6248 N   0  0  0  0  0  0  0  0  0  0  0  0
   45.8925    7.9714   -7.2531 C   0  0  0  0  0  0  0  0  0  0  0  0
  1  2  1  6  0  0  0
  1  9  1  0  0  0  0
  1 35  1  0  0  0  0
  3  4  1  6  0  0  0
  3 11  1  0  0  0  0
  3 45  1  0  0  0  0
  5  6  1  0  0  0  0
  5 12  1  0  0  0  0
  5 37  1  1  0  0  0
  6 30  1  0  0  0  0
  7 14  1  0  0  0  0
  7 41  1  0  0  0  0
  7 23  1  1  0  0  0
  8 16  2  0  0  0  0
  8 42  1  0  0  0  0
  9 10  1  6  0  0  0
  9 18  1  0  0  0  0
 11 20  1  0  0  0  0
 12 13  1  6  0  0  0
 12 22  1  0  0  0  0
 13 47  1  0  0  0  0
 14 15  1  1  0  0  0
 14 24  1  0  0  0  0
 16 17  1  0  0  0  0
 17 26  2  0  0  0  0
 18 19  1  1  0  0  0
 18 27  1  0  0  0  0
 20 21  1  1  0  0  0
 20 29  1  0  0  0  0
 22 23  1  6  0  0  0
 22 30  1  0  0  0  0
 24 25  1  1  0  0  0
 24 31  1  0  0  0  0
 26 33  1  0  0  0  0
 27 28  1  6  0  0  0
 27 34  1  0  0  0  0
 29  2  1  1  0  0  0
 29 36  1  0  0  0  0
 30 38  1  1  0  0  0
 31 32  1  1  0  0  0
 31 40  1  0  0  0  0
 33 42  2  0  0  0  0
 34 35  1  0  0  0  0
 34 43  1  1  0  0  0
 36 37  1  6  0  0  0
 36 45  1  0  0  0  0
 38 39  1  0  0  0  0
 40 41  1  0  0  0  0
 40 48  1  1  0  0  0
 43 44  1  0  0  0  0
 45 46  1  6  0  0  0
 47 50  1  0  0  0  0
 48 49  1  0  0  0  0
 50 51  1  0  0  0  0
 51 52  1  0  0  0  0
 52  8  1  0  0  0  0
M  END
>  <CHROM.1>
179.88833585,-173.19878727,152.56368943,8.44579380,-132.20738894,49.66365677
47.52185992,66.60644650,-74.67967683,-155.32979423,-71.93369199,-162.93617377
-75.31405615,-103.20978120,78.57784899,42.24014259,5.00131295,-4.03499779
2.70642360,-1.16432136,-2.64416641

>  <Name>
2be0_lig

>  <RI>
2.10017e+07

>  <Rbt.Current_Directory>
/home/itssahil/PROJECTS/Mol_Feturizer/New_Systems/rnas/2be0

>  <Rbt.Executable>
rbdock ($Id: //depot/dev/client3/rdock/2013.1/src/exe/rbdock.cxx#4 $)

>  <Rbt.Library>
libRbt.so (2013.1, Build901 2013/11/27)

>  <Rbt.Parameter_File>
/export/apps/rDock/src/rDock_2013.1_src/data/scripts/dock_solv.prm

>  <Rbt.Receptor>
prm/pocket_docking_3.prm

>  <SCORE>
-7.10074

>  <SCORE.INTER>
-4.47576

>  <SCORE.INTER.CONST>
1

>  <SCORE.INTER.POLAR>
-0.979796

>  <SCORE.INTER.ROT>
15

>  <SCORE.INTER.SOLV>
14.392

>  <SCORE.INTER.VDW>
-18.1152

>  <SCORE.INTER.norm>
-0.0860723

>  <SCORE.INTRA>
-3.28182

>  <SCORE.INTRA.DIHEDRAL>
-23.306

>  <SCORE.INTRA.DIHEDRAL.0>
47.8724

>  <SCORE.INTRA.POLAR>
0

>  <SCORE.INTRA.POLAR.0>
0

>  <SCORE.INTRA.REPUL>
0

>  <SCORE.INTRA.REPUL.0>
0

>  <SCORE.INTRA.SOLV>
-0.252201

>  <SCORE.INTRA.SOLV.lig_0>
-115.677

>  <SCORE.INTRA.VDW>
8.49729

>  <SCORE.INTRA.VDW.0>
-7.4833

>  <SCORE.INTRA.norm>
-0.0631119

>  <SCORE.RESTR>
0.656842

>  <SCORE.RESTR.CAVITY>
0.656842

>  <SCORE.RESTR.norm>
0.0126316

>  <SCORE.SYSTEM>
0

>  <SCORE.SYSTEM.CONST>
0

>  <SCORE.SYSTEM.DIHEDRAL>
0

>  <SCORE.SYSTEM.SOLV>
0

>  <SCORE.SYSTEM.norm>
0

>  <SCORE.heavy>
52

>  <SCORE.norm>
-0.136553

>  <RMSD>
8.873

$$$$
2be0_lig
 OpenBabel11021811423D
libRbt.so/2013.1/901 2013/11/27
 52 56  0  0  0  0  0  0  0  0999 V2000
   40.4026    1.1195   -6.2526 C   0  0  2  0  0  0  0  0  0  0  0  0
   41.2167    0.7841   -5.1537 O   0  0  0  0  0  0  0  0  0  0  0  0
   45.4285    1.2705   -3.9728 C   0  0  2  0  0  0  0  0  0  0  0  0
   46.9088    1.3839   -4.0966 N   0  0  0  0  0  0  0  0  0  0  0  0
   42.0862    4.5071   -4.6788 C   0  0  2  0  0  0  0  0  0  0  0  0
   41.0728    5.2189   -5.4181 O   0  0  0  0  0  0  0  0  0  0  0  0
   43.8637    7.9795   -7.4301 C   0  0  1  0  0  0  0  0  0  0  0  0
   43.0678    6.0692    1.1448 C   0  0  0  0  0  0  0  0  0  0  0  0
   38.8906    1.2885   -5.8155 C   0  0  2  0  0  0  0  0  0  0  0  0
   38.7967    2.2561   -4.7202 N   0  0  0  0  0  0  0  0  0  0  0  0
   44.9536   -0.1072   -4.6245 C   0  0  0  0  0  0  0  0  0  0  0  0
   43.2978    5.4467   -4.5708 C   0  0  2  0  0  0  0  0  0  0  0  0
   42.9854    6.2834   -3.3709 O   0  0  0  0  0  0  0  0  0  0  0  0
   44.4536    7.0046   -8.5889 C   0  0  2  0  0  0  0  0  0  0  0  0
   45.8775    6.6735   -8.2593 N   0  0  0  0  0  0  0  0  0  0  0  0
   42.6280    6.2703    2.4942 C   0  0  0  0  0  0  0  0  0  0  0  0
   41.4541    5.6191    2.9556 N   0  0  0  0  0  0  0  0  0  0  0  0
   38.2862   -0.1348   -5.4097 C   0  0  1  0  0  0  0  0  0  0  0  0
   36.9344    0.0395   -5.0144 O   0  0  0  0  0  0  0  0  0  0  0  0
   43.3304   -0.2641   -4.5217 C   0  0  2  0  0  0  0  0  0  0  0  0
   42.8903   -1.5010   -5.1028 N   0  0  0  0  0  0  0  0  0  0  0  0
   43.2369    6.0724   -5.9770 C   0  0  2  0  0  0  0  0  0  0  0  0
   43.9689    7.2719   -6.1816 O   0  0  0  0  0  0  0  0  0  0  0  0
   44.3587    7.7639   -9.9467 C   0  0  1  0  0  0  0  0  0  0  0  0
   42.9270    8.0205  -10.1743 O   0  0  0  0  0  0  0  0  0  0  0  0
   40.6705    4.7594    2.1340 C   0  0  0  0  0  0  0  0  0  0  0  0
   38.4142   -1.0931   -6.6294 C   0  0  2  0  0  0  0  0  0  0  0  0
   37.8716   -2.4360   -6.3112 O   0  0  0  0  0  0  0  0  0  0  0  0
   42.6257    0.9486   -5.2582 C   0  0  2  0  0  0  0  0  0  0  0  0
   41.7186    6.2125   -6.2406 C   0  0  1  0  0  0  0  0  0  0  0  0
   45.1996    9.1540   -9.8668 C   0  0  2  0  0  0  0  0  0  0  0  0
   46.6316    8.9053   -9.6391 O   0  0  0  0  0  0  0  0  0  0  0  0
   41.0565    4.5218    0.7918 C   0  0  0  0  0  0  0  0  0  0  0  0
   39.9263   -1.2481   -7.0499 C   0  0  2  0  0  0  0  0  0  0  0  0
   40.3993    0.0953   -7.3440 O   0  0  0  0  0  0  0  0  0  0  0  0
   43.1330    2.2731   -4.5893 C   0  0  2  0  0  0  0  0  0  0  0  0
   42.4347    3.2801   -5.3117 O   0  0  0  0  0  0  0  0  0  0  0  0
   41.3474    5.9014   -7.6896 C   0  0  0  0  0  0  0  0  0  0  0  0
   41.8178    4.6705   -8.1844 O   0  0  0  0  0  0  0  0  0  0  0  0
   44.6186   10.0591   -8.6853 C   0  0  1  0  0  0  0  0  0  0  0  0
   44.6860    9.2673   -7.3957 O   0  0  0  0  0  0  0  0  0  0  0  0
   42.2738    5.1788    0.2618 C   0  0  0  0  0  0  0  0  0  0  0  0
   39.9815   -2.1444   -8.2161 C   0  0  0  0  0  0  0  0  0  0  0  0
   41.2551   -2.4728   -8.4665 O   0  0  0  0  0  0  0  0  0  0  0  0
   44.7073    2.4077   -4.7342 C   0  0  1  0  0  0  0  0  0  0  0  0
   45.1421    3.5803   -4.1281 O   0  0  0  0  0  0  0  0  0  0  0  0
   43.4750    7.6443   -3.0477 C   0  0  0  0  0  0  0  0  0  0  0  0
   45.4635   11.3616   -8.6498 C   0  0  0  0  0  0  0  0  0  0  0  0
   45.4594   12.0043   -9.9404 N   0  0  0  0  0  0  0  0  0  0  0  0
   43.4122    7.7987   -1.5246 C   0  0  0  0  0  0  0  0  0  0  0  0
   44.4818    6.9593   -0.8937 N   0  0  0  0  0  0  0  0  0  0  0  0
   44.4004    6.8177    0.6502 C   0  0  0  0  0  0  0  0  0  0  0  0
  1  2  1  1  0  0  0
  1  9  1  0  0  0  0
  1 35  1  0  0  0  0
  3  4  1  6  0  0  0
  3 11  1  0  0  0  0
  3 45  1  0  0  0  0
  5  6  1  0  0  0  0
  5 12  1  0  0  0  0
  5 37  1  6  0  0  0
  6 30  1  0  0  0  0
  7 14  1  0  0  0  0
  7 41  1  0  0  0  0
  7 23  1  1  0  0  0
  8 16  2  0  0  0  0
  8 42  1  0  0  0  0
  9 10  1  1  0  0  0
  9 18  1  0  0  0  0
 11 20  1  0  0  0  0
 12 13  1  1  0  0  0
 12 22  1  0  0  0  0
 13 47  1  0  0  0  0
 14 15  1  1  0  0  0
 14 24  1  0  0  0  0
 16 17  1  0  0  0  0
 17 26  2  0  0  0  0
 18 19  1  6  0  0  0
 18 27  1  0  0  0  0
 20 21  1  6  0  0  0
 20 29  1  0  0  0  0
 22 23  1  1  0  0  0
 22 30  1  0  0  0  0
 24 25  1  1  0  0  0
 24 31  1  0  0  0  0
 26 33  1  0  0  0  0
 27 28  1  1  0  0  0
 27 34  1  0  0  0  0
 29  2  1  1  0  0  0
 29 36  1  0  0  0  0
 30 38  1  6  0  0  0
 31 32  1  1  0  0  0
 31 40  1  0  0  0  0
 33 42  2  0  0  0  0
 34 35  1  0  0  0  0
 34 43  1  6  0  0  0
 36 37  1  6  0  0  0
 36 45  1  0  0  0  0
 38 39  1  0  0  0  0
 40 41  1  0  0  0  0
 40 48  1  1  0  0  0
 43 44  1  0  0  0  0
 45 46  1  1  0  0  0
 47 50  1  0  0  0  0
 48 49  1  0  0  0  0
 50 51  1  0  0  0  0
 51 52  1  0  0  0  0
 52  8  1  0  0  0  0
M  END
>  <CHROM.1>
-162.82807351,-163.22897939,-63.65534973,-155.11537904,-154.91483821,-174.36619700
-141.44656435,-64.05066943,-170.00522621,149.59159318,55.10147060,71.54561856
-170.08849119,63.43763164,-158.55417873,42.60043776,4.22971501,-5.24300754
3.06399287,1.12958095,1.44956376

>  <Name>
2be0_lig

>  <RI>
2.10017e+07

>  <Rbt.Current_Directory>
/home/itssahil/PROJECTS/Mol_Feturizer/New_Systems/rnas/2be0

>  <Rbt.Executable>
rbdock ($Id: //depot/dev/client3/rdock/2013.1/src/exe/rbdock.cxx#4 $)

>  <Rbt.Library>
libRbt.so (2013.1, Build901 2013/11/27)

>  <Rbt.Parameter_File>
/export/apps/rDock/src/rDock_2013.1_src/data/scripts/dock_solv.prm

>  <Rbt.Receptor>
prm/pocket_docking_3.prm

>  <SCORE>
-29.1878

>  <SCORE.INTER>
-16.6644

>  <SCORE.INTER.CONST>
1

>  <SCORE.INTER.POLAR>
-1.82426

>  <SCORE.INTER.ROT>
15

>  <SCORE.INTER.SOLV>
17.8192

>  <SCORE.INTER.VDW>
-24.5685

>  <SCORE.INTER.norm>
-0.32047

>  <SCORE.INTRA>
-13.0314

>  <SCORE.INTRA.DIHEDRAL>
-28.8709

>  <SCORE.INTRA.DIHEDRAL.0>
47.8724

>  <SCORE.INTRA.POLAR>
0

>  <SCORE.INTRA.POLAR.0>
0

>  <SCORE.INTRA.REPUL>
0

>  <SCORE.INTRA.REPUL.0>
0

>  <SCORE.INTRA.SOLV>
0.201853

>  <SCORE.INTRA.SOLV.lig_0>
-115.677

>  <SCORE.INTRA.VDW>
1.30306

>  <SCORE.INTRA.VDW.0>
-7.4833

>  <SCORE.INTRA.norm>
-0.250605

>  <SCORE.RESTR>
0.508051

>  <SCORE.RESTR.CAVITY>
0.508051

>  <SCORE.RESTR.norm>
0.0097702

>  <SCORE.SYSTEM>
0

>  <SCORE.SYSTEM.CONST>
0

>  <SCORE.SYSTEM.DIHEDRAL>
0

>  <SCORE.SYSTEM.SOLV>
0

>  <SCORE.SYSTEM.norm>
0

>  <SCORE.heavy>
52

>  <SCORE.norm>
-0.561304

>  <RMSD>
8.903

$$$$
2be0_lig
 OpenBabel11021811423D
libRbt.so/2013.1/901 2013/11/27
 52 56  0  0  0  0  0  0  0  0999 V2000
   41.0207   -0.0519   -4.3226 C   0  0  2  0  0  0  0  0  0  0  0  0
   41.5817    0.0701   -5.6084 O   0  0  0  0  0  0  0  0  0  0  0  0
   42.0360    3.3448   -8.5138 C   0  0  2  0  0  0  0  0  0  0  0  0
   41.6785    4.5080   -9.3733 N   0  0  0  0  0  0  0  0  0  0  0  0
   42.8533    3.6070   -4.0383 C   0  0  2  0  0  0  0  0  0  0  0  0
   42.9775    3.2793   -2.6391 O   0  0  0  0  0  0  0  0  0  0  0  0
   41.6729    7.1717   -1.9603 C   0  0  1  0  0  0  0  0  0  0  0  0
   45.4785    9.7616   -8.5148 C   0  0  0  0  0  0  0  0  0  0  0  0
   41.4316   -1.4226   -3.6457 C   0  0  2  0  0  0  0  0  0  0  0  0
   42.8897   -1.5581   -3.6464 N   0  0  0  0  0  0  0  0  0  0  0  0
   41.0673    2.1235   -8.8576 C   0  0  0  0  0  0  0  0  0  0  0  0
   42.2680    5.0264   -4.1106 C   0  0  2  0  0  0  0  0  0  0  0  0
   43.4713    5.9071   -3.9932 O   0  0  0  0  0  0  0  0  0  0  0  0
   42.3745    6.6183   -0.6028 C   0  0  2  0  0  0  0  0  0  0  0  0
   41.3057    6.3314    0.4077 N   0  0  0  0  0  0  0  0  0  0  0  0
   45.3571   11.1586   -8.2176 C   0  0  0  0  0  0  0  0  0  0  0  0
   46.3585   12.0616   -8.6612 N   0  0  0  0  0  0  0  0  0  0  0  0
   40.7179   -2.6334   -4.4075 C   0  0  1  0  0  0  0  0  0  0  0  0
   41.1047   -3.8517   -3.7908 O   0  0  0  0  0  0  0  0  0  0  0  0
   41.4180    0.8291   -7.9242 C   0  0  2  0  0  0  0  0  0  0  0  0
   40.5546   -0.2777   -8.2255 N   0  0  0  0  0  0  0  0  0  0  0  0
   41.2723    4.9305   -2.9391 C   0  0  2  0  0  0  0  0  0  0  0  0
   40.7676    6.1522   -2.4201 O   0  0  0  0  0  0  0  0  0  0  0  0
   43.3489    7.7189   -0.0851 C   0  0  1  0  0  0  0  0  0  0  0  0
   44.3567    7.9051   -1.1421 O   0  0  0  0  0  0  0  0  0  0  0  0
   47.5035   11.6478   -9.3998 C   0  0  0  0  0  0  0  0  0  0  0  0
   39.1778   -2.4172   -4.3476 C   0  0  2  0  0  0  0  0  0  0  0  0
   38.4586   -3.5112   -5.0440 O   0  0  0  0  0  0  0  0  0  0  0  0
   41.2726    1.2146   -6.3946 C   0  0  2  0  0  0  0  0  0  0  0  0
   42.0279    4.0719   -1.8970 C   0  0  1  0  0  0  0  0  0  0  0  0
   42.5321    9.0968    0.1977 C   0  0  2  0  0  0  0  0  0  0  0  0
   41.5227    8.9181    1.2530 O   0  0  0  0  0  0  0  0  0  0  0  0
   47.6770   10.2797   -9.7243 C   0  0  0  0  0  0  0  0  0  0  0  0
   38.7885   -1.0475   -5.0259 C   0  0  2  0  0  0  0  0  0  0  0  0
   39.5244   -0.0211   -4.3050 O   0  0  0  0  0  0  0  0  0  0  0  0
   42.2334    2.4215   -6.1130 C   0  0  2  0  0  0  0  0  0  0  0  0
   42.0316    2.6701   -4.7271 O   0  0  0  0  0  0  0  0  0  0  0  0
   41.1063    3.0959   -1.1675 C   0  0  0  0  0  0  0  0  0  0  0  0
   41.6855    2.4124   -0.0819 O   0  0  0  0  0  0  0  0  0  0  0  0
   41.8197    9.5781   -1.1490 C   0  0  1  0  0  0  0  0  0  0  0  0
   40.9203    8.4631   -1.6416 O   0  0  0  0  0  0  0  0  0  0  0  0
   46.6601    9.2969   -9.2835 C   0  0  0  0  0  0  0  0  0  0  0  0
   37.3291   -0.8894   -4.9197 C   0  0  0  0  0  0  0  0  0  0  0  0
   36.7338   -1.5652   -5.9105 O   0  0  0  0  0  0  0  0  0  0  0  0
   41.8456    3.6692   -7.0131 C   0  0  1  0  0  0  0  0  0  0  0  0
   42.7119    4.7260   -6.7596 O   0  0  0  0  0  0  0  0  0  0  0  0
   43.6313    7.3086   -4.4477 C   0  0  0  0  0  0  0  0  0  0  0  0
   41.0499   10.8852   -0.8167 C   0  0  0  0  0  0  0  0  0  0  0  0
   39.8919   10.5999   -0.0065 N   0  0  0  0  0  0  0  0  0  0  0  0
   43.7144    7.2823   -5.9773 C   0  0  0  0  0  0  0  0  0  0  0  0
   44.3516    8.5486   -6.4641 N   0  0  0  0  0  0  0  0  0  0  0  0
   44.3297    8.7630   -8.0015 C   0  0  0  0  0  0  0  0  0  0  0  0
  1  2  1  6  0  0  0
  1  9  1  0  0  0  0
  1 35  1  0  0  0  0
  3  4  1  6  0  0  0
  3 11  1  0  0  0  0
  3 45  1  0  0  0  0
  5  6  1  0  0  0  0
  5 12  1  0  0  0  0
  5 37  1  6  0  0  0
  6 30  1  0  0  0  0
  7 14  1  0  0  0  0
  7 41  1  0  0  0  0
  7 23  1  1  0  0  0
  8 16  2  0  0  0  0
  8 42  1  0  0  0  0
  9 10  1  6  0  0  0
  9 18  1  0  0  0  0
 11 20  1  0  0  0  0
 12 13  1  1  0  0  0
 12 22  1  0  0  0  0
 13 47  1  0  0  0  0
 14 15  1  1  0  0  0
 14 24  1  0  0  0  0
 16 17  1  0  0  0  0
 17 26  2  0  0  0  0
 18 19  1  1  0  0  0
 18 27  1  0  0  0  0
 20 21  1  6  0  0  0
 20 29  1  0  0  0  0
 22 23  1  1  0  0  0
 22 30  1  0  0  0  0
 24 25  1  6  0  0  0
 24 31  1  0  0  0  0
 26 33  1  0  0  0  0
 27 28  1  6  0  0  0
 27 34  1  0  0  0  0
 29  2  1  1  0  0  0
 29 36  1  0  0  0  0
 30 38  1  6  0  0  0
 31 32  1  1  0  0  0
 31 40  1  0  0  0  0
 33 42  2  0  0  0  0
 34 35  1  0  0  0  0
 34 43  1  1  0  0  0
 36 37  1  1  0  0  0
 36 45  1  0  0  0  0
 38 39  1  0  0  0  0
 40 41  1  0  0  0  0
 40 48  1  1  0  0  0
 43 44  1  0  0  0  0
 45 46  1  1  0  0  0
 47 50  1  0  0  0  0
 48 49  1  0  0  0  0
 50 51  1  0  0  0  0
 51 52  1  0  0  0  0
 52  8  1  0  0  0  0
M  END
>  <CHROM.1>
177.24725863,-151.76318008,-69.39325223,156.86160704,-72.28838815,-55.51534446
-153.71474363,72.02696704,-82.78419742,172.51387089,-71.85113363,-159.91541387
-171.83379312,-156.98698398,-71.40980874,42.06038446,4.43058390,-4.48095509
-2.48059103,1.09578272,0.84965264

>  <Name>
2be0_lig

>  <RI>
2.10017e+07

>  <Rbt.Current_Directory>
/home/itssahil/PROJECTS/Mol_Feturizer/New_Systems/rnas/2be0

>  <Rbt.Executable>
rbdock ($Id: //depot/dev/client3/rdock/2013.1/src/exe/rbdock.cxx#4 $)

>  <Rbt.Library>
libRbt.so (2013.1, Build901 2013/11/27)

>  <Rbt.Parameter_File>
/export/apps/rDock/src/rDock_2013.1_src/data/scripts/dock_solv.prm

>  <Rbt.Receptor>
prm/pocket_docking_3.prm

>  <SCORE>
-22.0983

>  <SCORE.INTER>
-9.96856

>  <SCORE.INTER.CONST>
1

>  <SCORE.INTER.POLAR>
-1.56559

>  <SCORE.INTER.ROT>
15

>  <SCORE.INTER.SOLV>
11.7835

>  <SCORE.INTER.VDW>
-18.9549

>  <SCORE.INTER.norm>
-0.191703

>  <SCORE.INTRA>
-13.5577

>  <SCORE.INTRA.DIHEDRAL>
-32.3724

>  <SCORE.INTRA.DIHEDRAL.0>
47.8724

>  <SCORE.INTRA.POLAR>
0

>  <SCORE.INTRA.POLAR.0>
0

>  <SCORE.INTRA.REPUL>
0

>  <SCORE.INTRA.REPUL.0>
0

>  <SCORE.INTRA.SOLV>
0.47802

>  <SCORE.INTRA.SOLV.lig_0>
-115.677

>  <SCORE.INTRA.VDW>
2.38946

>  <SCORE.INTRA.VDW.0>
-7.4833

>  <SCORE.INTRA.norm>
-0.260726

>  <SCORE.RESTR>
1.428

>  <SCORE.RESTR.CAVITY>
1.428

>  <SCORE.RESTR.norm>
0.0274616

>  <SCORE.SYSTEM>
0

>  <SCORE.SYSTEM.CONST>
0

>  <SCORE.SYSTEM.DIHEDRAL>
0

>  <SCORE.SYSTEM.SOLV>
0

>  <SCORE.SYSTEM.norm>
0

>  <SCORE.heavy>
52

>  <SCORE.norm>
-0.424967

>  <RMSD>
8.926

$$$$
2be0_lig
 OpenBabel11021811423D
libRbt.so/2013.1/901 2013/11/27
 52 56  0  0  0  0  0  0  0  0999 V2000
   42.4700    4.9642   -2.0847 C   0  0  2  0  0  0  0  0  0  0  0  0
   42.6151    4.6269   -3.4441 O   0  0  0  0  0  0  0  0  0  0  0  0
   45.9902    5.3412   -6.1771 C   0  0  2  0  0  0  0  0  0  0  0  0
   47.3761    5.3067   -6.7226 N   0  0  0  0  0  0  0  0  0  0  0  0
   41.9881    2.5325   -4.9392 C   0  0  2  0  0  0  0  0  0  0  0  0
   41.6173    1.1451   -4.8048 O   0  0  0  0  0  0  0  0  0  0  0  0
   39.9468    0.8929   -8.9550 C   0  0  1  0  0  0  0  0  0  0  0  0
   42.4436    6.8190   -7.8915 C   0  0  0  0  0  0  0  0  0  0  0  0
   41.3495    4.0861   -1.3926 C   0  0  2  0  0  0  0  0  0  0  0  0
   41.6353    2.6648   -1.5998 N   0  0  0  0  0  0  0  0  0  0  0  0
   46.0199    5.9803   -4.7146 C   0  0  0  0  0  0  0  0  0  0  0  0
   41.0716    3.1335   -6.0169 C   0  0  2  0  0  0  0  0  0  0  0  0
   39.8425    3.5176   -5.2560 O   0  0  0  0  0  0  0  0  0  0  0  0
   38.7870    1.2997  -10.0183 C   0  0  2  0  0  0  0  0  0  0  0  0
   37.4854    1.4224   -9.2859 N   0  0  0  0  0  0  0  0  0  0  0  0
   43.5349    7.6799   -7.5412 C   0  0  0  0  0  0  0  0  0  0  0  0
   44.2601    8.3472   -8.5628 N   0  0  0  0  0  0  0  0  0  0  0  0
   39.9145    4.4973   -1.9650 C   0  0  1  0  0  0  0  0  0  0  0  0
   38.9262    3.6945   -1.3383 O   0  0  0  0  0  0  0  0  0  0  0  0
   44.5174    6.0235   -4.0739 C   0  0  2  0  0  0  0  0  0  0  0  0
   44.5301    6.5987   -2.7585 N   0  0  0  0  0  0  0  0  0  0  0  0
   41.0296    1.9360   -6.9850 C   0  0  2  0  0  0  0  0  0  0  0  0
   39.9946    1.9287   -7.9572 O   0  0  0  0  0  0  0  0  0  0  0  0
   38.7142    0.1788  -11.0987 C   0  0  1  0  0  0  0  0  0  0  0  0
   40.0297    0.1595  -11.7594 O   0  0  0  0  0  0  0  0  0  0  0  0
   43.9585    8.2047   -9.9473 C   0  0  0  0  0  0  0  0  0  0  0  0
   39.6883    6.0128   -1.6924 C   0  0  2  0  0  0  0  0  0  0  0  0
   38.3698    6.4557   -2.2067 O   0  0  0  0  0  0  0  0  0  0  0  0
   43.9198    4.5579   -4.0065 C   0  0  2  0  0  0  0  0  0  0  0  0
   41.0088    0.7119   -6.0388 C   0  0  1  0  0  0  0  0  0  0  0  0
   38.3885   -1.2514  -10.3955 C   0  0  2  0  0  0  0  0  0  0  0  0
   37.0752   -1.2394   -9.7327 O   0  0  0  0  0  0  0  0  0  0  0  0
   42.8901    7.3681  -10.3540 C   0  0  0  0  0  0  0  0  0  0  0  0
   40.8140    6.8703   -2.3889 C   0  0  2  0  0  0  0  0  0  0  0  0
   42.0753    6.3885   -1.8488 O   0  0  0  0  0  0  0  0  0  0  0  0
   43.9230    3.9737   -5.4618 C   0  0  2  0  0  0  0  0  0  0  0  0
   43.3618    2.6788   -5.2843 O   0  0  0  0  0  0  0  0  0  0  0  0
   41.8507   -0.4480   -6.5678 C   0  0  0  0  0  0  0  0  0  0  0  0
   43.2207   -0.1738   -6.7379 O   0  0  0  0  0  0  0  0  0  0  0  0
   39.5258   -1.5882   -9.3250 C   0  0  1  0  0  0  0  0  0  0  0  0
   39.5943   -0.4536   -8.3237 O   0  0  0  0  0  0  0  0  0  0  0  0
   42.1027    6.6486   -9.3260 C   0  0  0  0  0  0  0  0  0  0  0  0
   40.5601    8.2865   -2.0789 C   0  0  0  0  0  0  0  0  0  0  0  0
   41.5214    9.0420   -2.6247 O   0  0  0  0  0  0  0  0  0  0  0  0
   45.3992    3.9180   -6.0408 C   0  0  1  0  0  0  0  0  0  0  0  0
   45.3839    3.4082   -7.3336 O   0  0  0  0  0  0  0  0  0  0  0  0
   38.6882    4.3221   -5.7216 C   0  0  0  0  0  0  0  0  0  0  0  0
   39.1574   -2.9525   -8.6812 C   0  0  0  0  0  0  0  0  0  0  0  0
   40.1221   -3.3146   -7.6727 N   0  0  0  0  0  0  0  0  0  0  0  0
   39.1944    5.7496   -5.9525 C   0  0  0  0  0  0  0  0  0  0  0  0
   40.1687    5.7552   -7.0915 N   0  0  0  0  0  0  0  0  0  0  0  0
   41.6398    6.0778   -6.7147 C   0  0  0  0  0  0  0  0  0  0  0  0
  1  2  1  6  0  0  0
  1  9  1  0  0  0  0
  1 35  1  0  0  0  0
  3  4  1  1  0  0  0
  3 11  1  0  0  0  0
  3 45  1  0  0  0  0
  5  6  1  0  0  0  0
  5 12  1  0  0  0  0
  5 37  1  6  0  0  0
  6 30  1  0  0  0  0
  7 14  1  0  0  0  0
  7 41  1  0  0  0  0
  7 23  1  1  0  0  0
  8 16  2  0  0  0  0
  8 42  1  0  0  0  0
  9 10  1  6  0  0  0
  9 18  1  0  0  0  0
 11 20  1  0  0  0  0
 12 13  1  1  0  0  0
 12 22  1  0  0  0  0
 13 47  1  0  0  0  0
 14 15  1  1  0  0  0
 14 24  1  0  0  0  0
 16 17  1  0  0  0  0
 17 26  2  0  0  0  0
 18 19  1  1  0  0  0
 18 27  1  0  0  0  0
 20 21  1  1  0  0  0
 20 29  1  0  0  0  0
 22 23  1  1  0  0  0
 22 30  1  0  0  0  0
 24 25  1  1  0  0  0
 24 31  1  0  0  0  0
 26 33  1  0  0  0  0
 27 28  1  6  0  0  0
 27 34  1  0  0  0  0
 29  2  1  6  0  0  0
 29 36  1  0  0  0  0
 30 38  1  6  0  0  0
 31 32  1  1  0  0  0
 31 40  1  0  0  0  0
 33 42  2  0  0  0  0
 34 35  1  0  0  0  0
 34 43  1  1  0  0  0
 36 37  1  1  0  0  0
 36 45  1  0  0  0  0
 38 39  1  0  0  0  0
 40 41  1  0  0  0  0
 40 48  1  1  0  0  0
 43 44  1  0  0  0  0
 45 46  1  6  0  0  0
 47 50  1  0  0  0  0
 48 49  1  0  0  0  0
 50 51  1  0  0  0  0
 51 52  1  0  0  0  0
 52  8  1  0  0  0  0
M  END
>  <CHROM.1>
-139.48432660,-179.94217590,-172.00828845,170.24076085,-67.06600869,175.61363285
-68.98729103,-55.31612484,178.25544695,69.06422171,-178.52229182,66.17007343
-112.55744578,-149.42536377,152.71569039,41.50096425,3.60864426,-6.06280147
1.02695751,0.83338402,1.07650631

>  <Name>
2be0_lig

>  <RI>
2.75444e+07

>  <Rbt.Current_Directory>
/home/itssahil/PROJECTS/Mol_Feturizer/New_Systems/rnas/2be0

>  <Rbt.Executable>
rbdock ($Id: //depot/dev/client3/rdock/2013.1/src/exe/rbdock.cxx#4 $)

>  <Rbt.Library>
libRbt.so (2013.1, Build901 2013/11/27)

>  <Rbt.Parameter_File>
/export/apps/rDock/src/rDock_2013.1_src/data/scripts/dock_solv.prm

>  <Rbt.Receptor>
prm/pocket_docking_5.prm

>  <SCORE>
-26.2856

>  <SCORE.INTER>
-8.75576

>  <SCORE.INTER.CONST>
1

>  <SCORE.INTER.POLAR>
-0.884335

>  <SCORE.INTER.ROT>
15

>  <SCORE.INTER.SOLV>
12.106

>  <SCORE.INTER.VDW>
-20.5247

>  <SCORE.INTER.norm>
-0.16838

>  <SCORE.INTRA>
-17.5298

>  <SCORE.INTRA.DIHEDRAL>
-37.3175

>  <SCORE.INTRA.DIHEDRAL.0>
47.8724

>  <SCORE.INTRA.POLAR>
0

>  <SCORE.INTRA.POLAR.0>
0

>  <SCORE.INTRA.REPUL>
0

>  <SCORE.INTRA.REPUL.0>
0

>  <SCORE.INTRA.SOLV>
3.04233

>  <SCORE.INTRA.SOLV.lig_0>
-115.677

>  <SCORE.INTRA.VDW>
-0.392215

>  <SCORE.INTRA.VDW.0>
-7.4833

>  <SCORE.INTRA.norm>
-0.337111

>  <SCORE.RESTR>
0

>  <SCORE.RESTR.CAVITY>
0

>  <SCORE.RESTR.norm>
0

>  <SCORE.SYSTEM>
0

>  <SCORE.SYSTEM.CONST>
0

>  <SCORE.SYSTEM.DIHEDRAL>
0

>  <SCORE.SYSTEM.SOLV>
0

>  <SCORE.SYSTEM.norm>
0

>  <SCORE.heavy>
52

>  <SCORE.norm>
-0.505491

>  <RMSD>
8.926

$$$$
2be0_lig
 OpenBabel11021811423D
libRbt.so/2013.1/901 2013/11/27
 52 56  0  0  0  0  0  0  0  0999 V2000
   41.6814   -0.5681   -3.2717 C   0  0  2  0  0  0  0  0  0  0  0  0
   42.0089    0.1412   -4.4433 O   0  0  0  0  0  0  0  0  0  0  0  0
   46.2172    1.1219   -3.6070 C   0  0  2  0  0  0  0  0  0  0  0  0
   47.6377    1.4988   -3.8509 N   0  0  0  0  0  0  0  0  0  0  0  0
   42.7904    4.0900   -3.6678 C   0  0  2  0  0  0  0  0  0  0  0  0
   41.4847    4.6948   -3.7665 O   0  0  0  0  0  0  0  0  0  0  0  0
   42.7232    6.9534   -7.5294 C   0  0  1  0  0  0  0  0  0  0  0  0
   42.1251    7.3069    0.8941 C   0  0  0  0  0  0  0  0  0  0  0  0
   40.1403   -0.4376   -2.9345 C   0  0  2  0  0  0  0  0  0  0  0  0
   39.3432   -0.8497   -4.0918 N   0  0  0  0  0  0  0  0  0  0  0  0
   45.8726   -0.1901   -4.4486 C   0  0  0  0  0  0  0  0  0  0  0  0
   43.7752    5.0467   -4.3587 C   0  0  2  0  0  0  0  0  0  0  0  0
   44.1271    6.0236   -3.2820 O   0  0  0  0  0  0  0  0  0  0  0  0
   42.7813    5.5815   -8.3988 C   0  0  2  0  0  0  0  0  0  0  0  0
   44.2085    5.1353   -8.4976 N   0  0  0  0  0  0  0  0  0  0  0  0
   42.5222    8.5308    0.2622 C   0  0  0  0  0  0  0  0  0  0  0  0
   41.5327    9.4167   -0.2389 N   0  0  0  0  0  0  0  0  0  0  0  0
   39.8134    1.0617   -2.4862 C   0  0  1  0  0  0  0  0  0  0  0  0
   38.4276    1.1592   -2.1961 O   0  0  0  0  0  0  0  0  0  0  0  0
   44.3157   -0.6296   -4.2193 C   0  0  2  0  0  0  0  0  0  0  0  0
   43.9935   -1.8105   -4.9697 N   0  0  0  0  0  0  0  0  0  0  0  0
   42.8855    5.4916   -5.5349 C   0  0  2  0  0  0  0  0  0  0  0  0
   43.2795    6.6628   -6.2345 O   0  0  0  0  0  0  0  0  0  0  0  0
   42.1939    5.8846   -9.8103 C   0  0  1  0  0  0  0  0  0  0  0  0
   40.7964    6.2942   -9.5940 O   0  0  0  0  0  0  0  0  0  0  0  0
   40.1366    9.1508   -0.1486 C   0  0  0  0  0  0  0  0  0  0  0  0
   40.6904    1.4111   -1.2489 C   0  0  2  0  0  0  0  0  0  0  0  0
   40.4333    2.7968   -0.7877 O   0  0  0  0  0  0  0  0  0  0  0  0
   43.3544    0.5528   -4.6520 C   0  0  2  0  0  0  0  0  0  0  0  0
   41.4765    5.5839   -4.9024 C   0  0  1  0  0  0  0  0  0  0  0  0
   43.0493    7.0684  -10.5264 C   0  0  2  0  0  0  0  0  0  0  0  0
   44.4474    6.6662  -10.7454 O   0  0  0  0  0  0  0  0  0  0  0  0
   39.6841    7.9575    0.4665 C   0  0  0  0  0  0  0  0  0  0  0  0
   42.2210    1.2749   -1.6042 C   0  0  2  0  0  0  0  0  0  0  0  0
   42.4072   -0.0965   -2.0507 O   0  0  0  0  0  0  0  0  0  0  0  0
   43.7405    1.8157   -3.8064 C   0  0  2  0  0  0  0  0  0  0  0  0
   42.8175    2.7969   -4.2633 O   0  0  0  0  0  0  0  0  0  0  0  0
   40.3806    5.0912   -5.8461 C   0  0  0  0  0  0  0  0  0  0  0  0
   39.0685    5.4621   -5.4966 O   0  0  0  0  0  0  0  0  0  0  0  0
   43.0058    8.3806   -9.6159 C   0  0  1  0  0  0  0  0  0  0  0  0
   43.5402    8.0303   -8.2424 O   0  0  0  0  0  0  0  0  0  0  0  0
   40.6774    6.9993    1.0049 C   0  0  0  0  0  0  0  0  0  0  0  0
   42.9960    1.5953   -0.3948 C   0  0  0  0  0  0  0  0  0  0  0  0
   42.8115    2.8822   -0.0745 O   0  0  0  0  0  0  0  0  0  0  0  0
   45.2476    2.2322   -4.0762 C   0  0  1  0  0  0  0  0  0  0  0  0
   45.5772    3.3456   -3.3125 O   0  0  0  0  0  0  0  0  0  0  0  0
   44.5980    5.7425   -1.9052 C   0  0  0  0  0  0  0  0  0  0  0  0
   43.8445    9.4679  -10.3411 C   0  0  0  0  0  0  0  0  0  0  0  0
   43.1770    9.9069  -11.5413 N   0  0  0  0  0  0  0  0  0  0  0  0
   43.3547    5.5940   -1.0224 C   0  0  0  0  0  0  0  0  0  0  0  0
   43.7754    5.3149    0.3889 N   0  0  0  0  0  0  0  0  0  0  0  0
   43.2662    6.3241    1.4531 C   0  0  0  0  0  0  0  0  0  0  0  0
  1  2  1  6  0  0  0
  1  9  1  0  0  0  0
  1 35  1  0  0  0  0
  3  4  1  6  0  0  0
  3 11  1  0  0  0  0
  3 45  1  0  0  0  0
  5  6  1  0  0  0  0
  5 12  1  0  0  0  0
  5 37  1  6  0  0  0
  6 30  1  0  0  0  0
  7 14  1  0  0  0  0
  7 41  1  0  0  0  0
  7 23  1  1  0  0  0
  8 16  2  0  0  0  0
  8 42  1  0  0  0  0
  9 10  1  6  0  0  0
  9 18  1  0  0  0  0
 11 20  1  0  0  0  0
 12 13  1  1  0  0  0
 12 22  1  0  0  0  0
 13 47  1  0  0  0  0
 14 15  1  6  0  0  0
 14 24  1  0  0  0  0
 16 17  1  0  0  0  0
 17 26  2  0  0  0  0
 18 19  1  1  0  0  0
 18 27  1  0  0  0  0
 20 21  1  6  0  0  0
 20 29  1  0  0  0  0
 22 23  1  1  0  0  0
 22 30  1  0  0  0  0
 24 25  1  1  0  0  0
 24 31  1  0  0  0  0
 26 33  1  0  0  0  0
 27 28  1  6  0  0  0
 27 34  1  0  0  0  0
 29  2  1  1  0  0  0
 29 36  1  0  0  0  0
 30 38  1  6  0  0  0
 31 32  1  1  0  0  0
 31 40  1  0  0  0  0
 33 42  2  0  0  0  0
 34 35  1  0  0  0  0
 34 43  1  1  0  0  0
 36 37  1  6  0  0  0
 36 45  1  0  0  0  0
 38 39  1  0  0  0  0
 40 41  1  0  0  0  0
 40 48  1  6  0  0  0
 43 44  1  0  0  0  0
 45 46  1  1  0  0  0
 47 50  1  0  0  0  0
 48 49  1  0  0  0  0
 50 51  1  0  0  0  0
 51 52  1  0  0  0  0
 52  8  1  0  0  0  0
M  END
>  <CHROM.1>
157.47916983,-152.59311615,-46.11848227,51.33562402,-88.26560591,164.01207526
41.77663770,79.77340348,-65.44123628,176.21012477,69.37578934,-179.69089998
122.29169525,12.28982468,-88.16719331,42.61772942,4.23807492,-4.13930798
-2.00656301,1.35129503,-0.53280674

>  <Name>
2be0_lig

>  <RI>
2.10017e+07

>  <Rbt.Current_Directory>
/home/itssahil/PROJECTS/Mol_Feturizer/New_Systems/rnas/2be0

>  <Rbt.Executable>
rbdock ($Id: //depot/dev/client3/rdock/2013.1/src/exe/rbdock.cxx#4 $)

>  <Rbt.Library>
libRbt.so (2013.1, Build901 2013/11/27)

>  <Rbt.Parameter_File>
/export/apps/rDock/src/rDock_2013.1_src/data/scripts/dock_solv.prm

>  <Rbt.Receptor>
prm/pocket_docking_3.prm

>  <SCORE>
-6.17365

>  <SCORE.INTER>
-0.750844

>  <SCORE.INTER.CONST>
1

>  <SCORE.INTER.POLAR>
0

>  <SCORE.INTER.ROT>
15

>  <SCORE.INTER.SOLV>
19.9453

>  <SCORE.INTER.VDW>
-20.749

>  <SCORE.INTER.norm>
-0.0144393

>  <SCORE.INTRA>
-8.97595

>  <SCORE.INTRA.DIHEDRAL>
-30.0495

>  <SCORE.INTRA.DIHEDRAL.0>
47.8724

>  <SCORE.INTRA.POLAR>
0

>  <SCORE.INTRA.POLAR.0>
0

>  <SCORE.INTRA.REPUL>
0

>  <SCORE.INTRA.REPUL.0>
0

>  <SCORE.INTRA.SOLV>
0.444929

>  <SCORE.INTRA.SOLV.lig_0>
-115.677

>  <SCORE.INTRA.VDW>
5.82635

>  <SCORE.INTRA.VDW.0>
-7.4833

>  <SCORE.INTRA.norm>
-0.172614

>  <SCORE.RESTR>
3.55314

>  <SCORE.RESTR.CAVITY>
3.55314

>  <SCORE.RESTR.norm>
0.0683296

>  <SCORE.SYSTEM>
0

>  <SCORE.SYSTEM.CONST>
0

>  <SCORE.SYSTEM.DIHEDRAL>
0

>  <SCORE.SYSTEM.SOLV>
0

>  <SCORE.SYSTEM.norm>
0

>  <SCORE.heavy>
52

>  <SCORE.norm>
-0.118724

>  <RMSD>
8.937

$$$$
2be0_lig
 OpenBabel11021811423D
libRbt.so/2013.1/901 2013/11/27
 52 56  0  0  0  0  0  0  0  0999 V2000
   43.1855   -1.1403   -5.3708 C   0  0  2  0  0  0  0  0  0  0  0  0
   43.1723    0.2613   -5.2356 O   0  0  0  0  0  0  0  0  0  0  0  0
   46.8682    0.7957   -2.9063 C   0  0  2  0  0  0  0  0  0  0  0  0
   47.9888    1.4819   -2.2044 N   0  0  0  0  0  0  0  0  0  0  0  0
   42.8340    1.9982   -1.8676 C   0  0  2  0  0  0  0  0  0  0  0  0
   41.4801    2.1356   -1.3895 O   0  0  0  0  0  0  0  0  0  0  0  0
   42.0827    4.6969   -5.4564 C   0  0  1  0  0  0  0  0  0  0  0  0
   42.1480    5.5499    1.9332 C   0  0  0  0  0  0  0  0  0  0  0  0
   42.0457   -1.6322   -6.3530 C   0  0  2  0  0  0  0  0  0  0  0  0
   42.1618   -0.9349   -7.6355 N   0  0  0  0  0  0  0  0  0  0  0  0
   46.8227    1.2880   -4.4242 C   0  0  0  0  0  0  0  0  0  0  0  0
   43.0800    3.1614   -2.8417 C   0  0  2  0  0  0  0  0  0  0  0  0
   43.4918    4.2863   -1.9460 O   0  0  0  0  0  0  0  0  0  0  0  0
   41.6000    6.1802   -5.9126 C   0  0  2  0  0  0  0  0  0  0  0  0
   40.1190    6.1547   -6.1397 N   0  0  0  0  0  0  0  0  0  0  0  0
   40.7321    5.3268    1.9170 C   0  0  0  0  0  0  0  0  0  0  0  0
   39.9290    5.8290    2.9743 N   0  0  0  0  0  0  0  0  0  0  0  0
   40.6162   -1.4034   -5.6749 C   0  0  1  0  0  0  0  0  0  0  0  0
   39.6095   -1.8432   -6.5733 O   0  0  0  0  0  0  0  0  0  0  0  0
   45.5954    0.5678   -5.2272 C   0  0  2  0  0  0  0  0  0  0  0  0
   45.5450    1.0008   -6.5952 N   0  0  0  0  0  0  0  0  0  0  0  0
   41.6995    3.1928   -3.5245 C   0  0  2  0  0  0  0  0  0  0  0  0
   41.3668    4.3655   -4.2530 O   0  0  0  0  0  0  0  0  0  0  0  0
   42.3579    6.5475   -7.2240 C   0  0  1  0  0  0  0  0  0  0  0  0
   43.7897    6.5586   -6.8813 O   0  0  0  0  0  0  0  0  0  0  0  0
   40.4634    6.5568    4.0755 C   0  0  0  0  0  0  0  0  0  0  0  0
   40.5749   -2.1860   -4.3303 C   0  0  2  0  0  0  0  0  0  0  0  0
   39.2692   -2.0082   -3.6501 O   0  0  0  0  0  0  0  0  0  0  0  0
   44.2198    0.8988   -4.5148 C   0  0  2  0  0  0  0  0  0  0  0  0
   40.7215    2.8751   -2.3684 C   0  0  1  0  0  0  0  0  0  0  0  0
   42.0383    5.4468   -8.3782 C   0  0  2  0  0  0  0  0  0  0  0  0
   40.6088    5.4298   -8.7257 O   0  0  0  0  0  0  0  0  0  0  0  0
   41.8556    6.8092    4.1453 C   0  0  0  0  0  0  0  0  0  0  0  0
   41.7171   -1.6825   -3.3662 C   0  0  2  0  0  0  0  0  0  0  0  0
   42.9645   -1.8785   -4.0877 O   0  0  0  0  0  0  0  0  0  0  0  0
   44.3209    0.4065   -3.0294 C   0  0  2  0  0  0  0  0  0  0  0  0
   43.0440    0.7389   -2.4981 O   0  0  0  0  0  0  0  0  0  0  0  0
   39.5684    1.9759   -2.8109 C   0  0  0  0  0  0  0  0  0  0  0  0
   38.7148    1.5351   -1.7822 O   0  0  0  0  0  0  0  0  0  0  0  0
   42.4832    3.9990   -7.8695 C   0  0  1  0  0  0  0  0  0  0  0  0
   41.7604    3.7028   -6.5716 O   0  0  0  0  0  0  0  0  0  0  0  0
   42.7373    6.3053    3.0668 C   0  0  0  0  0  0  0  0  0  0  0  0
   41.6414   -2.4706   -2.1256 C   0  0  0  0  0  0  0  0  0  0  0  0
   41.9282   -3.7510   -2.3921 O   0  0  0  0  0  0  0  0  0  0  0  0
   45.5018    1.1475   -2.2718 C   0  0  1  0  0  0  0  0  0  0  0  0
   45.5849    0.6932   -0.9610 O   0  0  0  0  0  0  0  0  0  0  0  0
   43.9841    5.6310   -2.3277 C   0  0  0  0  0  0  0  0  0  0  0  0
   42.1452    2.9927   -9.0029 C   0  0  0  0  0  0  0  0  0  0  0  0
   42.8632    3.3258  -10.2080 N   0  0  0  0  0  0  0  0  0  0  0  0
   43.5813    6.5958   -1.2078 C   0  0  0  0  0  0  0  0  0  0  0  0
   43.9958    6.0257    0.1150 N   0  0  0  0  0  0  0  0  0  0  0  0
   43.0320    4.9714    0.7231 C   0  0  0  0  0  0  0  0  0  0  0  0
  1  2  1  1  0  0  0
  1  9  1  0  0  0  0
  1 35  1  0  0  0  0
  3  4  1  1  0  0  0
  3 11  1  0  0  0  0
  3 45  1  0  0  0  0
  5  6  1  0  0  0  0
  5 12  1  0  0  0  0
  5 37  1  6  0  0  0
  6 30  1  0  0  0  0
  7 14  1  0  0  0  0
  7 41  1  0  0  0  0
  7 23  1  1  0  0  0
  8 16  2  0  0  0  0
  8 42  1  0  0  0  0
  9 10  1  6  0  0  0
  9 18  1  0  0  0  0
 11 20  1  0  0  0  0
 12 13  1  1  0  0  0
 12 22  1  0  0  0  0
 13 47  1  0  0  0  0
 14 15  1  6  0  0  0
 14 24  1  0  0  0  0
 16 17  1  0  0  0  0
 17 26  2  0  0  0  0
 18 19  1  6  0  0  0
 18 27  1  0  0  0  0
 20 21  1  6  0  0  0
 20 29  1  0  0  0  0
 22 23  1  1  0  0  0
 22 30  1  0  0  0  0
 24 25  1  1  0  0  0
 24 31  1  0  0  0  0
 26 33  1  0  0  0  0
 27 28  1  1  0  0  0
 27 34  1  0  0  0  0
 29  2  1  6  0  0  0
 29 36  1  0  0  0  0
 30 38  1  6  0  0  0
 31 32  1  1  0  0  0
 31 40  1  0  0  0  0
 33 42  2  0  0  0  0
 34 35  1  0  0  0  0
 34 43  1  1  0  0  0
 36 37  1  1  0  0  0
 36 45  1  0  0  0  0
 38 39  1  0  0  0  0
 40 41  1  0  0  0  0
 40 48  1  6  0  0  0
 43 44  1  0  0  0  0
 45 46  1  1  0  0  0
 47 50  1  0  0  0  0
 48 49  1  0  0  0  0
 50 51  1  0  0  0  0
 51 52  1  0  0  0  0
 52  8  1  0  0  0  0
M  END
>  <CHROM.1>
-172.81533425,-179.55914047,-172.25257758,173.51182348,150.97685726,67.17245532
59.95632918,57.56288522,65.35526549,-91.36068478,60.51153578,49.99944889
-81.75536064,-104.38529625,130.71027700,42.50763248,2.42117644,-3.52746264
-0.85183611,-1.53574790,1.70562965

>  <Name>
2be0_lig

>  <RI>
0

>  <Rbt.Current_Directory>
/home/itssahil/PROJECTS/Mol_Feturizer/New_Systems/rnas/2be0

>  <Rbt.Executable>
rbdock ($Id: //depot/dev/client3/rdock/2013.1/src/exe/rbdock.cxx#4 $)

>  <Rbt.Library>
libRbt.so (2013.1, Build901 2013/11/27)

>  <Rbt.Parameter_File>
/export/apps/rDock/src/rDock_2013.1_src/data/scripts/dock_solv.prm

>  <Rbt.Receptor>
prm/pocket_docking_7.prm

>  <SCORE>
-20.0286

>  <SCORE.INTER>
-2.92974

>  <SCORE.INTER.CONST>
1

>  <SCORE.INTER.POLAR>
0

>  <SCORE.INTER.ROT>
15

>  <SCORE.INTER.SOLV>
17.4651

>  <SCORE.INTER.VDW>
-21.3749

>  <SCORE.INTER.norm>
-0.0563411

>  <SCORE.INTRA>
-17.0988

>  <SCORE.INTRA.DIHEDRAL>
-36.5728

>  <SCORE.INTRA.DIHEDRAL.0>
47.8724

>  <SCORE.INTRA.POLAR>
0

>  <SCORE.INTRA.POLAR.0>
0

>  <SCORE.INTRA.REPUL>
0

>  <SCORE.INTRA.REPUL.0>
0

>  <SCORE.INTRA.SOLV>
-1.58518

>  <SCORE.INTRA.SOLV.lig_0>
-115.677

>  <SCORE.INTRA.VDW>
1.98013

>  <SCORE.INTRA.VDW.0>
-7.4833

>  <SCORE.INTRA.norm>
-0.328824

>  <SCORE.RESTR>
0

>  <SCORE.RESTR.CAVITY>
0

>  <SCORE.RESTR.norm>
0

>  <SCORE.SYSTEM>
0

>  <SCORE.SYSTEM.CONST>
0

>  <SCORE.SYSTEM.DIHEDRAL>
0

>  <SCORE.SYSTEM.SOLV>
0

>  <SCORE.SYSTEM.norm>
0

>  <SCORE.heavy>
52

>  <SCORE.norm>
-0.385165

>  <RMSD>
8.947

$$$$
2be0_lig
 OpenBabel11021811423D
libRbt.so/2013.1/901 2013/11/27
 52 56  0  0  0  0  0  0  0  0999 V2000
   42.2925    7.8520   -2.4175 C   0  0  2  0  0  0  0  0  0  0  0  0
   42.9013    7.1278   -1.3747 O   0  0  0  0  0  0  0  0  0  0  0  0
   44.0290    2.9250   -0.7144 C   0  0  2  0  0  0  0  0  0  0  0  0
   43.9214    1.4394   -0.6818 N   0  0  0  0  0  0  0  0  0  0  0  0
   44.8837    5.3819   -4.4644 C   0  0  2  0  0  0  0  0  0  0  0  0
   44.9863    6.4993   -5.3707 O   0  0  0  0  0  0  0  0  0  0  0  0
   42.7450    2.7811   -7.4959 C   0  0  1  0  0  0  0  0  0  0  0  0
   51.2411    3.5017   -5.9978 C   0  0  0  0  0  0  0  0  0  0  0  0
   42.6511    9.3914   -2.3319 C   0  0  2  0  0  0  0  0  0  0  0  0
   44.1053    9.5600   -2.2943 N   0  0  0  0  0  0  0  0  0  0  0  0
   42.8296    3.5545    0.1303 C   0  0  0  0  0  0  0  0  0  0  0  0
   44.5792    4.1429   -5.3215 C   0  0  2  0  0  0  0  0  0  0  0  0
   45.9320    3.6826   -5.7637 O   0  0  0  0  0  0  0  0  0  0  0  0
   42.6168    2.2533   -9.0277 C   0  0  2  0  0  0  0  0  0  0  0  0
   41.8024    3.2393   -9.8089 N   0  0  0  0  0  0  0  0  0  0  0  0
   50.4987    4.4387   -6.7888 C   0  0  0  0  0  0  0  0  0  0  0  0
   51.0076    5.7485   -6.9893 N   0  0  0  0  0  0  0  0  0  0  0  0
   41.9407   10.0384   -1.0542 C   0  0  1  0  0  0  0  0  0  0  0  0
   42.2806   11.4149   -0.9915 O   0  0  0  0  0  0  0  0  0  0  0  0
   42.9032    5.1866    0.1078 C   0  0  2  0  0  0  0  0  0  0  0  0
   41.8304    5.7654    0.8664 N   0  0  0  0  0  0  0  0  0  0  0  0
   43.6206    4.7901   -6.3389 C   0  0  2  0  0  0  0  0  0  0  0  0
   43.3756    4.0737   -7.5403 O   0  0  0  0  0  0  0  0  0  0  0  0
   41.9224    0.8584   -8.9965 C   0  0  1  0  0  0  0  0  0  0  0  0
   42.8110   -0.0253   -8.2239 O   0  0  0  0  0  0  0  0  0  0  0  0
   52.2412    6.1943   -6.4346 C   0  0  0  0  0  0  0  0  0  0  0  0
   40.4041    9.8263   -1.1815 C   0  0  2  0  0  0  0  0  0  0  0  0
   39.6883   10.4043   -0.0185 O   0  0  0  0  0  0  0  0  0  0  0  0
   42.8371    5.7068   -1.3870 C   0  0  2  0  0  0  0  0  0  0  0  0
   44.2297    6.1950   -6.5605 C   0  0  1  0  0  0  0  0  0  0  0  0
   40.4600    0.9806   -8.2949 C   0  0  2  0  0  0  0  0  0  0  0  0
   39.5664    1.8627   -9.0615 O   0  0  0  0  0  0  0  0  0  0  0  0
   53.0192    5.3123   -5.6450 C   0  0  0  0  0  0  0  0  0  0  0  0
   40.0671    8.2878   -1.2659 C   0  0  2  0  0  0  0  0  0  0  0  0
   40.7974    7.7812   -2.4170 O   0  0  0  0  0  0  0  0  0  0  0  0
   44.0259    5.0527   -2.1731 C   0  0  2  0  0  0  0  0  0  0  0  0
   43.8767    5.5935   -3.4802 O   0  0  0  0  0  0  0  0  0  0  0  0
   43.1613    7.2784   -6.6986 C   0  0  0  0  0  0  0  0  0  0  0  0
   42.3305    7.4561   -5.5764 O   0  0  0  0  0  0  0  0  0  0  0  0
   40.6285    1.5477   -6.8107 C   0  0  1  0  0  0  0  0  0  0  0  0
   41.3481    2.8787   -6.8838 O   0  0  0  0  0  0  0  0  0  0  0  0
   52.5313    3.9343   -5.4053 C   0  0  0  0  0  0  0  0  0  0  0  0
   38.6083    8.1519   -1.4062 C   0  0  0  0  0  0  0  0  0  0  0  0
   38.0159    8.4903   -0.2542 O   0  0  0  0  0  0  0  0  0  0  0  0
   43.9063    3.4706   -2.1568 C   0  0  1  0  0  0  0  0  0  0  0  0
   44.9716    2.9061   -2.8480 O   0  0  0  0  0  0  0  0  0  0  0  0
   47.0232    3.1130   -4.9384 C   0  0  0  0  0  0  0  0  0  0  0  0
   39.2057    1.6529   -6.1975 C   0  0  0  0  0  0  0  0  0  0  0  0
   38.4470    2.6902   -6.8511 N   0  0  0  0  0  0  0  0  0  0  0  0
   48.1586    2.7274   -5.8920 C   0  0  0  0  0  0  0  0  0  0  0  0
   49.2388    2.0272   -5.1242 N   0  0  0  0  0  0  0  0  0  0  0  0
   50.6418    2.0260   -5.7889 C   0  0  0  0  0  0  0  0  0  0  0  0
  1  2  1  1  0  0  0
  1  9  1  0  0  0  0
  1 35  1  0  0  0  0
  3  4  1  6  0  0  0
  3 11  1  0  0  0  0
  3 45  1  0  0  0  0
  5  6  1  0  0  0  0
  5 12  1  0  0  0  0
  5 37  1  1  0  0  0
  6 30  1  0  0  0  0
  7 14  1  0  0  0  0
  7 41  1  0  0  0  0
  7 23  1  6  0  0  0
  8 16  2  0  0  0  0
  8 42  1  0  0  0  0
  9 10  1  1  0  0  0
  9 18  1  0  0  0  0
 11 20  1  0  0  0  0
 12 13  1  6  0  0  0
 12 22  1  0  0  0  0
 13 47  1  0  0  0  0
 14 15  1  6  0  0  0
 14 24  1  0  0  0  0
 16 17  1  0  0  0  0
 17 26  2  0  0  0  0
 18 19  1  6  0  0  0
 18 27  1  0  0  0  0
 20 21  1  1  0  0  0
 20 29  1  0  0  0  0
 22 23  1  6  0  0  0
 22 30  1  0  0  0  0
 24 25  1  1  0  0  0
 24 31  1  0  0  0  0
 26 33  1  0  0  0  0
 27 28  1  1  0  0  0
 27 34  1  0  0  0  0
 29  2  1  1  0  0  0
 29 36  1  0  0  0  0
 30 38  1  1  0  0  0
 31 32  1  6  0  0  0
 31 40  1  0  0  0  0
 33 42  2  0  0  0  0
 34 35  1  0  0  0  0
 34 43  1  6  0  0  0
 36 37  1  6  0  0  0
 36 45  1  0  0  0  0
 38 39  1  0  0  0  0
 40 41  1  0  0  0  0
 40 48  1  6  0  0  0
 43 44  1  0  0  0  0
 45 46  1  6  0  0  0
 47 50  1  0  0  0  0
 48 49  1  0  0  0  0
 50 51  1  0  0  0  0
 51 52  1  0  0  0  0
 52  8  1  0  0  0  0
M  END
>  <CHROM.1>
-171.86352986,-147.68710715,179.90671816,67.55672519,176.50702360,62.68659546
-151.99137954,-54.59664332,-70.44099038,171.42057384,-68.71533148,-174.74701082
-158.75713128,61.45144236,-58.64894295,43.81473134,5.01356449,-4.40545665
-2.40333745,-0.02352944,-2.33629266

>  <Name>
2be0_lig

>  <RI>
3.37048e+07

>  <Rbt.Current_Directory>
/home/itssahil/PROJECTS/Mol_Feturizer/New_Systems/rnas/2be0

>  <Rbt.Executable>
rbdock ($Id: //depot/dev/client3/rdock/2013.1/src/exe/rbdock.cxx#4 $)

>  <Rbt.Library>
libRbt.so (2013.1, Build901 2013/11/27)

>  <Rbt.Parameter_File>
/export/apps/rDock/src/rDock_2013.1_src/data/scripts/dock_solv.prm

>  <Rbt.Receptor>
prm/pocket_docking_8.prm

>  <SCORE>
-26.6763

>  <SCORE.INTER>
-10.2349

>  <SCORE.INTER.CONST>
1

>  <SCORE.INTER.POLAR>
-1.84815

>  <SCORE.INTER.ROT>
15

>  <SCORE.INTER.SOLV>
20.3016

>  <SCORE.INTER.VDW>
-21.03

>  <SCORE.INTER.norm>
-0.196825

>  <SCORE.INTRA>
-16.4414

>  <SCORE.INTRA.DIHEDRAL>
-37.1771

>  <SCORE.INTRA.DIHEDRAL.0>
47.8724

>  <SCORE.INTRA.POLAR>
0

>  <SCORE.INTRA.POLAR.0>
0

>  <SCORE.INTRA.REPUL>
0.00412782

>  <SCORE.INTRA.REPUL.0>
0

>  <SCORE.INTRA.SOLV>
-0.892502

>  <SCORE.INTRA.SOLV.lig_0>
-115.677

>  <SCORE.INTRA.VDW>
2.57272

>  <SCORE.INTRA.VDW.0>
-7.4833

>  <SCORE.INTRA.norm>
-0.316181

>  <SCORE.RESTR>
0

>  <SCORE.RESTR.CAVITY>
0

>  <SCORE.RESTR.norm>
0

>  <SCORE.SYSTEM>
0

>  <SCORE.SYSTEM.CONST>
0

>  <SCORE.SYSTEM.DIHEDRAL>
0

>  <SCORE.SYSTEM.SOLV>
0

>  <SCORE.SYSTEM.norm>
0

>  <SCORE.heavy>
52

>  <SCORE.norm>
-0.513006

>  <RMSD>
8.950

$$$$
2be0_lig
 OpenBabel11021811423D
libRbt.so/2013.1/901 2013/11/27
 52 56  0  0  0  0  0  0  0  0999 V2000
   39.1790    1.0267   -5.4796 C   0  0  2  0  0  0  0  0  0  0  0  0
   39.8552    0.0018   -4.7903 O   0  0  0  0  0  0  0  0  0  0  0  0
   44.0187   -0.4969   -3.4532 C   0  0  2  0  0  0  0  0  0  0  0  0
   45.5040   -0.5910   -3.5186 N   0  0  0  0  0  0  0  0  0  0  0  0
   41.5184    3.3801   -3.4389 C   0  0  2  0  0  0  0  0  0  0  0  0
   40.5638    4.3904   -3.8240 O   0  0  0  0  0  0  0  0  0  0  0  0
   44.2642    6.0682   -6.2952 C   0  0  1  0  0  0  0  0  0  0  0  0
   40.7544    8.7908    0.5627 C   0  0  0  0  0  0  0  0  0  0  0  0
   37.6912    0.6053   -5.8178 C   0  0  2  0  0  0  0  0  0  0  0  0
   37.0028    0.1918   -4.5932 N   0  0  0  0  0  0  0  0  0  0  0  0
   43.3826   -1.5724   -4.4466 C   0  0  0  0  0  0  0  0  0  0  0  0
   42.9082    4.0322   -3.5142 C   0  0  2  0  0  0  0  0  0  0  0  0
   43.0531    4.7009   -2.1840 O   0  0  0  0  0  0  0  0  0  0  0  0
   45.2921    4.8200   -6.4585 C   0  0  2  0  0  0  0  0  0  0  0  0
   46.2888    4.8691   -5.3405 N   0  0  0  0  0  0  0  0  0  0  0  0
   40.2559   10.0083    1.1318 C   0  0  0  0  0  0  0  0  0  0  0  0
   39.0149   10.5355    0.6880 N   0  0  0  0  0  0  0  0  0  0  0  0
   37.6980   -0.5525   -6.9203 C   0  0  1  0  0  0  0  0  0  0  0  0
   36.3569   -0.9207   -7.2034 O   0  0  0  0  0  0  0  0  0  0  0  0
   41.7509   -1.4920   -4.4151 C   0  0  2  0  0  0  0  0  0  0  0  0
   41.1661   -2.4565   -5.3034 N   0  0  0  0  0  0  0  0  0  0  0  0
   42.7005    4.8842   -4.7806 C   0  0  2  0  0  0  0  0  0  0  0  0
   43.6287    5.9338   -5.0112 O   0  0  0  0  0  0  0  0  0  0  0  0
   45.9986    4.9599   -7.8406 C   0  0  1  0  0  0  0  0  0  0  0  0
   44.9347    4.8822   -8.8552 O   0  0  0  0  0  0  0  0  0  0  0  0
   38.2208    9.9096   -0.3148 C   0  0  0  0  0  0  0  0  0  0  0  0
   38.4340   -0.0262   -8.1866 C   0  0  2  0  0  0  0  0  0  0  0  0
   38.4760   -1.0616   -9.2474 O   0  0  0  0  0  0  0  0  0  0  0  0
   41.2767   -0.0371   -4.8250 C   0  0  2  0  0  0  0  0  0  0  0  0
   41.2341    5.3614   -4.6538 C   0  0  1  0  0  0  0  0  0  0  0  0
   46.7857    6.3812   -7.9217 C   0  0  2  0  0  0  0  0  0  0  0  0
   47.8505    6.4661   -6.9101 O   0  0  0  0  0  0  0  0  0  0  0  0
   38.6617    8.7034   -0.9129 C   0  0  0  0  0  0  0  0  0  0  0  0
   39.9131    0.3887   -7.8296 C   0  0  2  0  0  0  0  0  0  0  0  0
   39.8050    1.3974   -6.7877 O   0  0  0  0  0  0  0  0  0  0  0  0
   41.9358    0.9783   -3.8282 C   0  0  2  0  0  0  0  0  0  0  0  0
   41.4367    2.2322   -4.2775 O   0  0  0  0  0  0  0  0  0  0  0  0
   40.5078    5.3764   -5.9978 C   0  0  0  0  0  0  0  0  0  0  0  0
   40.9310    4.4064   -6.9258 O   0  0  0  0  0  0  0  0  0  0  0  0
   45.7472    7.5765   -7.7081 C   0  0  1  0  0  0  0  0  0  0  0  0
   45.0508    7.3759   -6.3779 O   0  0  0  0  0  0  0  0  0  0  0  0
   39.9509    8.1127   -0.4849 C   0  0  0  0  0  0  0  0  0  0  0  0
   40.5487    0.8961   -9.0563 C   0  0  0  0  0  0  0  0  0  0  0  0
   39.9844    2.0600   -9.4025 O   0  0  0  0  0  0  0  0  0  0  0  0
   43.5183    0.8949   -3.9070 C   0  0  1  0  0  0  0  0  0  0  0  0
   44.0869    1.7925   -3.0112 O   0  0  0  0  0  0  0  0  0  0  0  0
   42.6069    6.0564   -1.7843 C   0  0  0  0  0  0  0  0  0  0  0  0
   46.5536    8.9014   -7.7843 C   0  0  0  0  0  0  0  0  0  0  0  0
   46.6556    9.3554   -9.1489 N   0  0  0  0  0  0  0  0  0  0  0  0
   43.1109    6.2970   -0.3576 C   0  0  0  0  0  0  0  0  0  0  0  0
   43.1004    7.7673   -0.0662 N   0  0  0  0  0  0  0  0  0  0  0  0
   42.1608    8.2165    1.0851 C   0  0  0  0  0  0  0  0  0  0  0  0
  1  2  1  6  0  0  0
  1  9  1  0  0  0  0
  1 35  1  0  0  0  0
  3  4  1  6  0  0  0
  3 11  1  0  0  0  0
  3 45  1  0  0  0  0
  5  6  1  0  0  0  0
  5 12  1  0  0  0  0
  5 37  1  6  0  0  0
  6 30  1  0  0  0  0
  7 14  1  0  0  0  0
  7 41  1  0  0  0  0
  7 23  1  1  0  0  0
  8 16  2  0  0  0  0
  8 42  1  0  0  0  0
  9 10  1  1  0  0  0
  9 18  1  0  0  0  0
 11 20  1  0  0  0  0
 12 13  1  1  0  0  0
 12 22  1  0  0  0  0
 13 47  1  0  0  0  0
 14 15  1  1  0  0  0
 14 24  1  0  0  0  0
 16 17  1  0  0  0  0
 17 26  2  0  0  0  0
 18 19  1  6  0  0  0
 18 27  1  0  0  0  0
 20 21  1  6  0  0  0
 20 29  1  0  0  0  0
 22 23  1  1  0  0  0
 22 30  1  0  0  0  0
 24 25  1  6  0  0  0
 24 31  1  0  0  0  0
 26 33  1  0  0  0  0
 27 28  1  6  0  0  0
 27 34  1  0  0  0  0
 29  2  1  1  0  0  0
 29 36  1  0  0  0  0
 30 38  1  6  0  0  0
 31 32  1  1  0  0  0
 31 40  1  0  0  0  0
 33 42  2  0  0  0  0
 34 35  1  0  0  0  0
 34 43  1  6  0  0  0
 36 37  1  6  0  0  0
 36 45  1  0  0  0  0
 38 39  1  0  0  0  0
 40 41  1  0  0  0  0
 40 48  1  1  0  0  0
 43 44  1  0  0  0  0
 45 46  1  1  0  0  0
 47 50  1  0  0  0  0
 48 49  1  0  0  0  0
 50 51  1  0  0  0  0
 51 52  1  0  0  0  0
 52  8  1  0  0  0  0
M  END
>  <CHROM.1>
157.20722668,-158.73254390,-69.62741222,-86.83446065,-174.92891911,130.22722544
-161.25969068,-85.32061693,68.60190077,163.76545377,87.40838079,161.31275954
117.52839883,-98.59998017,-134.19383075,41.99473285,3.84316385,-4.82999798
1.95048082,-0.64177329,-2.46028051

>  <Name>
2be0_lig

>  <RI>
2.10017e+07

>  <Rbt.Current_Directory>
/home/itssahil/PROJECTS/Mol_Feturizer/New_Systems/rnas/2be0

>  <Rbt.Executable>
rbdock ($Id: //depot/dev/client3/rdock/2013.1/src/exe/rbdock.cxx#4 $)

>  <Rbt.Library>
libRbt.so (2013.1, Build901 2013/11/27)

>  <Rbt.Parameter_File>
/export/apps/rDock/src/rDock_2013.1_src/data/scripts/dock_solv.prm

>  <Rbt.Receptor>
prm/pocket_docking_3.prm

>  <SCORE>
-4.93963

>  <SCORE.INTER>
3.48908

>  <SCORE.INTER.CONST>
1

>  <SCORE.INTER.POLAR>
0

>  <SCORE.INTER.ROT>
15

>  <SCORE.INTER.SOLV>
9.49841

>  <SCORE.INTER.VDW>
-14.4401

>  <SCORE.INTER.norm>
0.0670976

>  <SCORE.INTRA>
-9.89676

>  <SCORE.INTRA.DIHEDRAL>
-21.8715

>  <SCORE.INTRA.DIHEDRAL.0>
47.8724

>  <SCORE.INTRA.POLAR>
0

>  <SCORE.INTRA.POLAR.0>
0

>  <SCORE.INTRA.REPUL>
0.0247661

>  <SCORE.INTRA.REPUL.0>
0

>  <SCORE.INTRA.SOLV>
-2.45686

>  <SCORE.INTRA.SOLV.lig_0>
-115.677

>  <SCORE.INTRA.VDW>
2.1436

>  <SCORE.INTRA.VDW.0>
-7.4833

>  <SCORE.INTRA.norm>
-0.190322

>  <SCORE.RESTR>
1.46805

>  <SCORE.RESTR.CAVITY>
1.46805

>  <SCORE.RESTR.norm>
0.0282318

>  <SCORE.SYSTEM>
0

>  <SCORE.SYSTEM.CONST>
0

>  <SCORE.SYSTEM.DIHEDRAL>
0

>  <SCORE.SYSTEM.SOLV>
0

>  <SCORE.SYSTEM.norm>
0

>  <SCORE.heavy>
52

>  <SCORE.norm>
-0.0949929

>  <RMSD>
8.975

$$$$
2be0_lig
 OpenBabel11021811423D
libRbt.so/2013.1/901 2013/11/27
 52 56  0  0  0  0  0  0  0  0999 V2000
   40.2818    0.1899   -3.9387 C   0  0  2  0  0  0  0  0  0  0  0  0
   41.5932   -0.2391   -3.6573 O   0  0  0  0  0  0  0  0  0  0  0  0
   45.5350    1.4120   -4.7096 C   0  0  2  0  0  0  0  0  0  0  0  0
   46.6752    1.8761   -5.5486 N   0  0  0  0  0  0  0  0  0  0  0  0
   41.6631    3.7546   -3.7993 C   0  0  2  0  0  0  0  0  0  0  0  0
   40.2652    4.0645   -3.6254 O   0  0  0  0  0  0  0  0  0  0  0  0
   42.1005    6.4141   -7.4154 C   0  0  1  0  0  0  0  0  0  0  0  0
   43.0274    7.0323    1.2530 C   0  0  0  0  0  0  0  0  0  0  0  0
   39.2406   -0.9874   -3.7496 C   0  0  2  0  0  0  0  0  0  0  0  0
   39.3777   -1.5595   -2.4086 N   0  0  0  0  0  0  0  0  0  0  0  0
   45.1997   -0.1050   -5.0762 C   0  0  0  0  0  0  0  0  0  0  0  0
   42.2422    4.8294   -4.7331 C   0  0  2  0  0  0  0  0  0  0  0  0
   42.5881    5.9498   -3.8045 O   0  0  0  0  0  0  0  0  0  0  0  0
   42.2438    5.1364   -8.4096 C   0  0  2  0  0  0  0  0  0  0  0  0
   42.5115    3.9139   -7.5853 N   0  0  0  0  0  0  0  0  0  0  0  0
   42.5119    6.0848    2.1971 C   0  0  0  0  0  0  0  0  0  0  0  0
   41.3241    6.3825    2.9150 N   0  0  0  0  0  0  0  0  0  0  0  0
   39.4561   -2.0841   -4.8928 C   0  0  1  0  0  0  0  0  0  0  0  0
   38.5194   -3.1329   -4.7011 O   0  0  0  0  0  0  0  0  0  0  0  0
   43.9423   -0.6489   -4.1857 C   0  0  2  0  0  0  0  0  0  0  0  0
   43.6320   -2.0140   -4.5046 N   0  0  0  0  0  0  0  0  0  0  0  0
   41.0480    4.9737   -5.6953 C   0  0  2  0  0  0  0  0  0  0  0  0
   41.0152    6.1342   -6.5130 O   0  0  0  0  0  0  0  0  0  0  0  0
   43.4258    5.4198   -9.3852 C   0  0  1  0  0  0  0  0  0  0  0  0
   43.0495    6.6214  -10.1479 O   0  0  0  0  0  0  0  0  0  0  0  0
   40.6007    7.5977    2.7474 C   0  0  0  0  0  0  0  0  0  0  0  0
   39.2807   -1.3966   -6.2780 C   0  0  2  0  0  0  0  0  0  0  0  0
   39.4737   -2.3669   -7.3827 O   0  0  0  0  0  0  0  0  0  0  0  0
   42.6696    0.2586   -4.4428 C   0  0  2  0  0  0  0  0  0  0  0  0
   39.8200    4.8278   -4.7654 C   0  0  1  0  0  0  0  0  0  0  0  0
   44.7960    5.6631   -8.5431 C   0  0  2  0  0  0  0  0  0  0  0  0
   45.1781    4.4661   -7.7778 O   0  0  0  0  0  0  0  0  0  0  0  0
   41.0614    8.5716    1.8274 C   0  0  0  0  0  0  0  0  0  0  0  0
   40.3255   -0.2273   -6.4472 C   0  0  2  0  0  0  0  0  0  0  0  0
   40.0891    0.6836   -5.3384 O   0  0  0  0  0  0  0  0  0  0  0  0
   43.0545    1.7346   -4.0787 C   0  0  2  0  0  0  0  0  0  0  0  0
   41.8499    2.4475   -4.3322 O   0  0  0  0  0  0  0  0  0  0  0  0
   38.6866    4.0368   -5.4164 C   0  0  0  0  0  0  0  0  0  0  0  0
   39.0893    2.9881   -6.2646 O   0  0  0  0  0  0  0  0  0  0  0  0
   44.5949    6.8950   -7.5456 C   0  0  1  0  0  0  0  0  0  0  0  0
   43.4100    6.5990   -6.6495 O   0  0  0  0  0  0  0  0  0  0  0  0
   42.2972    8.3091    1.0540 C   0  0  0  0  0  0  0  0  0  0  0  0
   40.0976    0.3959   -7.7609 C   0  0  0  0  0  0  0  0  0  0  0  0
   40.8266    1.5148   -7.8565 O   0  0  0  0  0  0  0  0  0  0  0  0
   44.2569    2.2400   -4.9821 C   0  0  1  0  0  0  0  0  0  0  0  0
   44.5925    3.5447   -4.6405 O   0  0  0  0  0  0  0  0  0  0  0  0
   43.6411    5.9868   -2.7623 C   0  0  0  0  0  0  0  0  0  0  0  0
   45.9252    7.0721   -6.7644 C   0  0  0  0  0  0  0  0  0  0  0  0
   46.9053    7.7478   -7.5779 N   0  0  0  0  0  0  0  0  0  0  0  0
   43.3399    7.1849   -1.8561 C   0  0  0  0  0  0  0  0  0  0  0  0
   44.4850    7.3969   -0.9124 N   0  0  0  0  0  0  0  0  0  0  0  0
   44.3725    6.6683    0.4538 C   0  0  0  0  0  0  0  0  0  0  0  0
  1  2  1  6  0  0  0
  1  9  1  0  0  0  0
  1 35  1  0  0  0  0
  3  4  1  6  0  0  0
  3 11  1  0  0  0  0
  3 45  1  0  0  0  0
  5  6  1  0  0  0  0
  5 12  1  0  0  0  0
  5 37  1  6  0  0  0
  6 30  1  0  0  0  0
  7 14  1  0  0  0  0
  7 41  1  0  0  0  0
  7 23  1  1  0  0  0
  8 16  2  0  0  0  0
  8 42  1  0  0  0  0
  9 10  1  1  0  0  0
  9 18  1  0  0  0  0
 11 20  1  0  0  0  0
 12 13  1  1  0  0  0
 12 22  1  0  0  0  0
 13 47  1  0  0  0  0
 14 15  1  1  0  0  0
 14 24  1  0  0  0  0
 16 17  1  0  0  0  0
 17 26  2  0  0  0  0
 18 19  1  1  0  0  0
 18 27  1  0  0  0  0
 20 21  1  6  0  0  0
 20 29  1  0  0  0  0
 22 23  1  1  0  0  0
 22 30  1  0  0  0  0
 24 25  1  1  0  0  0
 24 31  1  0  0  0  0
 26 33  1  0  0  0  0
 27 28  1  6  0  0  0
 27 34  1  0  0  0  0
 29  2  1  1  0  0  0
 29 36  1  0  0  0  0
 30 38  1  6  0  0  0
 31 32  1  1  0  0  0
 31 40  1  0  0  0  0
 33 42  2  0  0  0  0
 34 35  1  0  0  0  0
 34 43  1  6  0  0  0
 36 37  1  6  0  0  0
 36 45  1  0  0  0  0
 38 39  1  0  0  0  0
 40 41  1  0  0  0  0
 40 48  1  1  0  0  0
 43 44  1  0  0  0  0
 45 46  1  1  0  0  0
 47 50  1  0  0  0  0
 48 49  1  0  0  0  0
 50 51  1  0  0  0  0
 51 52  1  0  0  0  0
 52  8  1  0  0  0  0
M  END
>  <CHROM.1>
142.69847752,-153.89739860,57.65457068,67.91719651,-164.99721686,58.43816552
-165.15799765,-81.21260806,170.75215811,163.34668537,78.39179193,-171.38210477
-91.60983870,-55.98913641,154.37119891,42.23167793,3.43278833,-4.61998078
2.13686052,-1.07844895,-2.09251624

>  <Name>
2be0_lig

>  <RI>
2.10017e+07

>  <Rbt.Current_Directory>
/home/itssahil/PROJECTS/Mol_Feturizer/New_Systems/rnas/2be0

>  <Rbt.Executable>
rbdock ($Id: //depot/dev/client3/rdock/2013.1/src/exe/rbdock.cxx#4 $)

>  <Rbt.Library>
libRbt.so (2013.1, Build901 2013/11/27)

>  <Rbt.Parameter_File>
/export/apps/rDock/src/rDock_2013.1_src/data/scripts/dock_solv.prm

>  <Rbt.Receptor>
prm/pocket_docking_3.prm

>  <SCORE>
-12.0614

>  <SCORE.INTER>
-2.35774

>  <SCORE.INTER.CONST>
1

>  <SCORE.INTER.POLAR>
-0.773928

>  <SCORE.INTER.ROT>
15

>  <SCORE.INTER.SOLV>
12.0487

>  <SCORE.INTER.VDW>
-16.6083

>  <SCORE.INTER.norm>
-0.0453411

>  <SCORE.INTRA>
-12.0024

>  <SCORE.INTRA.DIHEDRAL>
-31.3614

>  <SCORE.INTRA.DIHEDRAL.0>
47.8724

>  <SCORE.INTRA.POLAR>
0

>  <SCORE.INTRA.POLAR.0>
0

>  <SCORE.INTRA.REPUL>
0.128958

>  <SCORE.INTRA.REPUL.0>
0

>  <SCORE.INTRA.SOLV>
3.90296

>  <SCORE.INTRA.SOLV.lig_0>
-115.677

>  <SCORE.INTRA.VDW>
1.08199

>  <SCORE.INTRA.VDW.0>
-7.4833

>  <SCORE.INTRA.norm>
-0.230816

>  <SCORE.RESTR>
2.29875

>  <SCORE.RESTR.CAVITY>
2.29875

>  <SCORE.RESTR.norm>
0.0442067

>  <SCORE.SYSTEM>
0

>  <SCORE.SYSTEM.CONST>
0

>  <SCORE.SYSTEM.DIHEDRAL>
0

>  <SCORE.SYSTEM.SOLV>
0

>  <SCORE.SYSTEM.norm>
0

>  <SCORE.heavy>
52

>  <SCORE.norm>
-0.231951

>  <RMSD>
8.988

$$$$
2be0_lig
 OpenBabel11021811423D
libRbt.so/2013.1/901 2013/11/27
 52 56  0  0  0  0  0  0  0  0999 V2000
   40.3526    0.3338   -3.8245 C   0  0  2  0  0  0  0  0  0  0  0  0
   41.5984    0.9824   -3.7243 O   0  0  0  0  0  0  0  0  0  0  0  0
   43.7203   -0.8372   -7.1240 C   0  0  2  0  0  0  0  0  0  0  0  0
   44.7085   -1.0009   -8.2267 N   0  0  0  0  0  0  0  0  0  0  0  0
   45.2103    0.2454   -3.1759 C   0  0  2  0  0  0  0  0  0  0  0  0
   45.5411    0.4897   -1.7934 O   0  0  0  0  0  0  0  0  0  0  0  0
   44.1696    4.5535   -3.9930 C   0  0  1  0  0  0  0  0  0  0  0  0
   49.1963    3.2670   -8.4328 C   0  0  0  0  0  0  0  0  0  0  0  0
   39.5493    0.4219   -2.4634 C   0  0  2  0  0  0  0  0  0  0  0  0
   39.4316    1.8210   -2.0471 N   0  0  0  0  0  0  0  0  0  0  0  0
   42.9122    0.5218   -7.3438 C   0  0  0  0  0  0  0  0  0  0  0  0
   45.1884    1.6143   -3.8747 C   0  0  2  0  0  0  0  0  0  0  0  0
   46.6208    1.8433   -4.2397 O   0  0  0  0  0  0  0  0  0  0  0  0
   45.0026    5.9439   -4.1119 C   0  0  2  0  0  0  0  0  0  0  0  0
   44.7955    6.7368   -2.8573 N   0  0  0  0  0  0  0  0  0  0  0  0
   48.8675    3.1859   -9.8257 C   0  0  0  0  0  0  0  0  0  0  0  0
   49.9064    3.1272  -10.7912 N   0  0  0  0  0  0  0  0  0  0  0  0
   40.2725   -0.4735   -1.3538 C   0  0  1  0  0  0  0  0  0  0  0  0
   39.5420   -0.3750   -0.1410 O   0  0  0  0  0  0  0  0  0  0  0  0
   41.8251    0.7464   -6.1448 C   0  0  2  0  0  0  0  0  0  0  0  0
   41.0896    1.9651   -6.3321 N   0  0  0  0  0  0  0  0  0  0  0  0
   44.5436    2.4436   -2.7480 C   0  0  2  0  0  0  0  0  0  0  0  0
   44.6650    3.8557   -2.8362 O   0  0  0  0  0  0  0  0  0  0  0  0
   44.4668    6.7177   -5.3542 C   0  0  1  0  0  0  0  0  0  0  0  0
   44.7356    5.8593   -6.5197 O   0  0  0  0  0  0  0  0  0  0  0  0
   51.2878    3.1465  -10.4458 C   0  0  0  0  0  0  0  0  0  0  0  0
   40.3434   -1.9401   -1.8699 C   0  0  2  0  0  0  0  0  0  0  0  0
   41.0103   -2.8213   -0.8811 O   0  0  0  0  0  0  0  0  0  0  0  0
   42.5680    0.7845   -4.7461 C   0  0  2  0  0  0  0  0  0  0  0  0
   45.1597    1.8410   -1.4630 C   0  0  1  0  0  0  0  0  0  0  0  0
   42.8738    7.0017   -5.1882 C   0  0  2  0  0  0  0  0  0  0  0  0
   42.5976    7.8589   -4.0248 O   0  0  0  0  0  0  0  0  0  0  0  0
   51.6737    3.2245   -9.0849 C   0  0  0  0  0  0  0  0  0  0  0  0
   41.1463   -2.0071   -3.2258 C   0  0  2  0  0  0  0  0  0  0  0  0
   40.4488   -1.1245   -4.1474 O   0  0  0  0  0  0  0  0  0  0  0  0
   43.3521   -0.5640   -4.5853 C   0  0  2  0  0  0  0  0  0  0  0  0
   43.9612   -0.4254   -3.3073 O   0  0  0  0  0  0  0  0  0  0  0  0
   44.1509    1.7523   -0.3191 C   0  0  0  0  0  0  0  0  0  0  0  0
   43.5124    2.9599    0.0203 O   0  0  0  0  0  0  0  0  0  0  0  0
   42.1006    5.6129   -5.0260 C   0  0  1  0  0  0  0  0  0  0  0  0
   42.6834    4.8744   -3.8387 O   0  0  0  0  0  0  0  0  0  0  0  0
   50.6271    3.2889   -8.0386 C   0  0  0  0  0  0  0  0  0  0  0  0
   41.1609   -3.4091   -3.6734 C   0  0  0  0  0  0  0  0  0  0  0  0
   39.9149   -3.7935   -3.9772 O   0  0  0  0  0  0  0  0  0  0  0  0
   44.4188   -0.7348   -5.7474 C   0  0  1  0  0  0  0  0  0  0  0  0
   45.0975   -1.9382   -5.5967 O   0  0  0  0  0  0  0  0  0  0  0  0
   47.4440    1.1117   -5.2313 C   0  0  0  0  0  0  0  0  0  0  0  0
   40.5929    5.9461   -4.8609 C   0  0  0  0  0  0  0  0  0  0  0  0
   39.8068    4.7379   -4.8296 N   0  0  0  0  0  0  0  0  0  0  0  0
   48.7660    1.8731   -5.3729 C   0  0  0  0  0  0  0  0  0  0  0  0
   48.4940    3.2525   -5.8925 N   0  0  0  0  0  0  0  0  0  0  0  0
   48.0003    3.3308   -7.3623 C   0  0  0  0  0  0  0  0  0  0  0  0
  1  2  1  1  0  0  0
  1  9  1  0  0  0  0
  1 35  1  0  0  0  0
  3  4  1  6  0  0  0
  3 11  1  0  0  0  0
  3 45  1  0  0  0  0
  5  6  1  0  0  0  0
  5 12  1  0  0  0  0
  5 37  1  1  0  0  0
  6 30  1  0  0  0  0
  7 14  1  0  0  0  0
  7 41  1  0  0  0  0
  7 23  1  1  0  0  0
  8 16  2  0  0  0  0
  8 42  1  0  0  0  0
  9 10  1  1  0  0  0
  9 18  1  0  0  0  0
 11 20  1  0  0  0  0
 12 13  1  1  0  0  0
 12 22  1  0  0  0  0
 13 47  1  0  0  0  0
 14 15  1  1  0  0  0
 14 24  1  0  0  0  0
 16 17  1  0  0  0  0
 17 26  2  0  0  0  0
 18 19  1  1  0  0  0
 18 27  1  0  0  0  0
 20 21  1  6  0  0  0
 20 29  1  0  0  0  0
 22 23  1  6  0  0  0
 22 30  1  0  0  0  0
 24 25  1  6  0  0  0
 24 31  1  0  0  0  0
 26 33  1  0  0  0  0
 27 28  1  1  0  0  0
 27 34  1  0  0  0  0
 29  2  1  1  0  0  0
 29 36  1  0  0  0  0
 30 38  1  1  0  0  0
 31 32  1  1  0  0  0
 31 40  1  0  0  0  0
 33 42  2  0  0  0  0
 34 35  1  0  0  0  0
 34 43  1  6  0  0  0
 36 37  1  1  0  0  0
 36 45  1  0  0  0  0
 38 39  1  0  0  0  0
 40 41  1  0  0  0  0
 40 48  1  1  0  0  0
 43 44  1  0  0  0  0
 45 46  1  1  0  0  0
 47 50  1  0  0  0  0
 48 49  1  0  0  0  0
 50 51  1  0  0  0  0
 51 52  1  0  0  0  0
 52  8  1  0  0  0  0
M  END
>  <CHROM.1>
167.58557422,169.71776977,-155.26737792,67.81566288,171.54439081,57.73755690
38.92289063,-171.25376807,65.72951448,-85.28391889,174.79827453,-62.09089946
-68.93324461,-82.36508498,173.42775476,43.99800296,1.85371872,-4.57999989
-2.76974058,0.61935974,0.07228238

>  <Name>
2be0_lig

>  <RI>
0

>  <Rbt.Current_Directory>
/home/itssahil/PROJECTS/Mol_Feturizer/New_Systems/rnas/2be0

>  <Rbt.Executable>
rbdock ($Id: //depot/dev/client3/rdock/2013.1/src/exe/rbdock.cxx#4 $)

>  <Rbt.Library>
libRbt.so (2013.1, Build901 2013/11/27)

>  <Rbt.Parameter_File>
/export/apps/rDock/src/rDock_2013.1_src/data/scripts/dock_solv.prm

>  <Rbt.Receptor>
prm/pocket_docking_7.prm

>  <SCORE>
-19.6619

>  <SCORE.INTER>
-4.52084

>  <SCORE.INTER.CONST>
1

>  <SCORE.INTER.POLAR>
-0.894427

>  <SCORE.INTER.ROT>
15

>  <SCORE.INTER.SOLV>
10.4844

>  <SCORE.INTER.VDW>
-17.1273

>  <SCORE.INTER.norm>
-0.0869392

>  <SCORE.INTRA>
-15.1411

>  <SCORE.INTRA.DIHEDRAL>
-36.5399

>  <SCORE.INTRA.DIHEDRAL.0>
47.8724

>  <SCORE.INTRA.POLAR>
0

>  <SCORE.INTRA.POLAR.0>
0

>  <SCORE.INTRA.REPUL>
0

>  <SCORE.INTRA.REPUL.0>
0

>  <SCORE.INTRA.SOLV>
-0.366276

>  <SCORE.INTRA.SOLV.lig_0>
-115.677

>  <SCORE.INTRA.VDW>
3.31203

>  <SCORE.INTRA.VDW.0>
-7.4833

>  <SCORE.INTRA.norm>
-0.291174

>  <SCORE.RESTR>
0

>  <SCORE.RESTR.CAVITY>
0

>  <SCORE.RESTR.norm>
0

>  <SCORE.SYSTEM>
0

>  <SCORE.SYSTEM.CONST>
0

>  <SCORE.SYSTEM.DIHEDRAL>
0

>  <SCORE.SYSTEM.SOLV>
0

>  <SCORE.SYSTEM.norm>
0

>  <SCORE.heavy>
52

>  <SCORE.norm>
-0.378113

>  <RMSD>
8.995

$$$$
2be0_lig
 OpenBabel11021811423D
libRbt.so/2013.1/901 2013/11/27
 52 56  0  0  0  0  0  0  0  0999 V2000
   42.9491    2.6426   -1.9648 C   0  0  2  0  0  0  0  0  0  0  0  0
   41.6216    2.9112   -2.3500 O   0  0  0  0  0  0  0  0  0  0  0  0
   39.2543    1.0833   -5.5789 C   0  0  2  0  0  0  0  0  0  0  0  0
   38.7822    0.7659   -6.9558 N   0  0  0  0  0  0  0  0  0  0  0  0
   43.0495   -0.6435   -3.9750 C   0  0  2  0  0  0  0  0  0  0  0  0
   43.8078   -1.1874   -2.8752 O   0  0  0  0  0  0  0  0  0  0  0  0
   47.1623    0.5729   -5.9030 C   0  0  1  0  0  0  0  0  0  0  0  0
   40.8548   -6.2274   -6.6543 C   0  0  0  0  0  0  0  0  0  0  0  0
   43.2319    3.1478   -0.4915 C   0  0  2  0  0  0  0  0  0  0  0  0
   42.2452    2.5752    0.4266 N   0  0  0  0  0  0  0  0  0  0  0  0
   39.1785    2.6615   -5.3512 C   0  0  0  0  0  0  0  0  0  0  0  0
   43.9764   -0.6561   -5.2011 C   0  0  2  0  0  0  0  0  0  0  0  0
   43.8126   -2.0383   -5.7489 O   0  0  0  0  0  0  0  0  0  0  0  0
   46.1993    1.0334   -7.1285 C   0  0  2  0  0  0  0  0  0  0  0  0
   45.9745   -0.1419   -8.0306 N   0  0  0  0  0  0  0  0  0  0  0  0
   40.3910   -6.2180   -5.2980 C   0  0  0  0  0  0  0  0  0  0  0  0
   39.0182   -6.4519   -5.0226 N   0  0  0  0  0  0  0  0  0  0  0  0
   43.2213    4.7462   -0.4602 C   0  0  1  0  0  0  0  0  0  0  0  0
   43.4689    5.1780    0.8688 O   0  0  0  0  0  0  0  0  0  0  0  0
   39.7024    3.0537   -3.8540 C   0  0  2  0  0  0  0  0  0  0  0  0
   39.6371    4.4712   -3.6356 N   0  0  0  0  0  0  0  0  0  0  0  0
   45.2923   -0.2593   -4.5057 C   0  0  2  0  0  0  0  0  0  0  0  0
   46.4968   -0.5031   -5.2173 O   0  0  0  0  0  0  0  0  0  0  0  0
   46.9141    2.1906   -7.8895 C   0  0  1  0  0  0  0  0  0  0  0  0
   47.0667    3.2872   -6.9193 O   0  0  0  0  0  0  0  0  0  0  0  0
   38.0542   -6.6991   -6.0413 C   0  0  0  0  0  0  0  0  0  0  0  0
   44.3031    5.2681   -1.4500 C   0  0  2  0  0  0  0  0  0  0  0  0
   44.3382    6.7505   -1.4678 O   0  0  0  0  0  0  0  0  0  0  0  0
   41.1932    2.5549   -3.6588 C   0  0  2  0  0  0  0  0  0  0  0  0
   45.2110   -0.9887   -3.1436 C   0  0  1  0  0  0  0  0  0  0  0  0
   48.3597    1.6859   -8.4385 C   0  0  2  0  0  0  0  0  0  0  0  0
   48.2149    0.5894   -9.4086 O   0  0  0  0  0  0  0  0  0  0  0  0
   38.4540   -6.7217   -7.4002 C   0  0  0  0  0  0  0  0  0  0  0  0
   44.0047    4.7543   -2.9109 C   0  0  2  0  0  0  0  0  0  0  0  0
   43.9794    3.3027   -2.8268 O   0  0  0  0  0  0  0  0  0  0  0  0
   41.2142    1.0060   -3.9032 C   0  0  2  0  0  0  0  0  0  0  0  0
   42.5803    0.6707   -3.6915 O   0  0  0  0  0  0  0  0  0  0  0  0
   45.7692   -0.1469   -1.9974 C   0  0  0  0  0  0  0  0  0  0  0  0
   47.1181    0.2339   -2.1267 O   0  0  0  0  0  0  0  0  0  0  0  0
   49.2543    1.1978   -7.2080 C   0  0  1  0  0  0  0  0  0  0  0  0
   48.5033    0.1086   -6.4702 O   0  0  0  0  0  0  0  0  0  0  0  0
   39.8757   -6.4824   -7.7403 C   0  0  0  0  0  0  0  0  0  0  0  0
   45.0682    5.2598   -3.7938 C   0  0  0  0  0  0  0  0  0  0  0  0
   44.7919    4.9270   -5.0610 O   0  0  0  0  0  0  0  0  0  0  0  0
   40.7293    0.6636   -5.3746 C   0  0  1  0  0  0  0  0  0  0  0  0
   40.7437   -0.7120   -5.5720 O   0  0  0  0  0  0  0  0  0  0  0  0
   44.4747   -2.6427   -6.9290 C   0  0  0  0  0  0  0  0  0  0  0  0
   50.6116    0.7193   -7.7914 C   0  0  0  0  0  0  0  0  0  0  0  0
   50.4628   -0.5606   -8.4384 N   0  0  0  0  0  0  0  0  0  0  0  0
   44.2591   -4.1572   -6.8433 C   0  0  0  0  0  0  0  0  0  0  0  0
   42.7912   -4.4558   -6.8958 N   0  0  0  0  0  0  0  0  0  0  0  0
   42.4136   -5.9611   -6.9363 C   0  0  0  0  0  0  0  0  0  0  0  0
  1  2  1  6  0  0  0
  1  9  1  0  0  0  0
  1 35  1  0  0  0  0
  3  4  1  6  0  0  0
  3 11  1  0  0  0  0
  3 45  1  0  0  0  0
  5  6  1  0  0  0  0
  5 12  1  0  0  0  0
  5 37  1  1  0  0  0
  6 30  1  0  0  0  0
  7 14  1  0  0  0  0
  7 41  1  0  0  0  0
  7 23  1  6  0  0  0
  8 16  2  0  0  0  0
  8 42  1  0  0  0  0
  9 10  1  1  0  0  0
  9 18  1  0  0  0  0
 11 20  1  0  0  0  0
 12 13  1  1  0  0  0
 12 22  1  0  0  0  0
 13 47  1  0  0  0  0
 14 15  1  6  0  0  0
 14 24  1  0  0  0  0
 16 17  1  0  0  0  0
 17 26  2  0  0  0  0
 18 19  1  1  0  0  0
 18 27  1  0  0  0  0
 20 21  1  6  0  0  0
 20 29  1  0  0  0  0
 22 23  1  6  0  0  0
 22 30  1  0  0  0  0
 24 25  1  1  0  0  0
 24 31  1  0  0  0  0
 26 33  1  0  0  0  0
 27 28  1  6  0  0  0
 27 34  1  0  0  0  0
 29  2  1  1  0  0  0
 29 36  1  0  0  0  0
 30 38  1  1  0  0  0
 31 32  1  6  0  0  0
 31 40  1  0  0  0  0
 33 42  2  0  0  0  0
 34 35  1  0  0  0  0
 34 43  1  6  0  0  0
 36 37  1  6  0  0  0
 36 45  1  0  0  0  0
 38 39  1  0  0  0  0
 40 41  1  0  0  0  0
 40 48  1  6  0  0  0
 43 44  1  0  0  0  0
 45 46  1  1  0  0  0
 47 50  1  0  0  0  0
 48 49  1  0  0  0  0
 50 51  1  0  0  0  0
 51 52  1  0  0  0  0
 52  8  1  0  0  0  0
M  END
>  <CHROM.1>
178.53135731,-130.47912223,-66.98196117,-179.30438016,165.24466139,100.79443651
-176.27791825,-175.80300630,-175.35412686,-172.57600235,-74.72354952,61.71732903
175.19098018,166.83804185,-79.99746236,43.72140396,0.38089873,-4.84318809
1.17238557,0.38802895,0.53980925

>  <Name>
2be0_lig

>  <RI>
0

>  <Rbt.Current_Directory>
/home/itssahil/PROJECTS/Mol_Feturizer/New_Systems/rnas/2be0

>  <Rbt.Executable>
rbdock ($Id: //depot/dev/client3/rdock/2013.1/src/exe/rbdock.cxx#4 $)

>  <Rbt.Library>
libRbt.so (2013.1, Build901 2013/11/27)

>  <Rbt.Parameter_File>
/export/apps/rDock/src/rDock_2013.1_src/data/scripts/dock_solv.prm

>  <Rbt.Receptor>
prm/pocket_docking_7.prm

>  <SCORE>
-16.6539

>  <SCORE.INTER>
-2.13726

>  <SCORE.INTER.CONST>
1

>  <SCORE.INTER.POLAR>
-0.894427

>  <SCORE.INTER.ROT>
15

>  <SCORE.INTER.SOLV>
7.64778

>  <SCORE.INTER.VDW>
-14.5927

>  <SCORE.INTER.norm>
-0.0411012

>  <SCORE.INTRA>
-14.5166

>  <SCORE.INTRA.DIHEDRAL>
-31.8095

>  <SCORE.INTRA.DIHEDRAL.0>
47.8724

>  <SCORE.INTRA.POLAR>
0

>  <SCORE.INTRA.POLAR.0>
0

>  <SCORE.INTRA.REPUL>
0.00360377

>  <SCORE.INTRA.REPUL.0>
0

>  <SCORE.INTRA.SOLV>
-0.336198

>  <SCORE.INTRA.SOLV.lig_0>
-115.677

>  <SCORE.INTRA.VDW>
1.53822

>  <SCORE.INTRA.VDW.0>
-7.4833

>  <SCORE.INTRA.norm>
-0.279166

>  <SCORE.RESTR>
0

>  <SCORE.RESTR.CAVITY>
0

>  <SCORE.RESTR.norm>
0

>  <SCORE.SYSTEM>
0

>  <SCORE.SYSTEM.CONST>
0

>  <SCORE.SYSTEM.DIHEDRAL>
0

>  <SCORE.SYSTEM.SOLV>
0

>  <SCORE.SYSTEM.norm>
0

>  <SCORE.heavy>
52

>  <SCORE.norm>
-0.320267

>  <RMSD>
9.005

$$$$
2be0_lig
 OpenBabel11021811423D
libRbt.so/2013.1/901 2013/11/27
 52 56  0  0  0  0  0  0  0  0999 V2000
   43.1337    2.5561   -3.6536 C   0  0  2  0  0  0  0  0  0  0  0  0
   44.2777    2.5339   -2.8329 O   0  0  0  0  0  0  0  0  0  0  0  0
   48.4889    1.3771   -3.3790 C   0  0  2  0  0  0  0  0  0  0  0  0
   49.6733    0.5658   -3.7770 N   0  0  0  0  0  0  0  0  0  0  0  0
   45.1761    2.0039   -6.2240 C   0  0  2  0  0  0  0  0  0  0  0  0
   46.1812    1.8484   -7.2468 O   0  0  0  0  0  0  0  0  0  0  0  0
   43.2786    2.5761  -10.0696 C   0  0  1  0  0  0  0  0  0  0  0  0
   43.9503   -2.1885   -6.2039 C   0  0  0  0  0  0  0  0  0  0  0  0
   41.9532    3.3590   -2.9700 C   0  0  2  0  0  0  0  0  0  0  0  0
   42.4146    4.6985   -2.5992 N   0  0  0  0  0  0  0  0  0  0  0  0
   47.5570    0.5056   -2.4196 C   0  0  0  0  0  0  0  0  0  0  0  0
   43.8706    2.3848   -6.9401 C   0  0  2  0  0  0  0  0  0  0  0  0
   43.2900    1.0638   -7.3344 O   0  0  0  0  0  0  0  0  0  0  0  0
   44.4568    2.5167  -11.1875 C   0  0  2  0  0  0  0  0  0  0  0  0
   44.5538    3.8550  -11.8548 N   0  0  0  0  0  0  0  0  0  0  0  0
   44.9669   -2.7165   -7.0656 C   0  0  0  0  0  0  0  0  0  0  0  0
   46.3205   -2.3351   -6.8723 N   0  0  0  0  0  0  0  0  0  0  0  0
   41.4087    2.5431   -1.7076 C   0  0  1  0  0  0  0  0  0  0  0  0
   40.3576    3.2824   -1.1054 O   0  0  0  0  0  0  0  0  0  0  0  0
   46.2363    1.3565   -1.9706 C   0  0  2  0  0  0  0  0  0  0  0  0
   45.3904    0.5841   -1.1051 N   0  0  0  0  0  0  0  0  0  0  0  0
   44.4563    3.3159   -8.0184 C   0  0  2  0  0  0  0  0  0  0  0  0
   43.6288    3.6117   -9.1339 O   0  0  0  0  0  0  0  0  0  0  0  0
   44.0839    1.4073  -12.2167 C   0  0  1  0  0  0  0  0  0  0  0  0
   44.0331    0.1456  -11.4599 O   0  0  0  0  0  0  0  0  0  0  0  0
   46.7340   -1.4357   -5.8485 C   0  0  0  0  0  0  0  0  0  0  0  0
   40.9294    1.1437   -2.1916 C   0  0  2  0  0  0  0  0  0  0  0  0
   40.4148    0.3358   -1.0595 O   0  0  0  0  0  0  0  0  0  0  0  0
   45.4200    1.7984   -3.2543 C   0  0  2  0  0  0  0  0  0  0  0  0
   45.7926    2.6321   -8.3937 C   0  0  1  0  0  0  0  0  0  0  0  0
   42.6457    1.7419  -12.8989 C   0  0  2  0  0  0  0  0  0  0  0  0
   42.6888    3.0021  -13.6569 O   0  0  0  0  0  0  0  0  0  0  0  0
   45.7740   -0.8825   -4.9656 C   0  0  0  0  0  0  0  0  0  0  0  0
   42.1183    0.3600   -2.8697 C   0  0  2  0  0  0  0  0  0  0  0  0
   42.5792    1.2007   -3.9631 O   0  0  0  0  0  0  0  0  0  0  0  0
   46.3807    2.6391   -4.1649 C   0  0  2  0  0  0  0  0  0  0  0  0
   45.5493    2.9881   -5.2651 O   0  0  0  0  0  0  0  0  0  0  0  0
   46.9128    3.6402   -8.6450 C   0  0  0  0  0  0  0  0  0  0  0  0
   48.1443    3.0896   -9.0465 O   0  0  0  0  0  0  0  0  0  0  0  0
   41.5279    1.8390  -11.7613 C   0  0  1  0  0  0  0  0  0  0  0  0
   41.9523    2.8931  -10.7595 O   0  0  0  0  0  0  0  0  0  0  0  0
   44.3476   -1.2485   -5.1261 C   0  0  0  0  0  0  0  0  0  0  0  0
   41.6011   -0.9408   -3.3242 C   0  0  0  0  0  0  0  0  0  0  0  0
   41.4105   -1.7394   -2.2665 O   0  0  0  0  0  0  0  0  0  0  0  0
   47.6352    1.7738   -4.6066 C   0  0  1  0  0  0  0  0  0  0  0  0
   48.4813    2.5354   -5.4037 O   0  0  0  0  0  0  0  0  0  0  0  0
   41.9202    0.7705   -7.8182 C   0  0  0  0  0  0  0  0  0  0  0  0
   40.1850    2.1698  -12.4675 C   0  0  0  0  0  0  0  0  0  0  0  0
   39.0790    2.0044  -11.5574 N   0  0  0  0  0  0  0  0  0  0  0  0
   41.8490   -0.7353   -8.0918 C   0  0  0  0  0  0  0  0  0  0  0  0
   41.4961   -1.4562   -6.8259 N   0  0  0  0  0  0  0  0  0  0  0  0
   42.4273   -2.6385   -6.4449 C   0  0  0  0  0  0  0  0  0  0  0  0
  1  2  1  1  0  0  0
  1  9  1  0  0  0  0
  1 35  1  0  0  0  0
  3  4  1  6  0  0  0
  3 11  1  0  0  0  0
  3 45  1  0  0  0  0
  5  6  1  0  0  0  0
  5 12  1  0  0  0  0
  5 37  1  1  0  0  0
  6 30  1  0  0  0  0
  7 14  1  0  0  0  0
  7 41  1  0  0  0  0
  7 23  1  1  0  0  0
  8 16  2  0  0  0  0
  8 42  1  0  0  0  0
  9 10  1  1  0  0  0
  9 18  1  0  0  0  0
 11 20  1  0  0  0  0
 12 13  1  6  0  0  0
 12 22  1  0  0  0  0
 13 47  1  0  0  0  0
 14 15  1  6  0  0  0
 14 24  1  0  0  0  0
 16 17  1  0  0  0  0
 17 26  2  0  0  0  0
 18 19  1  6  0  0  0
 18 27  1  0  0  0  0
 20 21  1  1  0  0  0
 20 29  1  0  0  0  0
 22 23  1  6  0  0  0
 22 30  1  0  0  0  0
 24 25  1  1  0  0  0
 24 31  1  0  0  0  0
 26 33  1  0  0  0  0
 27 28  1  1  0  0  0
 27 34  1  0  0  0  0
 29  2  1  1  0  0  0
 29 36  1  0  0  0  0
 30 38  1  1  0  0  0
 31 32  1  1  0  0  0
 31 40  1  0  0  0  0
 33 42  2  0  0  0  0
 34 35  1  0  0  0  0
 34 43  1  6  0  0  0
 36 37  1  6  0  0  0
 36 45  1  0  0  0  0
 38 39  1  0  0  0  0
 40 41  1  0  0  0  0
 40 48  1  6  0  0  0
 43 44  1  0  0  0  0
 45 46  1  6  0  0  0
 47 50  1  0  0  0  0
 48 49  1  0  0  0  0
 50 51  1  0  0  0  0
 51 52  1  0  0  0  0
 52  8  1  0  0  0  0
M  END
>  <CHROM.1>
176.85219336,-84.87518176,-87.28379000,166.90321166,179.53212722,-67.01878065
-153.43149950,66.30950190,-73.63463340,-72.55837663,168.14437061,86.09857416
-128.80990484,61.10581765,-117.31232541,44.00160243,1.34252100,-6.39607912
1.45440372,0.08998222,1.70189739

>  <Name>
2be0_lig

>  <RI>
0

>  <Rbt.Current_Directory>
/home/itssahil/PROJECTS/Mol_Feturizer/New_Systems/rnas/2be0

>  <Rbt.Executable>
rbdock ($Id: //depot/dev/client3/rdock/2013.1/src/exe/rbdock.cxx#4 $)

>  <Rbt.Library>
libRbt.so (2013.1, Build901 2013/11/27)

>  <Rbt.Parameter_File>
/export/apps/rDock/src/rDock_2013.1_src/data/scripts/dock_solv.prm

>  <Rbt.Receptor>
prm/pocket_docking_7.prm

>  <SCORE>
-17.758

>  <SCORE.INTER>
1.85128

>  <SCORE.INTER.CONST>
1

>  <SCORE.INTER.POLAR>
-0.634296

>  <SCORE.INTER.ROT>
15

>  <SCORE.INTER.SOLV>
14.7641

>  <SCORE.INTER.VDW>
-15.1729

>  <SCORE.INTER.norm>
0.0356015

>  <SCORE.INTRA>
-19.6092

>  <SCORE.INTRA.DIHEDRAL>
-31.589

>  <SCORE.INTRA.DIHEDRAL.0>
47.8724

>  <SCORE.INTRA.POLAR>
0

>  <SCORE.INTRA.POLAR.0>
0

>  <SCORE.INTRA.REPUL>
0

>  <SCORE.INTRA.REPUL.0>
0

>  <SCORE.INTRA.SOLV>
0.296578

>  <SCORE.INTRA.SOLV.lig_0>
-115.677

>  <SCORE.INTRA.VDW>
-3.96306

>  <SCORE.INTRA.VDW.0>
-7.4833

>  <SCORE.INTRA.norm>
-0.377101

>  <SCORE.RESTR>
0

>  <SCORE.RESTR.CAVITY>
0

>  <SCORE.RESTR.norm>
0

>  <SCORE.SYSTEM>
0

>  <SCORE.SYSTEM.CONST>
0

>  <SCORE.SYSTEM.DIHEDRAL>
0

>  <SCORE.SYSTEM.SOLV>
0

>  <SCORE.SYSTEM.norm>
0

>  <SCORE.heavy>
52

>  <SCORE.norm>
-0.341499

>  <RMSD>
9.009

$$$$
2be0_lig
 OpenBabel11021811423D
libRbt.so/2013.1/901 2013/11/27
 52 56  0  0  0  0  0  0  0  0999 V2000
   38.7139   -0.6593   -6.2840 C   0  0  2  0  0  0  0  0  0  0  0  0
   39.3560   -1.0436   -7.4769 O   0  0  0  0  0  0  0  0  0  0  0  0
   43.6723   -1.4044   -8.2583 C   0  0  2  0  0  0  0  0  0  0  0  0
   45.0801   -1.0004   -8.5309 N   0  0  0  0  0  0  0  0  0  0  0  0
   41.9018   -0.9886   -4.1821 C   0  0  2  0  0  0  0  0  0  0  0  0
   42.0405   -2.3905   -3.8724 O   0  0  0  0  0  0  0  0  0  0  0  0
   38.7196   -0.3323   -1.0291 C   0  0  1  0  0  0  0  0  0  0  0  0
   47.1643    0.5349   -3.0796 C   0  0  0  0  0  0  0  0  0  0  0  0
   37.1540   -0.9166   -6.3641 C   0  0  2  0  0  0  0  0  0  0  0  0
   36.9001   -2.3134   -6.7236 N   0  0  0  0  0  0  0  0  0  0  0  0
   42.7235   -0.7843   -9.3824 C   0  0  0  0  0  0  0  0  0  0  0  0
   41.1846   -0.3399   -2.9874 C   0  0  2  0  0  0  0  0  0  0  0  0
   42.2969   -0.0372   -2.0343 O   0  0  0  0  0  0  0  0  0  0  0  0
   38.2819   -0.5481    0.5211 C   0  0  2  0  0  0  0  0  0  0  0  0
   37.5603   -1.8562    0.6389 N   0  0  0  0  0  0  0  0  0  0  0  0
   48.2689   -0.3062   -3.4363 C   0  0  0  0  0  0  0  0  0  0  0  0
   49.4980    0.2796   -3.8378 N   0  0  0  0  0  0  0  0  0  0  0  0
   36.4947    0.0991   -7.4078 C   0  0  1  0  0  0  0  0  0  0  0  0
   35.0994   -0.1528   -7.4703 O   0  0  0  0  0  0  0  0  0  0  0  0
   41.1650   -1.1933   -9.1111 C   0  0  2  0  0  0  0  0  0  0  0  0
   40.3010   -0.6432  -10.1173 N   0  0  0  0  0  0  0  0  0  0  0  0
   40.1891   -1.4711   -2.6677 C   0  0  2  0  0  0  0  0  0  0  0  0
   39.5641   -1.4391   -1.3930 O   0  0  0  0  0  0  0  0  0  0  0  0
   37.3547    0.6375    0.9257 C   0  0  1  0  0  0  0  0  0  0  0  0
   38.1659    1.8583    0.7887 O   0  0  0  0  0  0  0  0  0  0  0  0
   49.6989    1.6876   -3.9094 C   0  0  0  0  0  0  0  0  0  0  0  0
   36.8008    1.5531   -6.9448 C   0  0  2  0  0  0  0  0  0  0  0  0
   36.2155    2.5444   -7.8796 O   0  0  0  0  0  0  0  0  0  0  0  0
   40.7143   -0.6753   -7.6836 C   0  0  2  0  0  0  0  0  0  0  0  0
   41.0111   -2.7555   -2.9302 C   0  0  1  0  0  0  0  0  0  0  0  0
   36.0534    0.6838   -0.0492 C   0  0  2  0  0  0  0  0  0  0  0  0
   35.2379   -0.5335    0.0821 O   0  0  0  0  0  0  0  0  0  0  0  0
   48.6438    2.5690   -3.5677 C   0  0  0  0  0  0  0  0  0  0  0  0
   38.3584    1.7897   -6.8708 C   0  0  2  0  0  0  0  0  0  0  0  0
   38.8710    0.7904   -5.9469 O   0  0  0  0  0  0  0  0  0  0  0  0
   41.6815   -1.3029   -6.6207 C   0  0  2  0  0  0  0  0  0  0  0  0
   41.1813   -0.7862   -5.3934 O   0  0  0  0  0  0  0  0  0  0  0  0
   40.1784   -3.8569   -3.5842 C   0  0  0  0  0  0  0  0  0  0  0  0
   40.8537   -5.0699   -3.8159 O   0  0  0  0  0  0  0  0  0  0  0  0
   36.5310    0.8478   -1.5651 C   0  0  1  0  0  0  0  0  0  0  0  0
   37.4650   -0.2966   -1.9010 O   0  0  0  0  0  0  0  0  0  0  0  0
   47.3405    2.0073   -3.1430 C   0  0  0  0  0  0  0  0  0  0  0  0
   38.5845    3.1686   -6.4087 C   0  0  0  0  0  0  0  0  0  0  0  0
   39.8988    3.3822   -6.2683 O   0  0  0  0  0  0  0  0  0  0  0  0
   43.1803   -0.8610   -6.8959 C   0  0  1  0  0  0  0  0  0  0  0  0
   44.0255   -1.4332   -5.9526 O   0  0  0  0  0  0  0  0  0  0  0  0
   43.0943    1.2066   -1.9188 C   0  0  0  0  0  0  0  0  0  0  0  0
   35.2526    0.8745   -2.4464 C   0  0  0  0  0  0  0  0  0  0  0  0
   34.6985   -0.4501   -2.5770 N   0  0  0  0  0  0  0  0  0  0  0  0
   43.8235    1.4027   -3.2520 C   0  0  0  0  0  0  0  0  0  0  0  0
   44.6033    0.1656   -3.5808 N   0  0  0  0  0  0  0  0  0  0  0  0
   45.7860   -0.1553   -2.6277 C   0  0  0  0  0  0  0  0  0  0  0  0
  1  2  1  6  0  0  0
  1  9  1  0  0  0  0
  1 35  1  0  0  0  0
  3  4  1  6  0  0  0
  3 11  1  0  0  0  0
  3 45  1  0  0  0  0
  5  6  1  0  0  0  0
  5 12  1  0  0  0  0
  5 37  1  6  0  0  0
  6 30  1  0  0  0  0
  7 14  1  0  0  0  0
  7 41  1  0  0  0  0
  7 23  1  6  0  0  0
  8 16  2  0  0  0  0
  8 42  1  0  0  0  0
  9 10  1  6  0  0  0
  9 18  1  0  0  0  0
 11 20  1  0  0  0  0
 12 13  1  1  0  0  0
 12 22  1  0  0  0  0
 13 47  1  0  0  0  0
 14 15  1  6  0  0  0
 14 24  1  0  0  0  0
 16 17  1  0  0  0  0
 17 26  2  0  0  0  0
 18 19  1  1  0  0  0
 18 27  1  0  0  0  0
 20 21  1  6  0  0  0
 20 29  1  0  0  0  0
 22 23  1  1  0  0  0
 22 30  1  0  0  0  0
 24 25  1  6  0  0  0
 24 31  1  0  0  0  0
 26 33  1  0  0  0  0
 27 28  1  6  0  0  0
 27 34  1  0  0  0  0
 29  2  1  1  0  0  0
 29 36  1  0  0  0  0
 30 38  1  6  0  0  0
 31 32  1  6  0  0  0
 31 40  1  0  0  0  0
 33 42  2  0  0  0  0
 34 35  1  0  0  0  0
 34 43  1  1  0  0  0
 36 37  1  1  0  0  0
 36 45  1  0  0  0  0
 38 39  1  0  0  0  0
 40 41  1  0  0  0  0
 40 48  1  6  0  0  0
 43 44  1  0  0  0  0
 45 46  1  1  0  0  0
 47 50  1  0  0  0  0
 48 49  1  0  0  0  0
 50 51  1  0  0  0  0
 51 52  1  0  0  0  0
 52  8  1  0  0  0  0
M  END
>  <CHROM.1>
169.11376012,-61.08512326,-175.08531132,91.41536113,-61.48569725,62.01165061
-178.29046821,65.54885715,176.84439950,-171.87654078,-75.31965980,-54.09485067
-66.28976140,-88.88865674,-117.08716859,40.66260058,-0.20121863,-4.35071691
3.00409194,0.02049437,1.54722553

>  <Name>
2be0_lig

>  <RI>
3.37048e+07

>  <Rbt.Current_Directory>
/home/itssahil/PROJECTS/Mol_Feturizer/New_Systems/rnas/2be0

>  <Rbt.Executable>
rbdock ($Id: //depot/dev/client3/rdock/2013.1/src/exe/rbdock.cxx#4 $)

>  <Rbt.Library>
libRbt.so (2013.1, Build901 2013/11/27)

>  <Rbt.Parameter_File>
/export/apps/rDock/src/rDock_2013.1_src/data/scripts/dock_solv.prm

>  <Rbt.Receptor>
prm/pocket_docking_8.prm

>  <SCORE>
-22.7549

>  <SCORE.INTER>
-4.24773

>  <SCORE.INTER.CONST>
1

>  <SCORE.INTER.POLAR>
-0.701582

>  <SCORE.INTER.ROT>
15

>  <SCORE.INTER.SOLV>
7.46327

>  <SCORE.INTER.VDW>
-16.581

>  <SCORE.INTER.norm>
-0.0816871

>  <SCORE.INTRA>
-18.5072

>  <SCORE.INTRA.DIHEDRAL>
-40.4994

>  <SCORE.INTRA.DIHEDRAL.0>
47.8724

>  <SCORE.INTRA.POLAR>
0

>  <SCORE.INTRA.POLAR.0>
0

>  <SCORE.INTRA.REPUL>
0

>  <SCORE.INTRA.REPUL.0>
0

>  <SCORE.INTRA.SOLV>
-0.784557

>  <SCORE.INTRA.SOLV.lig_0>
-115.677

>  <SCORE.INTRA.VDW>
2.13478

>  <SCORE.INTRA.VDW.0>
-7.4833

>  <SCORE.INTRA.norm>
-0.355908

>  <SCORE.RESTR>
0

>  <SCORE.RESTR.CAVITY>
0

>  <SCORE.RESTR.norm>
0

>  <SCORE.SYSTEM>
0

>  <SCORE.SYSTEM.CONST>
0

>  <SCORE.SYSTEM.DIHEDRAL>
0

>  <SCORE.SYSTEM.SOLV>
0

>  <SCORE.SYSTEM.norm>
0

>  <SCORE.heavy>
52

>  <SCORE.norm>
-0.437595

>  <RMSD>
9.012

$$$$
2be0_lig
 OpenBabel11021811423D
libRbt.so/2013.1/901 2013/11/27
 52 56  0  0  0  0  0  0  0  0999 V2000
   41.1598    8.7799   -1.8755 C   0  0  2  0  0  0  0  0  0  0  0  0
   41.5156    7.6755   -1.0777 O   0  0  0  0  0  0  0  0  0  0  0  0
   39.4211    4.0456    0.2670 C   0  0  2  0  0  0  0  0  0  0  0  0
   38.3620    3.1862    0.8662 N   0  0  0  0  0  0  0  0  0  0  0  0
   40.4176    6.7576   -3.7963 C   0  0  2  0  0  0  0  0  0  0  0  0
   39.6757    6.8200   -5.0316 O   0  0  0  0  0  0  0  0  0  0  0  0
   41.3934    2.2856   -4.8428 C   0  0  1  0  0  0  0  0  0  0  0  0
   44.8163    7.2418   -8.8663 C   0  0  0  0  0  0  0  0  0  0  0  0
   42.3888    9.7551   -2.0855 C   0  0  2  0  0  0  0  0  0  0  0  0
   43.5282    9.0079   -2.6222 N   0  0  0  0  0  0  0  0  0  0  0  0
   39.8963    5.1197    1.3481 C   0  0  0  0  0  0  0  0  0  0  0  0
   41.4622    5.6424   -3.9627 C   0  0  2  0  0  0  0  0  0  0  0  0
   42.6062    6.3325   -4.6352 O   0  0  0  0  0  0  0  0  0  0  0  0
   42.1537    2.4527   -3.4162 C   0  0  2  0  0  0  0  0  0  0  0  0
   43.5057    3.0515   -3.6596 N   0  0  0  0  0  0  0  0  0  0  0  0
   45.4757    8.5020   -8.6872 C   0  0  0  0  0  0  0  0  0  0  0  0
   45.0327    9.6372   -9.4153 N   0  0  0  0  0  0  0  0  0  0  0  0
   42.7442   10.4770   -0.7040 C   0  0  1  0  0  0  0  0  0  0  0  0
   43.8517   11.3398   -0.9119 O   0  0  0  0  0  0  0  0  0  0  0  0
   41.0506    6.0936    0.7243 C   0  0  2  0  0  0  0  0  0  0  0  0
   41.4885    7.0635    1.6881 N   0  0  0  0  0  0  0  0  0  0  0  0
   40.6061    4.6337   -4.7517 C   0  0  2  0  0  0  0  0  0  0  0  0
   41.2959    3.5951   -5.4314 O   0  0  0  0  0  0  0  0  0  0  0  0
   42.2788    1.0389   -2.7724 C   0  0  1  0  0  0  0  0  0  0  0  0
   40.9026    0.5590   -2.5652 O   0  0  0  0  0  0  0  0  0  0  0  0
   43.9469    9.5927  -10.3357 C   0  0  0  0  0  0  0  0  0  0  0  0
   41.4881   11.2544   -0.2140 C   0  0  2  0  0  0  0  0  0  0  0  0
   41.7562   11.9445    1.0709 O   0  0  0  0  0  0  0  0  0  0  0  0
   40.4915    6.8356   -0.5588 C   0  0  2  0  0  0  0  0  0  0  0  0
   39.7575    5.5343   -5.6805 C   0  0  1  0  0  0  0  0  0  0  0  0
   43.1042    0.0475   -3.7633 C   0  0  2  0  0  0  0  0  0  0  0  0
   44.4808    0.5212   -3.9753 O   0  0  0  0  0  0  0  0  0  0  0  0
   43.2562    8.3751  -10.5533 C   0  0  0  0  0  0  0  0  0  0  0  0
   40.2753   10.2668   -0.0112 C   0  0  2  0  0  0  0  0  0  0  0  0
   40.0655    9.6219   -1.2977 O   0  0  0  0  0  0  0  0  0  0  0  0
   40.0301    5.7395   -1.5810 C   0  0  2  0  0  0  0  0  0  0  0  0
   39.5654    6.5098   -2.6828 O   0  0  0  0  0  0  0  0  0  0  0  0
   38.3265    5.0234   -5.8393 C   0  0  0  0  0  0  0  0  0  0  0  0
   38.2041    3.6822   -6.2485 O   0  0  0  0  0  0  0  0  0  0  0  0
   42.3487   -0.0493   -5.1678 C   0  0  1  0  0  0  0  0  0  0  0  0
   42.2070    1.3483   -5.7345 O   0  0  0  0  0  0  0  0  0  0  0  0
   43.6804    7.1611   -9.8182 C   0  0  0  0  0  0  0  0  0  0  0  0
   39.1161   11.0592    0.4297 C   0  0  0  0  0  0  0  0  0  0  0  0
   38.7971   11.9490   -0.5187 O   0  0  0  0  0  0  0  0  0  0  0  0
   38.8891    4.8326   -0.9541 C   0  0  1  0  0  0  0  0  0  0  0  0
   38.4986    3.8606   -1.8675 O   0  0  0  0  0  0  0  0  0  0  0  0
   43.8453    5.7333   -5.1847 C   0  0  0  0  0  0  0  0  0  0  0  0
   43.1846   -0.9956   -6.0719 C   0  0  0  0  0  0  0  0  0  0  0  0
   44.3629   -0.3223   -6.5587 N   0  0  0  0  0  0  0  0  0  0  0  0
   44.7192    6.8848   -5.6921 C   0  0  0  0  0  0  0  0  0  0  0  0
   45.7899    6.3407   -6.5889 N   0  0  0  0  0  0  0  0  0  0  0  0
   45.3379    5.9745   -8.0282 C   0  0  0  0  0  0  0  0  0  0  0  0
  1  2  1  1  0  0  0
  1  9  1  0  0  0  0
  1 35  1  0  0  0  0
  3  4  1  1  0  0  0
  3 11  1  0  0  0  0
  3 45  1  0  0  0  0
  5  6  1  0  0  0  0
  5 12  1  0  0  0  0
  5 37  1  1  0  0  0
  6 30  1  0  0  0  0
  7 14  1  0  0  0  0
  7 41  1  0  0  0  0
  7 23  1  6  0  0  0
  8 16  2  0  0  0  0
  8 42  1  0  0  0  0
  9 10  1  1  0  0  0
  9 18  1  0  0  0  0
 11 20  1  0  0  0  0
 12 13  1  6  0  0  0
 12 22  1  0  0  0  0
 13 47  1  0  0  0  0
 14 15  1  6  0  0  0
 14 24  1  0  0  0  0
 16 17  1  0  0  0  0
 17 26  2  0  0  0  0
 18 19  1  6  0  0  0
 18 27  1  0  0  0  0
 20 21  1  1  0  0  0
 20 29  1  0  0  0  0
 22 23  1  6  0  0  0
 22 30  1  0  0  0  0
 24 25  1  6  0  0  0
 24 31  1  0  0  0  0
 26 33  1  0  0  0  0
 27 28  1  1  0  0  0
 27 34  1  0  0  0  0
 29  2  1  6  0  0  0
 29 36  1  0  0  0  0
 30 38  1  1  0  0  0
 31 32  1  6  0  0  0
 31 40  1  0  0  0  0
 33 42  2  0  0  0  0
 34 35  1  0  0  0  0
 34 43  1  6  0  0  0
 36 37  1  6  0  0  0
 36 45  1  0  0  0  0
 38 39  1  0  0  0  0
 40 41  1  0  0  0  0
 40 48  1  6  0  0  0
 43 44  1  0  0  0  0
 45 46  1  6  0  0  0
 47 50  1  0  0  0  0
 48 49  1  0  0  0  0
 50 51  1  0  0  0  0
 51 52  1  0  0  0  0
 52  8  1  0  0  0  0
M  END
>  <CHROM.1>
167.52906635,146.43063775,-59.61224677,-172.65480188,-176.90593377,98.99666733
-156.73659472,-169.73480919,61.63349594,96.80016951,-75.66698351,-164.35337089
77.76901695,63.06651235,36.99171699,41.74455665,5.95680247,-3.60429802,-2.13701247
-1.08702850,-2.93034022

>  <Name>
2be0_lig

>  <RI>
2.75444e+07

>  <Rbt.Current_Directory>
/home/itssahil/PROJECTS/Mol_Feturizer/New_Systems/rnas/2be0

>  <Rbt.Executable>
rbdock ($Id: //depot/dev/client3/rdock/2013.1/src/exe/rbdock.cxx#4 $)

>  <Rbt.Library>
libRbt.so (2013.1, Build901 2013/11/27)

>  <Rbt.Parameter_File>
/export/apps/rDock/src/rDock_2013.1_src/data/scripts/dock_solv.prm

>  <Rbt.Receptor>
prm/pocket_docking_5.prm

>  <SCORE>
-24.4861

>  <SCORE.INTER>
-14.5358

>  <SCORE.INTER.CONST>
1

>  <SCORE.INTER.POLAR>
-0.977297

>  <SCORE.INTER.ROT>
15

>  <SCORE.INTER.SOLV>
16.0224

>  <SCORE.INTER.VDW>
-25.3737

>  <SCORE.INTER.norm>
-0.279534

>  <SCORE.INTRA>
-9.95036

>  <SCORE.INTRA.DIHEDRAL>
-26.5886

>  <SCORE.INTRA.DIHEDRAL.0>
47.8724

>  <SCORE.INTRA.POLAR>
0

>  <SCORE.INTRA.POLAR.0>
0

>  <SCORE.INTRA.REPUL>
0

>  <SCORE.INTRA.REPUL.0>
0

>  <SCORE.INTRA.SOLV>
2.38982

>  <SCORE.INTRA.SOLV.lig_0>
-115.677

>  <SCORE.INTRA.VDW>
2.14904

>  <SCORE.INTRA.VDW.0>
-7.4833

>  <SCORE.INTRA.norm>
-0.191353

>  <SCORE.RESTR>
0

>  <SCORE.RESTR.CAVITY>
0

>  <SCORE.RESTR.norm>
0

>  <SCORE.SYSTEM>
0

>  <SCORE.SYSTEM.CONST>
0

>  <SCORE.SYSTEM.DIHEDRAL>
0

>  <SCORE.SYSTEM.SOLV>
0

>  <SCORE.SYSTEM.norm>
0

>  <SCORE.heavy>
52

>  <SCORE.norm>
-0.470887

>  <RMSD>
9.013

$$$$
2be0_lig
 OpenBabel11021811423D
libRbt.so/2013.1/901 2013/11/27
 52 56  0  0  0  0  0  0  0  0999 V2000
   41.9907    6.8177   -2.3317 C   0  0  2  0  0  0  0  0  0  0  0  0
   42.8390    5.6948   -2.3777 O   0  0  0  0  0  0  0  0  0  0  0  0
   42.4738    1.3125   -2.1937 C   0  0  2  0  0  0  0  0  0  0  0  0
   41.9255   -0.0293   -1.8498 N   0  0  0  0  0  0  0  0  0  0  0  0
   41.5834    4.9739   -5.3632 C   0  0  2  0  0  0  0  0  0  0  0  0
   42.1902    4.0255   -6.2647 O   0  0  0  0  0  0  0  0  0  0  0  0
   46.2472    5.1560   -5.7970 C   0  0  1  0  0  0  0  0  0  0  0  0
   44.1837    8.2428  -10.3182 C   0  0  0  0  0  0  0  0  0  0  0  0
   42.7469    8.0843   -1.7575 C   0  0  2  0  0  0  0  0  0  0  0  0
   43.9683    8.3240   -2.5291 N   0  0  0  0  0  0  0  0  0  0  0  0
   42.7307    2.1327   -0.8485 C   0  0  0  0  0  0  0  0  0  0  0  0
   42.6297    6.0693   -5.1027 C   0  0  2  0  0  0  0  0  0  0  0  0
   42.4417    7.0119   -6.2487 O   0  0  0  0  0  0  0  0  0  0  0  0
   47.3324    4.8249   -4.6334 C   0  0  2  0  0  0  0  0  0  0  0  0
   47.7625    6.1118   -3.9973 N   0  0  0  0  0  0  0  0  0  0  0  0
   43.5796    9.3238  -11.0403 C   0  0  0  0  0  0  0  0  0  0  0  0
   44.0186   10.6543  -10.8119 N   0  0  0  0  0  0  0  0  0  0  0  0
   43.0537    7.8683   -0.2035 C   0  0  1  0  0  0  0  0  0  0  0  0
   43.7376    9.0100    0.2894 O   0  0  0  0  0  0  0  0  0  0  0  0
   43.3204    3.6193   -1.1834 C   0  0  2  0  0  0  0  0  0  0  0  0
   43.5581    4.3668    0.0191 N   0  0  0  0  0  0  0  0  0  0  0  0
   43.8879    5.1829   -5.0391 C   0  0  2  0  0  0  0  0  0  0  0  0
   45.1429    5.8341   -5.1714 O   0  0  0  0  0  0  0  0  0  0  0  0
   48.5418    4.1016   -5.2992 C   0  0  1  0  0  0  0  0  0  0  0  0
   48.0095    2.8542   -5.8719 O   0  0  0  0  0  0  0  0  0  0  0  0
   45.0474   10.9827   -9.8835 C   0  0  0  0  0  0  0  0  0  0  0  0
   41.7063    7.6345    0.5395 C   0  0  2  0  0  0  0  0  0  0  0  0
   41.9277    7.4230    1.9905 O   0  0  0  0  0  0  0  0  0  0  0  0
   42.3006    4.4067   -2.1050 C   0  0  2  0  0  0  0  0  0  0  0  0
   43.6230    4.1080   -6.1201 C   0  0  1  0  0  0  0  0  0  0  0  0
   49.1901    5.0482   -6.4523 C   0  0  2  0  0  0  0  0  0  0  0  0
   49.7239    6.2972   -5.8872 O   0  0  0  0  0  0  0  0  0  0  0  0
   45.6820    9.9561   -9.1416 C   0  0  0  0  0  0  0  0  0  0  0  0
   40.9682    6.3698   -0.0464 C   0  0  2  0  0  0  0  0  0  0  0  0
   40.7846    6.6354   -1.4644 O   0  0  0  0  0  0  0  0  0  0  0  0
   42.0754    3.5561   -3.4030 C   0  0  2  0  0  0  0  0  0  0  0  0
   41.1662    4.3546   -4.1508 O   0  0  0  0  0  0  0  0  0  0  0  0
   44.1087    2.7229   -5.6960 C   0  0  0  0  0  0  0  0  0  0  0  0
   44.4444    2.5891   -4.3356 O   0  0  0  0  0  0  0  0  0  0  0  0
   48.0778    5.3883   -7.5478 C   0  0  1  0  0  0  0  0  0  0  0  0
   46.9036    6.0456   -6.8522 O   0  0  0  0  0  0  0  0  0  0  0  0
   45.2593    8.5507   -9.3429 C   0  0  0  0  0  0  0  0  0  0  0  0
   39.6966    6.2129    0.6778 C   0  0  0  0  0  0  0  0  0  0  0  0
   39.2707    4.9487    0.5629 O   0  0  0  0  0  0  0  0  0  0  0  0
   41.4744    2.1324   -3.0437 C   0  0  1  0  0  0  0  0  0  0  0  0
   41.2905    1.3876   -4.2026 O   0  0  0  0  0  0  0  0  0  0  0  0
   42.4763    6.7119   -7.6996 C   0  0  0  0  0  0  0  0  0  0  0  0
   48.7482    6.2991   -8.6120 C   0  0  0  0  0  0  0  0  0  0  0  0
   47.9534    7.4798   -8.8425 N   0  0  0  0  0  0  0  0  0  0  0  0
   43.9258    6.3672   -8.0566 C   0  0  0  0  0  0  0  0  0  0  0  0
   43.9727    5.7701   -9.4307 N   0  0  0  0  0  0  0  0  0  0  0  0
   43.6680    6.7475  -10.5978 C   0  0  0  0  0  0  0  0  0  0  0  0
  1  2  1  1  0  0  0
  1  9  1  0  0  0  0
  1 35  1  0  0  0  0
  3  4  1  1  0  0  0
  3 11  1  0  0  0  0
  3 45  1  0  0  0  0
  5  6  1  0  0  0  0
  5 12  1  0  0  0  0
  5 37  1  1  0  0  0
  6 30  1  0  0  0  0
  7 14  1  0  0  0  0
  7 41  1  0  0  0  0
  7 23  1  1  0  0  0
  8 16  2  0  0  0  0
  8 42  1  0  0  0  0
  9 10  1  6  0  0  0
  9 18  1  0  0  0  0
 11 20  1  0  0  0  0
 12 13  1  6  0  0  0
 12 22  1  0  0  0  0
 13 47  1  0  0  0  0
 14 15  1  6  0  0  0
 14 24  1  0  0  0  0
 16 17  1  0  0  0  0
 17 26  2  0  0  0  0
 18 19  1  1  0  0  0
 18 27  1  0  0  0  0
 20 21  1  1  0  0  0
 20 29  1  0  0  0  0
 22 23  1  6  0  0  0
 22 30  1  0  0  0  0
 24 25  1  6  0  0  0
 24 31  1  0  0  0  0
 26 33  1  0  0  0  0
 27 28  1  1  0  0  0
 27 34  1  0  0  0  0
 29  2  1  6  0  0  0
 29 36  1  0  0  0  0
 30 38  1  1  0  0  0
 31 32  1  1  0  0  0
 31 40  1  0  0  0  0
 33 42  2  0  0  0  0
 34 35  1  0  0  0  0
 34 43  1  1  0  0  0
 36 37  1  6  0  0  0
 36 45  1  0  0  0  0
 38 39  1  0  0  0  0
 40 41  1  0  0  0  0
 40 48  1  6  0  0  0
 43 44  1  0  0  0  0
 45 46  1  6  0  0  0
 47 50  1  0  0  0  0
 48 49  1  0  0  0  0
 50 51  1  0  0  0  0
 51 52  1  0  0  0  0
 52  8  1  0  0  0  0
M  END
>  <CHROM.1>
144.11045164,51.83806968,-109.87422123,-54.87290387,-69.26789892,-147.80645912
-137.49582155,-103.58930185,-158.60965805,111.94113108,-129.09334713,167.78518259
69.63051661,33.72516941,-157.92004279,43.93116655,5.69637918,-4.65679119
2.33635609,-0.84607092,2.48909490

>  <Name>
2be0_lig

>  <RI>
0

>  <Rbt.Current_Directory>
/home/itssahil/PROJECTS/Mol_Feturizer/New_Systems/rnas/2be0

>  <Rbt.Executable>
rbdock ($Id: //depot/dev/client3/rdock/2013.1/src/exe/rbdock.cxx#4 $)

>  <Rbt.Library>
libRbt.so (2013.1, Build901 2013/11/27)

>  <Rbt.Parameter_File>
/export/apps/rDock/src/rDock_2013.1_src/data/scripts/dock_solv.prm

>  <Rbt.Receptor>
prm/pocket_docking_2.prm

>  <SCORE>
3.84075

>  <SCORE.INTER>
-4.55946

>  <SCORE.INTER.CONST>
1

>  <SCORE.INTER.POLAR>
-0.857622

>  <SCORE.INTER.ROT>
15

>  <SCORE.INTER.SOLV>
26.4862

>  <SCORE.INTER.VDW>
-22.6096

>  <SCORE.INTER.norm>
-0.087682

>  <SCORE.INTRA>
3.86366

>  <SCORE.INTRA.DIHEDRAL>
-5.9043

>  <SCORE.INTRA.DIHEDRAL.0>
47.8724

>  <SCORE.INTRA.POLAR>
0

>  <SCORE.INTRA.POLAR.0>
0

>  <SCORE.INTRA.REPUL>
0.0200038

>  <SCORE.INTRA.REPUL.0>
0

>  <SCORE.INTRA.SOLV>
6.44603

>  <SCORE.INTRA.SOLV.lig_0>
-115.677

>  <SCORE.INTRA.VDW>
3.49278

>  <SCORE.INTRA.VDW.0>
-7.4833

>  <SCORE.INTRA.norm>
0.0743012

>  <SCORE.RESTR>
4.53655

>  <SCORE.RESTR.CAVITY>
4.53655

>  <SCORE.RESTR.norm>
0.0872414

>  <SCORE.SYSTEM>
0

>  <SCORE.SYSTEM.CONST>
0

>  <SCORE.SYSTEM.DIHEDRAL>
0

>  <SCORE.SYSTEM.SOLV>
0

>  <SCORE.SYSTEM.norm>
0

>  <SCORE.heavy>
52

>  <SCORE.norm>
0.0738606

>  <RMSD>
9.021

$$$$
2be0_lig
 OpenBabel11021811423D
libRbt.so/2013.1/901 2013/11/27
 52 56  0  0  0  0  0  0  0  0999 V2000
   40.7727   -1.3892   -3.7670 C   0  0  2  0  0  0  0  0  0  0  0  0
   42.0653   -0.8505   -3.6190 O   0  0  0  0  0  0  0  0  0  0  0  0
   45.6456   -0.6988   -6.1743 C   0  0  2  0  0  0  0  0  0  0  0  0
   46.4800   -0.5712   -7.4018 N   0  0  0  0  0  0  0  0  0  0  0  0
   43.8010    2.8035   -3.8844 C   0  0  2  0  0  0  0  0  0  0  0  0
   44.6026    2.5908   -2.7044 O   0  0  0  0  0  0  0  0  0  0  0  0
   42.3160    5.6958   -1.0962 C   0  0  1  0  0  0  0  0  0  0  0  0
   43.8929    8.6689   -8.4811 C   0  0  0  0  0  0  0  0  0  0  0  0
   39.7865   -0.8239   -2.6653 C   0  0  2  0  0  0  0  0  0  0  0  0
   39.8003    0.6402   -2.6923 N   0  0  0  0  0  0  0  0  0  0  0  0
   44.5857   -1.8743   -6.3827 C   0  0  0  0  0  0  0  0  0  0  0  0
   42.7588    3.8745   -3.5248 C   0  0  2  0  0  0  0  0  0  0  0  0
   43.4831    5.1612   -3.7636 O   0  0  0  0  0  0  0  0  0  0  0  0
   43.2997    5.6851    0.1975 C   0  0  2  0  0  0  0  0  0  0  0  0
   42.5085    5.2658    1.3991 N   0  0  0  0  0  0  0  0  0  0  0  0
   43.2806    8.3598   -9.7398 C   0  0  0  0  0  0  0  0  0  0  0  0
   43.5095    9.2025  -10.8590 N   0  0  0  0  0  0  0  0  0  0  0  0
   40.1960   -1.3997   -1.2312 C   0  0  1  0  0  0  0  0  0  0  0  0
   39.3057   -0.8757   -0.2581 O   0  0  0  0  0  0  0  0  0  0  0  0
   43.6391   -2.0378   -5.0609 C   0  0  2  0  0  0  0  0  0  0  0  0
   42.6823   -3.0941   -5.2348 N   0  0  0  0  0  0  0  0  0  0  0  0
   42.4485    3.4268   -2.0839 C   0  0  2  0  0  0  0  0  0  0  0  0
   41.7905    4.3645   -1.2448 O   0  0  0  0  0  0  0  0  0  0  0  0
   43.8664    7.1256    0.3792 C   0  0  1  0  0  0  0  0  0  0  0  0
   44.6319    7.4226   -0.8427 O   0  0  0  0  0  0  0  0  0  0  0  0
   44.3302   10.3648  -10.7994 C   0  0  0  0  0  0  0  0  0  0  0  0
   40.1426   -2.9541   -1.2880 C   0  0  2  0  0  0  0  0  0  0  0  0
   40.5180   -3.5482    0.0179 O   0  0  0  0  0  0  0  0  0  0  0  0
   42.8809   -0.6773   -4.7714 C   0  0  2  0  0  0  0  0  0  0  0  0
   43.8250    2.9653   -1.5487 C   0  0  1  0  0  0  0  0  0  0  0  0
   42.6462    8.1823    0.5800 C   0  0  2  0  0  0  0  0  0  0  0  0
   41.8763    7.8913    1.7994 O   0  0  0  0  0  0  0  0  0  0  0  0
   44.9625   10.7201   -9.5824 C   0  0  0  0  0  0  0  0  0  0  0  0
   41.1305   -3.4978   -2.3907 C   0  0  2  0  0  0  0  0  0  0  0  0
   40.7150   -2.8793   -3.6396 O   0  0  0  0  0  0  0  0  0  0  0  0
   43.9632    0.4422   -4.5859 C   0  0  2  0  0  0  0  0  0  0  0  0
   43.1795    1.5995   -4.3222 O   0  0  0  0  0  0  0  0  0  0  0  0
   43.7197    1.7258   -0.6616 C   0  0  0  0  0  0  0  0  0  0  0  0
   42.8591    1.8450    0.4459 O   0  0  0  0  0  0  0  0  0  0  0  0
   41.6792    8.1248   -0.6906 C   0  0  1  0  0  0  0  0  0  0  0  0
   41.1898    6.7010   -0.8578 O   0  0  0  0  0  0  0  0  0  0  0  0
   44.7547    9.8735   -8.3848 C   0  0  0  0  0  0  0  0  0  0  0  0
   41.0204   -4.9652   -2.4121 C   0  0  0  0  0  0  0  0  0  0  0  0
   39.7807   -5.3144   -2.7779 O   0  0  0  0  0  0  0  0  0  0  0  0
   44.8433    0.5946   -5.8973 C   0  0  1  0  0  0  0  0  0  0  0  0
   45.8034    1.5824   -5.7134 O   0  0  0  0  0  0  0  0  0  0  0  0
   44.0086    5.6956   -5.0421 C   0  0  0  0  0  0  0  0  0  0  0  0
   40.5328    9.1415   -0.4385 C   0  0  0  0  0  0  0  0  0  0  0  0
   41.0579   10.4789   -0.3189 N   0  0  0  0  0  0  0  0  0  0  0  0
   44.3471    7.1719   -4.8113 C   0  0  0  0  0  0  0  0  0  0  0  0
   44.6943    7.8146   -6.1201 N   0  0  0  0  0  0  0  0  0  0  0  0
   43.6174    7.6970   -7.2321 C   0  0  0  0  0  0  0  0  0  0  0  0
  1  2  1  1  0  0  0
  1  9  1  0  0  0  0
  1 35  1  0  0  0  0
  3  4  1  6  0  0  0
  3 11  1  0  0  0  0
  3 45  1  0  0  0  0
  5  6  1  0  0  0  0
  5 12  1  0  0  0  0
  5 37  1  1  0  0  0
  6 30  1  0  0  0  0
  7 14  1  0  0  0  0
  7 41  1  0  0  0  0
  7 23  1  1  0  0  0
  8 16  2  0  0  0  0
  8 42  1  0  0  0  0
  9 10  1  1  0  0  0
  9 18  1  0  0  0  0
 11 20  1  0  0  0  0
 12 13  1  1  0  0  0
 12 22  1  0  0  0  0
 13 47  1  0  0  0  0
 14 15  1  1  0  0  0
 14 24  1  0  0  0  0
 16 17  1  0  0  0  0
 17 26  2  0  0  0  0
 18 19  1  1  0  0  0
 18 27  1  0  0  0  0
 20 21  1  6  0  0  0
 20 29  1  0  0  0  0
 22 23  1  1  0  0  0
 22 30  1  0  0  0  0
 24 25  1  6  0  0  0
 24 31  1  0  0  0  0
 26 33  1  0  0  0  0
 27 28  1  1  0  0  0
 27 34  1  0  0  0  0
 29  2  1  1  0  0  0
 29 36  1  0  0  0  0
 30 38  1  1  0  0  0
 31 32  1  1  0  0  0
 31 40  1  0  0  0  0
 33 42  2  0  0  0  0
 34 35  1  0  0  0  0
 34 43  1  6  0  0  0
 36 37  1  6  0  0  0
 36 45  1  0  0  0  0
 38 39  1  0  0  0  0
 40 41  1  0  0  0  0
 40 48  1  1  0  0  0
 43 44  1  0  0  0  0
 45 46  1  1  0  0  0
 47 50  1  0  0  0  0
 48 49  1  0  0  0  0
 50 51  1  0  0  0  0
 51 52  1  0  0  0  0
 52  8  1  0  0  0  0
M  END
>  <CHROM.1>
-149.47777620,-54.93553696,-92.51336973,63.89597138,166.33639305,-51.99862738
-85.60153289,-172.71339607,63.43038216,170.00670048,61.75703583,-171.81729095
55.79313877,167.09569029,158.97677627,42.76633057,3.07501408,-3.42116497
-2.12056607,1.22869761,0.30093362

>  <Name>
2be0_lig

>  <RI>
0

>  <Rbt.Current_Directory>
/home/itssahil/PROJECTS/Mol_Feturizer/New_Systems/rnas/2be0

>  <Rbt.Executable>
rbdock ($Id: //depot/dev/client3/rdock/2013.1/src/exe/rbdock.cxx#4 $)

>  <Rbt.Library>
libRbt.so (2013.1, Build901 2013/11/27)

>  <Rbt.Parameter_File>
/export/apps/rDock/src/rDock_2013.1_src/data/scripts/dock_solv.prm

>  <Rbt.Receptor>
prm/pocket_docking_6.prm

>  <SCORE>
-31.3

>  <SCORE.INTER>
-17.6921

>  <SCORE.INTER.CONST>
1

>  <SCORE.INTER.POLAR>
-1.41639

>  <SCORE.INTER.ROT>
15

>  <SCORE.INTER.SOLV>
15.6053

>  <SCORE.INTER.VDW>
-25.8752

>  <SCORE.INTER.norm>
-0.340232

>  <SCORE.INTRA>
-13.6079

>  <SCORE.INTRA.DIHEDRAL>
-33.6127

>  <SCORE.INTRA.DIHEDRAL.0>
47.8724

>  <SCORE.INTRA.POLAR>
0

>  <SCORE.INTRA.POLAR.0>
0

>  <SCORE.INTRA.REPUL>
0

>  <SCORE.INTRA.REPUL.0>
0

>  <SCORE.INTRA.SOLV>
1.26977

>  <SCORE.INTRA.SOLV.lig_0>
-115.677

>  <SCORE.INTRA.VDW>
2.56358

>  <SCORE.INTRA.VDW.0>
-7.4833

>  <SCORE.INTRA.norm>
-0.26169

>  <SCORE.RESTR>
0

>  <SCORE.RESTR.CAVITY>
0

>  <SCORE.RESTR.norm>
0

>  <SCORE.SYSTEM>
0

>  <SCORE.SYSTEM.CONST>
0

>  <SCORE.SYSTEM.DIHEDRAL>
0

>  <SCORE.SYSTEM.SOLV>
0

>  <SCORE.SYSTEM.norm>
0

>  <SCORE.heavy>
52

>  <SCORE.norm>
-0.601923

>  <RMSD>
9.021

$$$$
2be0_lig
 OpenBabel11021811423D
libRbt.so/2013.1/901 2013/11/27
 52 56  0  0  0  0  0  0  0  0999 V2000
   38.9968   -0.9857   -5.3953 C   0  0  2  0  0  0  0  0  0  0  0  0
   40.3210   -1.2791   -5.0171 O   0  0  0  0  0  0  0  0  0  0  0  0
   43.4851   -3.9291   -6.5458 C   0  0  2  0  0  0  0  0  0  0  0  0
   44.3276   -4.6809   -7.5177 N   0  0  0  0  0  0  0  0  0  0  0  0
   43.7921    0.5653   -5.4007 C   0  0  2  0  0  0  0  0  0  0  0  0
   43.6719    0.7352   -3.9734 O   0  0  0  0  0  0  0  0  0  0  0  0
   41.5500    4.7750   -4.7684 C   0  0  1  0  0  0  0  0  0  0  0  0
   49.7773    5.4308   -5.3920 C   0  0  0  0  0  0  0  0  0  0  0  0
   38.9531    0.1562   -6.4907 C   0  0  2  0  0  0  0  0  0  0  0  0
   39.8014   -0.2133   -7.6258 N   0  0  0  0  0  0  0  0  0  0  0  0
   41.9558   -4.3358   -6.7557 C   0  0  0  0  0  0  0  0  0  0  0  0
   43.8212    1.9745   -6.0137 C   0  0  2  0  0  0  0  0  0  0  0  0
   45.2619    2.3661   -5.9214 O   0  0  0  0  0  0  0  0  0  0  0  0
   41.7512    6.3188   -5.2348 C   0  0  2  0  0  0  0  0  0  0  0  0
   42.9278    6.8917   -4.5048 N   0  0  0  0  0  0  0  0  0  0  0  0
   50.6280    4.4598   -4.7688 C   0  0  0  0  0  0  0  0  0  0  0  0
   52.0257    4.4883   -5.0148 N   0  0  0  0  0  0  0  0  0  0  0  0
   39.3998    1.5451   -5.8371 C   0  0  1  0  0  0  0  0  0  0  0  0
   39.3611    2.5526   -6.8359 O   0  0  0  0  0  0  0  0  0  0  0  0
   40.9947   -3.5204   -5.7158 C   0  0  2  0  0  0  0  0  0  0  0  0
   39.6158   -3.8792   -5.8929 N   0  0  0  0  0  0  0  0  0  0  0  0
   42.7839    2.6513   -5.0978 C   0  0  2  0  0  0  0  0  0  0  0  0
   42.7647    4.0711   -5.0841 O   0  0  0  0  0  0  0  0  0  0  0  0
   40.4469    7.0975   -4.8863 C   0  0  1  0  0  0  0  0  0  0  0  0
   39.3701    6.4642   -5.6654 O   0  0  0  0  0  0  0  0  0  0  0  0
   52.6437    5.4479   -5.8665 C   0  0  0  0  0  0  0  0  0  0  0  0
   38.4420    1.8661   -4.6531 C   0  0  2  0  0  0  0  0  0  0  0  0
   38.8103    3.1464   -4.0018 O   0  0  0  0  0  0  0  0  0  0  0  0
   41.1694   -1.9610   -5.9328 C   0  0  2  0  0  0  0  0  0  0  0  0
   43.0594    2.0152   -3.7145 C   0  0  1  0  0  0  0  0  0  0  0  0
   40.1516    7.0019   -3.2896 C   0  0  2  0  0  0  0  0  0  0  0  0
   41.2240    7.6326   -2.5045 O   0  0  0  0  0  0  0  0  0  0  0  0
   51.8539    6.4330   -6.5091 C   0  0  0  0  0  0  0  0  0  0  0  0
   38.4992    0.7177   -3.5735 C   0  0  2  0  0  0  0  0  0  0  0  0
   38.1339   -0.5050   -4.2708 O   0  0  0  0  0  0  0  0  0  0  0  0
   42.6854   -1.6173   -5.7266 C   0  0  2  0  0  0  0  0  0  0  0  0
   42.7215   -0.2099   -5.9302 O   0  0  0  0  0  0  0  0  0  0  0  0
   41.7757    1.7447   -2.9314 C   0  0  0  0  0  0  0  0  0  0  0  0
   41.9509    1.1480   -1.6686 O   0  0  0  0  0  0  0  0  0  0  0  0
   40.0093    5.4677   -2.8666 C   0  0  1  0  0  0  0  0  0  0  0  0
   41.2767    4.7400   -3.2651 O   0  0  0  0  0  0  0  0  0  0  0  0
   50.3896    6.4455   -6.2856 C   0  0  0  0  0  0  0  0  0  0  0  0
   37.5611    1.0653   -2.4940 C   0  0  0  0  0  0  0  0  0  0  0  0
   38.1083    2.0048   -1.7126 O   0  0  0  0  0  0  0  0  0  0  0  0
   43.5858   -2.4018   -6.7712 C   0  0  1  0  0  0  0  0  0  0  0  0
   44.9260   -2.0948   -6.5689 O   0  0  0  0  0  0  0  0  0  0  0  0
   46.0958    2.5193   -4.7058 C   0  0  0  0  0  0  0  0  0  0  0  0
   39.7407    5.4385   -1.3374 C   0  0  0  0  0  0  0  0  0  0  0  0
   40.9106    5.8617   -0.6086 N   0  0  0  0  0  0  0  0  0  0  0  0
   47.5087    2.8885   -5.1692 C   0  0  0  0  0  0  0  0  0  0  0  0
   47.4782    4.2251   -5.8468 N   0  0  0  0  0  0  0  0  0  0  0  0
   48.1997    5.3756   -5.0945 C   0  0  0  0  0  0  0  0  0  0  0  0
  1  2  1  1  0  0  0
  1  9  1  0  0  0  0
  1 35  1  0  0  0  0
  3  4  1  6  0  0  0
  3 11  1  0  0  0  0
  3 45  1  0  0  0  0
  5  6  1  0  0  0  0
  5 12  1  0  0  0  0
  5 37  1  6  0  0  0
  6 30  1  0  0  0  0
  7 14  1  0  0  0  0
  7 41  1  0  0  0  0
  7 23  1  1  0  0  0
  8 16  2  0  0  0  0
  8 42  1  0  0  0  0
  9 10  1  6  0  0  0
  9 18  1  0  0  0  0
 11 20  1  0  0  0  0
 12 13  1  1  0  0  0
 12 22  1  0  0  0  0
 13 47  1  0  0  0  0
 14 15  1  1  0  0  0
 14 24  1  0  0  0  0
 16 17  1  0  0  0  0
 17 26  2  0  0  0  0
 18 19  1  6  0  0  0
 18 27  1  0  0  0  0
 20 21  1  6  0  0  0
 20 29  1  0  0  0  0
 22 23  1  1  0  0  0
 22 30  1  0  0  0  0
 24 25  1  6  0  0  0
 24 31  1  0  0  0  0
 26 33  1  0  0  0  0
 27 28  1  1  0  0  0
 27 34  1  0  0  0  0
 29  2  1  1  0  0  0
 29 36  1  0  0  0  0
 30 38  1  6  0  0  0
 31 32  1  1  0  0  0
 31 40  1  0  0  0  0
 33 42  2  0  0  0  0
 34 35  1  0  0  0  0
 34 43  1  1  0  0  0
 36 37  1  6  0  0  0
 36 45  1  0  0  0  0
 38 39  1  0  0  0  0
 40 41  1  0  0  0  0
 40 48  1  1  0  0  0
 43 44  1  0  0  0  0
 45 46  1  1  0  0  0
 47 50  1  0  0  0  0
 48 49  1  0  0  0  0
 50 51  1  0  0  0  0
 51 52  1  0  0  0  0
 52  8  1  0  0  0  0
M  END
>  <CHROM.1>
-71.37610487,-74.56677389,-164.63591584,-61.30863722,178.12161243,152.87912013
-88.82623060,62.88454760,-77.18864041,158.44052248,-68.78343520,64.45373628
111.87104584,84.80313378,-75.41400755,42.73769205,2.18575346,-4.86722373
-2.66287408,0.20597694,0.28802928

>  <Name>
2be0_lig

>  <RI>
0

>  <Rbt.Current_Directory>
/home/itssahil/PROJECTS/Mol_Feturizer/New_Systems/rnas/2be0

>  <Rbt.Executable>
rbdock ($Id: //depot/dev/client3/rdock/2013.1/src/exe/rbdock.cxx#4 $)

>  <Rbt.Library>
libRbt.so (2013.1, Build901 2013/11/27)

>  <Rbt.Parameter_File>
/export/apps/rDock/src/rDock_2013.1_src/data/scripts/dock_solv.prm

>  <Rbt.Receptor>
prm/pocket_docking_7.prm

>  <SCORE>
-18.4107

>  <SCORE.INTER>
-2.50797

>  <SCORE.INTER.CONST>
1

>  <SCORE.INTER.POLAR>
0

>  <SCORE.INTER.ROT>
15

>  <SCORE.INTER.SOLV>
9.43951

>  <SCORE.INTER.VDW>
-18.4185

>  <SCORE.INTER.norm>
-0.0482303

>  <SCORE.INTRA>
-15.9027

>  <SCORE.INTRA.DIHEDRAL>
-32.455

>  <SCORE.INTRA.DIHEDRAL.0>
47.8724

>  <SCORE.INTRA.POLAR>
0

>  <SCORE.INTRA.POLAR.0>
0

>  <SCORE.INTRA.REPUL>
0

>  <SCORE.INTRA.REPUL.0>
0

>  <SCORE.INTRA.SOLV>
2.90662

>  <SCORE.INTRA.SOLV.lig_0>
-115.677

>  <SCORE.INTRA.VDW>
-1.12854

>  <SCORE.INTRA.VDW.0>
-7.4833

>  <SCORE.INTRA.norm>
-0.305822

>  <SCORE.RESTR>
0

>  <SCORE.RESTR.CAVITY>
0

>  <SCORE.RESTR.norm>
0

>  <SCORE.SYSTEM>
0

>  <SCORE.SYSTEM.CONST>
0

>  <SCORE.SYSTEM.DIHEDRAL>
0

>  <SCORE.SYSTEM.SOLV>
0

>  <SCORE.SYSTEM.norm>
0

>  <SCORE.heavy>
52

>  <SCORE.norm>
-0.354052

>  <RMSD>
9.028

$$$$
2be0_lig
 OpenBabel11021811423D
libRbt.so/2013.1/901 2013/11/27
 52 56  0  0  0  0  0  0  0  0999 V2000
   40.1032    7.3577   -1.0032 C   0  0  2  0  0  0  0  0  0  0  0  0
   40.5664    6.0923   -0.5945 O   0  0  0  0  0  0  0  0  0  0  0  0
   39.6671    3.7794    3.0404 C   0  0  2  0  0  0  0  0  0  0  0  0
   38.8737    3.0713    4.0837 N   0  0  0  0  0  0  0  0  0  0  0  0
   41.2853    2.8816   -1.4916 C   0  0  2  0  0  0  0  0  0  0  0  0
   41.0738    3.0086   -2.9127 O   0  0  0  0  0  0  0  0  0  0  0  0
   40.5622   -1.6092   -1.5481 C   0  0  1  0  0  0  0  0  0  0  0  0
   47.4343   -0.6314   -3.5408 C   0  0  0  0  0  0  0  0  0  0  0  0
   39.9626    7.4356   -2.5780 C   0  0  2  0  0  0  0  0  0  0  0  0
   39.1182    6.3383   -3.0549 N   0  0  0  0  0  0  0  0  0  0  0  0
   39.1524    5.2861    2.9253 C   0  0  0  0  0  0  0  0  0  0  0  0
   41.5662    1.3957   -1.2166 C   0  0  2  0  0  0  0  0  0  0  0  0
   43.0356    1.2660   -1.4645 O   0  0  0  0  0  0  0  0  0  0  0  0
   40.8300   -3.0422   -2.2665 C   0  0  2  0  0  0  0  0  0  0  0  0
   39.8652   -3.1978   -3.4026 N   0  0  0  0  0  0  0  0  0  0  0  0
   47.6445   -1.6640   -4.5125 C   0  0  0  0  0  0  0  0  0  0  0  0
   48.7596   -1.5895   -5.3879 N   0  0  0  0  0  0  0  0  0  0  0  0
   41.4135    7.4091   -3.2490 C   0  0  1  0  0  0  0  0  0  0  0  0
   41.2651    7.4721   -4.6590 O   0  0  0  0  0  0  0  0  0  0  0  0
   39.9896    6.0952    1.7788 C   0  0  2  0  0  0  0  0  0  0  0  0
   39.5375    7.4533    1.6669 N   0  0  0  0  0  0  0  0  0  0  0  0
   40.5648    0.7786   -2.2112 C   0  0  2  0  0  0  0  0  0  0  0  0
   40.7480   -0.5892   -2.5459 O   0  0  0  0  0  0  0  0  0  0  0  0
   40.6188   -4.1588   -1.2000 C   0  0  1  0  0  0  0  0  0  0  0  0
   41.6218   -3.9181   -0.1495 O   0  0  0  0  0  0  0  0  0  0  0  0
   49.7009   -0.5215   -5.3551 C   0  0  0  0  0  0  0  0  0  0  0  0
   42.2356    8.6106   -2.6987 C   0  0  2  0  0  0  0  0  0  0  0  0
   43.5978    8.6369   -3.2842 O   0  0  0  0  0  0  0  0  0  0  0  0
   39.8299    5.3658    0.3817 C   0  0  2  0  0  0  0  0  0  0  0  0
   40.6317    1.7350   -3.4256 C   0  0  1  0  0  0  0  0  0  0  0  0
   39.1088   -4.0773   -0.6007 C   0  0  2  0  0  0  0  0  0  0  0  0
   38.1008   -4.3166   -1.6453 O   0  0  0  0  0  0  0  0  0  0  0  0
   49.5455    0.5272   -4.4153 C   0  0  0  0  0  0  0  0  0  0  0  0
   42.3641    8.5156   -1.1296 C   0  0  2  0  0  0  0  0  0  0  0  0
   41.0031    8.4899   -0.6179 O   0  0  0  0  0  0  0  0  0  0  0  0
   40.3377    3.8919    0.5519 C   0  0  2  0  0  0  0  0  0  0  0  0
   40.1618    3.3444   -0.7491 O   0  0  0  0  0  0  0  0  0  0  0  0
   39.2626    1.9627   -4.0643 C   0  0  0  0  0  0  0  0  0  0  0  0
   38.2450    2.3765   -3.1842 O   0  0  0  0  0  0  0  0  0  0  0  0
   38.8731   -2.6379    0.0515 C   0  0  1  0  0  0  0  0  0  0  0  0
   39.1341   -1.5835   -1.0042 O   0  0  0  0  0  0  0  0  0  0  0  0
   48.3974    0.4963   -3.4799 C   0  0  0  0  0  0  0  0  0  0  0  0
   43.1294    9.6847   -0.6673 C   0  0  0  0  0  0  0  0  0  0  0  0
   42.5654   10.8029   -1.1409 O   0  0  0  0  0  0  0  0  0  0  0  0
   39.4841    3.1276    1.6494 C   0  0  1  0  0  0  0  0  0  0  0  0
   39.9526    1.8273    1.7956 O   0  0  0  0  0  0  0  0  0  0  0  0
   44.1421    2.0363   -0.8492 C   0  0  0  0  0  0  0  0  0  0  0  0
   37.4182   -2.6150    0.5942 C   0  0  0  0  0  0  0  0  0  0  0  0
   36.4823   -2.3648   -0.4736 N   0  0  0  0  0  0  0  0  0  0  0  0
   45.4313    1.2416   -1.0812 C   0  0  0  0  0  0  0  0  0  0  0  0
   45.3799    0.5903   -2.4302 N   0  0  0  0  0  0  0  0  0  0  0  0
   46.1651   -0.7424   -2.5624 C   0  0  0  0  0  0  0  0  0  0  0  0
  1  2  1  6  0  0  0
  1  9  1  0  0  0  0
  1 35  1  0  0  0  0
  3  4  1  1  0  0  0
  3 11  1  0  0  0  0
  3 45  1  0  0  0  0
  5  6  1  0  0  0  0
  5 12  1  0  0  0  0
  5 37  1  1  0  0  0
  6 30  1  0  0  0  0
  7 14  1  0  0  0  0
  7 41  1  0  0  0  0
  7 23  1  6  0  0  0
  8 16  2  0  0  0  0
  8 42  1  0  0  0  0
  9 10  1  6  0  0  0
  9 18  1  0  0  0  0
 11 20  1  0  0  0  0
 12 13  1  6  0  0  0
 12 22  1  0  0  0  0
 13 47  1  0  0  0  0
 14 15  1  6  0  0  0
 14 24  1  0  0  0  0
 16 17  1  0  0  0  0
 17 26  2  0  0  0  0
 18 19  1  6  0  0  0
 18 27  1  0  0  0  0
 20 21  1  6  0  0  0
 20 29  1  0  0  0  0
 22 23  1  6  0  0  0
 22 30  1  0  0  0  0
 24 25  1  1  0  0  0
 24 31  1  0  0  0  0
 26 33  1  0  0  0  0
 27 28  1  6  0  0  0
 27 34  1  0  0  0  0
 29  2  1  6  0  0  0
 29 36  1  0  0  0  0
 30 38  1  1  0  0  0
 31 32  1  6  0  0  0
 31 40  1  0  0  0  0
 33 42  2  0  0  0  0
 34 35  1  0  0  0  0
 34 43  1  1  0  0  0
 36 37  1  6  0  0  0
 36 45  1  0  0  0  0
 38 39  1  0  0  0  0
 40 41  1  0  0  0  0
 40 48  1  6  0  0  0
 43 44  1  0  0  0  0
 45 46  1  1  0  0  0
 47 50  1  0  0  0  0
 48 49  1  0  0  0  0
 50 51  1  0  0  0  0
 51 52  1  0  0  0  0
 52  8  1  0  0  0  0
M  END
>  <CHROM.1>
-126.60955047,-150.59695906,179.31977520,55.11205045,162.06771393,66.41481361
-70.24526018,-63.45580069,53.09578909,117.76246521,-80.10670218,36.56295437
-150.47234852,-112.80779725,-134.15212263,41.59507815,2.36801930,-1.44573198
1.71478521,0.46850269,0.05739310

>  <Name>
2be0_lig

>  <RI>
0

>  <Rbt.Current_Directory>
/home/itssahil/PROJECTS/Mol_Feturizer/New_Systems/rnas/2be0

>  <Rbt.Executable>
rbdock ($Id: //depot/dev/client3/rdock/2013.1/src/exe/rbdock.cxx#4 $)

>  <Rbt.Library>
libRbt.so (2013.1, Build901 2013/11/27)

>  <Rbt.Parameter_File>
/export/apps/rDock/src/rDock_2013.1_src/data/scripts/dock_solv.prm

>  <Rbt.Receptor>
prm/pocket_docking_7.prm

>  <SCORE>
-21.7599

>  <SCORE.INTER>
-13.9328

>  <SCORE.INTER.CONST>
1

>  <SCORE.INTER.POLAR>
-1.08131

>  <SCORE.INTER.ROT>
15

>  <SCORE.INTER.SOLV>
10.6702

>  <SCORE.INTER.VDW>
-22.8409

>  <SCORE.INTER.norm>
-0.267938

>  <SCORE.INTRA>
-7.82709

>  <SCORE.INTRA.DIHEDRAL>
-21.6196

>  <SCORE.INTRA.DIHEDRAL.0>
47.8724

>  <SCORE.INTRA.POLAR>
0

>  <SCORE.INTRA.POLAR.0>
0

>  <SCORE.INTRA.REPUL>
0

>  <SCORE.INTRA.REPUL.0>
0

>  <SCORE.INTRA.SOLV>
0.933114

>  <SCORE.INTRA.SOLV.lig_0>
-115.677

>  <SCORE.INTRA.VDW>
2.51616

>  <SCORE.INTRA.VDW.0>
-7.4833

>  <SCORE.INTRA.norm>
-0.150521

>  <SCORE.RESTR>
0

>  <SCORE.RESTR.CAVITY>
0

>  <SCORE.RESTR.norm>
0

>  <SCORE.SYSTEM>
0

>  <SCORE.SYSTEM.CONST>
0

>  <SCORE.SYSTEM.DIHEDRAL>
0

>  <SCORE.SYSTEM.SOLV>
0

>  <SCORE.SYSTEM.norm>
0

>  <SCORE.heavy>
52

>  <SCORE.norm>
-0.418459

>  <RMSD>
9.040

$$$$
2be0_lig
 OpenBabel11021811423D
libRbt.so/2013.1/901 2013/11/27
 52 56  0  0  0  0  0  0  0  0999 V2000
   39.9702    3.6355   -3.1396 C   0  0  2  0  0  0  0  0  0  0  0  0
   39.5807    2.4826   -2.4312 O   0  0  0  0  0  0  0  0  0  0  0  0
   36.4080   -0.5306   -2.9066 C   0  0  2  0  0  0  0  0  0  0  0  0
   35.0497   -1.1068   -3.1124 N   0  0  0  0  0  0  0  0  0  0  0  0
   38.9568    1.1598   -6.2575 C   0  0  2  0  0  0  0  0  0  0  0  0
   39.9841    0.1481   -6.2202 O   0  0  0  0  0  0  0  0  0  0  0  0
   41.7579    4.2379   -8.1233 C   0  0  1  0  0  0  0  0  0  0  0  0
   39.8055   -3.2578   -6.9609 C   0  0  0  0  0  0  0  0  0  0  0  0
   41.3349    4.2152   -2.5851 C   0  0  2  0  0  0  0  0  0  0  0  0
   42.3583    3.1678   -2.5942 N   0  0  0  0  0  0  0  0  0  0  0  0
   36.3757    0.4461   -1.6444 C   0  0  0  0  0  0  0  0  0  0  0  0
   39.4160    2.2201   -7.2712 C   0  0  2  0  0  0  0  0  0  0  0  0
   38.9502    1.6740   -8.5835 O   0  0  0  0  0  0  0  0  0  0  0  0
   42.6620    4.5338   -9.4410 C   0  0  2  0  0  0  0  0  0  0  0  0
   44.0558    4.0454   -9.1869 N   0  0  0  0  0  0  0  0  0  0  0  0
   41.1939   -3.5475   -6.7527 C   0  0  0  0  0  0  0  0  0  0  0  0
   41.7299   -3.5144   -5.4387 N   0  0  0  0  0  0  0  0  0  0  0  0
   41.1079    4.8171   -1.1215 C   0  0  1  0  0  0  0  0  0  0  0  0
   42.3429    5.3240   -0.6401 O   0  0  0  0  0  0  0  0  0  0  0  0
   37.8466    1.1114   -1.3926 C   0  0  2  0  0  0  0  0  0  0  0  0
   37.8315    1.9909   -0.2578 N   0  0  0  0  0  0  0  0  0  0  0  0
   40.9196    2.2303   -6.9367 C   0  0  2  0  0  0  0  0  0  0  0  0
   41.7892    2.8178   -7.8933 O   0  0  0  0  0  0  0  0  0  0  0  0
   42.6486    6.0715   -9.6947 C   0  0  1  0  0  0  0  0  0  0  0  0
   41.2441    6.4338   -9.9464 O   0  0  0  0  0  0  0  0  0  0  0  0
   40.9485   -3.2006   -4.2903 C   0  0  0  0  0  0  0  0  0  0  0  0
   40.0195    5.9265   -1.2056 C   0  0  2  0  0  0  0  0  0  0  0  0
   39.7616    6.5220    0.1278 O   0  0  0  0  0  0  0  0  0  0  0  0
   38.3006    1.9145   -2.6804 C   0  0  2  0  0  0  0  0  0  0  0  0
   41.2294    0.7441   -6.6380 C   0  0  1  0  0  0  0  0  0  0  0  0
   43.2339    6.8550   -8.3949 C   0  0  2  0  0  0  0  0  0  0  0  0
   44.6375    6.4975   -8.1370 O   0  0  0  0  0  0  0  0  0  0  0  0
   39.5701   -2.9066   -4.4339 C   0  0  0  0  0  0  0  0  0  0  0  0
   38.6688    5.3301   -1.7601 C   0  0  2  0  0  0  0  0  0  0  0  0
   38.9870    4.7611   -3.0601 O   0  0  0  0  0  0  0  0  0  0  0  0
   38.3051    0.9154   -3.8890 C   0  0  2  0  0  0  0  0  0  0  0  0
   38.7342    1.7312   -4.9724 O   0  0  0  0  0  0  0  0  0  0  0  0
   42.2143    0.5749   -5.4823 C   0  0  0  0  0  0  0  0  0  0  0  0
   42.6127   -0.7483   -5.2148 O   0  0  0  0  0  0  0  0  0  0  0  0
   42.3463    6.4980   -7.1152 C   0  0  1  0  0  0  0  0  0  0  0  0
   42.3483    4.9941   -6.9336 O   0  0  0  0  0  0  0  0  0  0  0  0
   38.9627   -2.9271   -5.7848 C   0  0  0  0  0  0  0  0  0  0  0  0
   37.6891    6.4257   -1.8370 C   0  0  0  0  0  0  0  0  0  0  0  0
   36.5693    5.9825   -2.4222 O   0  0  0  0  0  0  0  0  0  0  0  0
   36.8565    0.3123   -4.1239 C   0  0  1  0  0  0  0  0  0  0  0  0
   36.8794   -0.5781   -5.1907 O   0  0  0  0  0  0  0  0  0  0  0  0
   39.4544    0.4882   -9.3156 C   0  0  0  0  0  0  0  0  0  0  0  0
   42.9563    7.2620   -5.9087 C   0  0  0  0  0  0  0  0  0  0  0  0
   42.2047    6.9960   -4.7073 N   0  0  0  0  0  0  0  0  0  0  0  0
   38.8766   -0.7509   -8.6240 C   0  0  0  0  0  0  0  0  0  0  0  0
   39.4600   -1.9851   -9.2428 N   0  0  0  0  0  0  0  0  0  0  0  0
   39.2259   -3.3042   -8.4583 C   0  0  0  0  0  0  0  0  0  0  0  0
  1  2  1  1  0  0  0
  1  9  1  0  0  0  0
  1 35  1  0  0  0  0
  3  4  1  6  0  0  0
  3 11  1  0  0  0  0
  3 45  1  0  0  0  0
  5  6  1  0  0  0  0
  5 12  1  0  0  0  0
  5 37  1  1  0  0  0
  6 30  1  0  0  0  0
  7 14  1  0  0  0  0
  7 41  1  0  0  0  0
  7 23  1  1  0  0  0
  8 16  2  0  0  0  0
  8 42  1  0  0  0  0
  9 10  1  1  0  0  0
  9 18  1  0  0  0  0
 11 20  1  0  0  0  0
 12 13  1  6  0  0  0
 12 22  1  0  0  0  0
 13 47  1  0  0  0  0
 14 15  1  1  0  0  0
 14 24  1  0  0  0  0
 16 17  1  0  0  0  0
 17 26  2  0  0  0  0
 18 19  1  6  0  0  0
 18 27  1  0  0  0  0
 20 21  1  1  0  0  0
 20 29  1  0  0  0  0
 22 23  1  6  0  0  0
 22 30  1  0  0  0  0
 24 25  1  1  0  0  0
 24 31  1  0  0  0  0
 26 33  1  0  0  0  0
 27 28  1  1  0  0  0
 27 34  1  0  0  0  0
 29  2  1  1  0  0  0
 29 36  1  0  0  0  0
 30 38  1  1  0  0  0
 31 32  1  1  0  0  0
 31 40  1  0  0  0  0
 33 42  2  0  0  0  0
 34 35  1  0  0  0  0
 34 43  1  6  0  0  0
 36 37  1  6  0  0  0
 36 45  1  0  0  0  0
 38 39  1  0  0  0  0
 40 41  1  0  0  0  0
 40 48  1  1  0  0  0
 43 44  1  0  0  0  0
 45 46  1  6  0  0  0
 47 50  1  0  0  0  0
 48 49  1  0  0  0  0
 50 51  1  0  0  0  0
 51 52  1  0  0  0  0
 52  8  1  0  0  0  0
M  END
>  <CHROM.1>
172.50641062,-60.62981436,-169.97061176,-69.33475813,77.16306953,68.86415682
-154.69528959,67.91596908,174.20897549,175.74789775,179.76588950,-174.60006143
166.90735965,-58.14857105,-83.68714431,40.13087832,2.27715918,-5.19347643
0.91825963,0.99233122,0.62213128

>  <Name>
2be0_lig

>  <RI>
0

>  <Rbt.Current_Directory>
/home/itssahil/PROJECTS/Mol_Feturizer/New_Systems/rnas/2be0

>  <Rbt.Executable>
rbdock ($Id: //depot/dev/client3/rdock/2013.1/src/exe/rbdock.cxx#4 $)

>  <Rbt.Library>
libRbt.so (2013.1, Build901 2013/11/27)

>  <Rbt.Parameter_File>
/export/apps/rDock/src/rDock_2013.1_src/data/scripts/dock_solv.prm

>  <Rbt.Receptor>
prm/pocket_docking_6.prm

>  <SCORE>
-21.7967

>  <SCORE.INTER>
-0.370916

>  <SCORE.INTER.CONST>
1

>  <SCORE.INTER.POLAR>
0

>  <SCORE.INTER.ROT>
15

>  <SCORE.INTER.SOLV>
9.76444

>  <SCORE.INTER.VDW>
-17.1021

>  <SCORE.INTER.norm>
-0.00713299

>  <SCORE.INTRA>
-21.4462

>  <SCORE.INTRA.DIHEDRAL>
-40.3774

>  <SCORE.INTRA.DIHEDRAL.0>
47.8724

>  <SCORE.INTRA.POLAR>
0

>  <SCORE.INTRA.POLAR.0>
0

>  <SCORE.INTRA.REPUL>
0

>  <SCORE.INTRA.REPUL.0>
0

>  <SCORE.INTRA.SOLV>
-0.381006

>  <SCORE.INTRA.SOLV.lig_0>
-115.677

>  <SCORE.INTRA.VDW>
-1.06703

>  <SCORE.INTRA.VDW.0>
-7.4833

>  <SCORE.INTRA.norm>
-0.412428

>  <SCORE.RESTR>
0.0204724

>  <SCORE.RESTR.CAVITY>
0.0204724

>  <SCORE.RESTR.norm>
0.0003937

>  <SCORE.SYSTEM>
0

>  <SCORE.SYSTEM.CONST>
0

>  <SCORE.SYSTEM.DIHEDRAL>
0

>  <SCORE.SYSTEM.SOLV>
0

>  <SCORE.SYSTEM.norm>
0

>  <SCORE.heavy>
52

>  <SCORE.norm>
-0.419167

>  <RMSD>
9.048

$$$$
2be0_lig
 OpenBabel11021811423D
libRbt.so/2013.1/901 2013/11/27
 52 56  0  0  0  0  0  0  0  0999 V2000
   38.1385   -1.6080   -7.3700 C   0  0  2  0  0  0  0  0  0  0  0  0
   39.5441   -1.5432   -7.4233 O   0  0  0  0  0  0  0  0  0  0  0  0
   40.5246   -3.5949   -3.6550 C   0  0  2  0  0  0  0  0  0  0  0  0
   41.3271   -4.3056   -2.6204 N   0  0  0  0  0  0  0  0  0  0  0  0
   40.7894    0.8593   -4.3114 C   0  0  2  0  0  0  0  0  0  0  0  0
   39.9757    2.0075   -4.6272 O   0  0  0  0  0  0  0  0  0  0  0  0
   43.0221    4.7380   -5.6648 C   0  0  1  0  0  0  0  0  0  0  0  0
   39.8071    3.1752    1.6060 C   0  0  0  0  0  0  0  0  0  0  0  0
   37.4813   -0.7793   -8.5478 C   0  0  2  0  0  0  0  0  0  0  0  0
   38.0242   -1.2275   -9.8319 N   0  0  0  0  0  0  0  0  0  0  0  0
   40.6128   -4.4012   -5.0299 C   0  0  0  0  0  0  0  0  0  0  0  0
   42.2283    1.3707   -4.1361 C   0  0  2  0  0  0  0  0  0  0  0  0
   42.2698    1.8148   -2.7084 O   0  0  0  0  0  0  0  0  0  0  0  0
   44.2189    5.1503   -6.6842 C   0  0  2  0  0  0  0  0  0  0  0  0
   45.5257    5.0449   -5.9585 N   0  0  0  0  0  0  0  0  0  0  0  0
   39.7054    4.2352    0.6463 C   0  0  0  0  0  0  0  0  0  0  0  0
   39.4710    5.5637    1.0881 N   0  0  0  0  0  0  0  0  0  0  0  0
   37.7253    0.7822   -8.3074 C   0  0  1  0  0  0  0  0  0  0  0  0
   37.1359    1.5059   -9.3766 O   0  0  0  0  0  0  0  0  0  0  0  0
   39.7554   -3.6452   -6.1974 C   0  0  2  0  0  0  0  0  0  0  0  0
   39.8248   -4.3621   -7.4394 N   0  0  0  0  0  0  0  0  0  0  0  0
   42.2447    2.4192   -5.2645 C   0  0  2  0  0  0  0  0  0  0  0  0
   43.2787    3.3918   -5.2262 O   0  0  0  0  0  0  0  0  0  0  0  0
   43.9614    6.6127   -7.1575 C   0  0  1  0  0  0  0  0  0  0  0  0
   42.6706    6.5938   -7.8653 O   0  0  0  0  0  0  0  0  0  0  0  0
   39.3262    5.9097    2.4619 C   0  0  0  0  0  0  0  0  0  0  0  0
   37.1086    1.1741   -6.9332 C   0  0  2  0  0  0  0  0  0  0  0  0
   37.3078    2.6163   -6.6516 O   0  0  0  0  0  0  0  0  0  0  0  0
   40.3070   -2.1744   -6.4021 C   0  0  2  0  0  0  0  0  0  0  0  0
   40.8191    3.0186   -5.2165 C   0  0  1  0  0  0  0  0  0  0  0  0
   43.9140    7.6123   -5.8752 C   0  0  2  0  0  0  0  0  0  0  0  0
   45.2009    7.6360   -5.1625 O   0  0  0  0  0  0  0  0  0  0  0  0
   39.4183    4.9046    3.4560 C   0  0  0  0  0  0  0  0  0  0  0  0
   37.7751    0.3382   -5.7736 C   0  0  2  0  0  0  0  0  0  0  0  0
   37.5503   -1.0591   -6.1079 O   0  0  0  0  0  0  0  0  0  0  0  0
   40.2085   -1.4316   -5.0245 C   0  0  2  0  0  0  0  0  0  0  0  0
   40.7116   -0.1359   -5.3268 O   0  0  0  0  0  0  0  0  0  0  0  0
   40.2613    3.3081   -6.6091 C   0  0  0  0  0  0  0  0  0  0  0  0
   41.0288    4.1848   -7.3987 O   0  0  0  0  0  0  0  0  0  0  0  0
   42.7578    7.1423   -4.8776 C   0  0  1  0  0  0  0  0  0  0  0  0
   43.0209    5.7043   -4.4808 O   0  0  0  0  0  0  0  0  0  0  0  0
   39.6612    3.5019    3.0464 C   0  0  0  0  0  0  0  0  0  0  0  0
   37.1390    0.7352   -4.5072 C   0  0  0  0  0  0  0  0  0  0  0  0
   37.6600    0.0196   -3.5026 O   0  0  0  0  0  0  0  0  0  0  0  0
   41.0761   -2.1746   -3.9232 C   0  0  1  0  0  0  0  0  0  0  0  0
   40.9702   -1.5106   -2.7069 O   0  0  0  0  0  0  0  0  0  0  0  0
   42.0035    1.0145   -1.4897 C   0  0  0  0  0  0  0  0  0  0  0  0
   42.7674    8.1223   -3.6730 C   0  0  0  0  0  0  0  0  0  0  0  0
   41.6922    7.8173   -2.7622 N   0  0  0  0  0  0  0  0  0  0  0  0
   42.2542    1.9269   -0.2847 C   0  0  0  0  0  0  0  0  0  0  0  0
   41.5832    1.3507    0.9254 N   0  0  0  0  0  0  0  0  0  0  0  0
   40.0741    1.6819    1.0776 C   0  0  0  0  0  0  0  0  0  0  0  0
  1  2  1  1  0  0  0
  1  9  1  0  0  0  0
  1 35  1  0  0  0  0
  3  4  1  1  0  0  0
  3 11  1  0  0  0  0
  3 45  1  0  0  0  0
  5  6  1  0  0  0  0
  5 12  1  0  0  0  0
  5 37  1  6  0  0  0
  6 30  1  0  0  0  0
  7 14  1  0  0  0  0
  7 41  1  0  0  0  0
  7 23  1  1  0  0  0
  8 16  2  0  0  0  0
  8 42  1  0  0  0  0
  9 10  1  6  0  0  0
  9 18  1  0  0  0  0
 11 20  1  0  0  0  0
 12 13  1  1  0  0  0
 12 22  1  0  0  0  0
 13 47  1  0  0  0  0
 14 15  1  1  0  0  0
 14 24  1  0  0  0  0
 16 17  1  0  0  0  0
 17 26  2  0  0  0  0
 18 19  1  6  0  0  0
 18 27  1  0  0  0  0
 20 21  1  6  0  0  0
 20 29  1  0  0  0  0
 22 23  1  1  0  0  0
 22 30  1  0  0  0  0
 24 25  1  1  0  0  0
 24 31  1  0  0  0  0
 26 33  1  0  0  0  0
 27 28  1  1  0  0  0
 27 34  1  0  0  0  0
 29  2  1  6  0  0  0
 29 36  1  0  0  0  0
 30 38  1  6  0  0  0
 31 32  1  1  0  0  0
 31 40  1  0  0  0  0
 33 42  2  0  0  0  0
 34 35  1  0  0  0  0
 34 43  1  1  0  0  0
 36 37  1  6  0  0  0
 36 45  1  0  0  0  0
 38 39  1  0  0  0  0
 40 41  1  0  0  0  0
 40 48  1  1  0  0  0
 43 44  1  0  0  0  0
 45 46  1  1  0  0  0
 47 50  1  0  0  0  0
 48 49  1  0  0  0  0
 50 51  1  0  0  0  0
 51 52  1  0  0  0  0
 52  8  1  0  0  0  0
M  END
>  <CHROM.1>
176.85556560,-118.74083864,-131.19403274,58.48726180,177.04511805,-144.86745665
48.32237457,-174.21793152,178.51497139,-179.88433216,176.34344992,161.34105177
-83.33155415,-76.97416240,88.10379876,40.63596918,1.95092543,-4.40391202
-2.56895448,1.14763752,1.45290041

>  <Name>
2be0_lig

>  <RI>
0

>  <Rbt.Current_Directory>
/home/itssahil/PROJECTS/Mol_Feturizer/New_Systems/rnas/2be0

>  <Rbt.Executable>
rbdock ($Id: //depot/dev/client3/rdock/2013.1/src/exe/rbdock.cxx#4 $)

>  <Rbt.Library>
libRbt.so (2013.1, Build901 2013/11/27)

>  <Rbt.Parameter_File>
/export/apps/rDock/src/rDock_2013.1_src/data/scripts/dock_solv.prm

>  <Rbt.Receptor>
prm/pocket_docking_4.prm

>  <SCORE>
-10.7139

>  <SCORE.INTER>
1.11393

>  <SCORE.INTER.CONST>
1

>  <SCORE.INTER.POLAR>
0

>  <SCORE.INTER.ROT>
15

>  <SCORE.INTER.SOLV>
12.3179

>  <SCORE.INTER.VDW>
-16.9633

>  <SCORE.INTER.norm>
0.0214217

>  <SCORE.INTRA>
-11.8278

>  <SCORE.INTRA.DIHEDRAL>
-25.5609

>  <SCORE.INTRA.DIHEDRAL.0>
47.8724

>  <SCORE.INTRA.POLAR>
0

>  <SCORE.INTRA.POLAR.0>
0

>  <SCORE.INTRA.REPUL>
0.0162102

>  <SCORE.INTRA.REPUL.0>
0

>  <SCORE.INTRA.SOLV>
-1.54652

>  <SCORE.INTRA.SOLV.lig_0>
-115.677

>  <SCORE.INTRA.VDW>
1.64488

>  <SCORE.INTRA.VDW.0>
-7.4833

>  <SCORE.INTRA.norm>
-0.227457

>  <SCORE.RESTR>
0

>  <SCORE.RESTR.CAVITY>
0

>  <SCORE.RESTR.norm>
0

>  <SCORE.SYSTEM>
0

>  <SCORE.SYSTEM.CONST>
0

>  <SCORE.SYSTEM.DIHEDRAL>
0

>  <SCORE.SYSTEM.SOLV>
0

>  <SCORE.SYSTEM.norm>
0

>  <SCORE.heavy>
52

>  <SCORE.norm>
-0.206036

>  <RMSD>
9.049

$$$$
2be0_lig
 OpenBabel11021811423D
libRbt.so/2013.1/901 2013/11/27
 52 56  0  0  0  0  0  0  0  0999 V2000
   46.3881    4.7328   -5.6118 C   0  0  2  0  0  0  0  0  0  0  0  0
   45.7607    4.1246   -6.7161 O   0  0  0  0  0  0  0  0  0  0  0  0
   47.2414    2.4711  -10.5167 C   0  0  2  0  0  0  0  0  0  0  0  0
   48.1087    1.7243  -11.4704 N   0  0  0  0  0  0  0  0  0  0  0  0
   44.0694    1.9860   -6.6326 C   0  0  2  0  0  0  0  0  0  0  0  0
   43.8476    1.1362   -5.4885 O   0  0  0  0  0  0  0  0  0  0  0  0
   40.4444    0.3714   -8.8430 C   0  0  1  0  0  0  0  0  0  0  0  0
   43.1480    7.7726   -8.4400 C   0  0  0  0  0  0  0  0  0  0  0  0
   46.8275    3.6564   -4.5376 C   0  0  2  0  0  0  0  0  0  0  0  0
   47.6598    2.6329   -5.1735 N   0  0  0  0  0  0  0  0  0  0  0  0
   48.1286    3.5409   -9.7313 C   0  0  0  0  0  0  0  0  0  0  0  0
   42.7490    2.0246   -7.4183 C   0  0  2  0  0  0  0  0  0  0  0  0
   41.9714    3.1087   -6.7420 O   0  0  0  0  0  0  0  0  0  0  0  0
   38.8348    0.1654   -8.7527 C   0  0  2  0  0  0  0  0  0  0  0  0
   38.5555   -1.1925   -8.1836 N   0  0  0  0  0  0  0  0  0  0  0  0
   42.6747    7.6350   -9.7860 C   0  0  0  0  0  0  0  0  0  0  0  0
   43.1887    8.4823  -10.8024 N   0  0  0  0  0  0  0  0  0  0  0  0
   45.5308    3.0277   -3.8453 C   0  0  1  0  0  0  0  0  0  0  0  0
   45.9457    2.0611   -2.8926 O   0  0  0  0  0  0  0  0  0  0  0  0
   47.2153    4.3736   -8.6624 C   0  0  2  0  0  0  0  0  0  0  0  0
   48.0015    5.3412   -7.9505 N   0  0  0  0  0  0  0  0  0  0  0  0
   42.3259    0.5542   -7.2405 C   0  0  2  0  0  0  0  0  0  0  0  0
   40.9682    0.2366   -7.5096 O   0  0  0  0  0  0  0  0  0  0  0  0
   38.2545    0.2952  -10.1934 C   0  0  1  0  0  0  0  0  0  0  0  0
   38.5708    1.6613  -10.6417 O   0  0  0  0  0  0  0  0  0  0  0  0
   44.1688    9.4850  -10.5536 C   0  0  0  0  0  0  0  0  0  0  0  0
   44.7145    4.1774   -3.1865 C   0  0  2  0  0  0  0  0  0  0  0  0
   43.4926    3.6543   -2.5289 O   0  0  0  0  0  0  0  0  0  0  0  0
   46.5462    3.3725   -7.6330 C   0  0  2  0  0  0  0  0  0  0  0  0
   42.7713    0.2262   -5.7955 C   0  0  1  0  0  0  0  0  0  0  0  0
   38.9333   -0.8156  -11.1688 C   0  0  2  0  0  0  0  0  0  0  0  0
   38.6217   -2.1836  -10.7265 O   0  0  0  0  0  0  0  0  0  0  0  0
   44.6750    9.6669   -9.2430 C   0  0  0  0  0  0  0  0  0  0  0  0
   44.2867    5.2391   -4.2716 C   0  0  2  0  0  0  0  0  0  0  0  0
   45.5213    5.7089   -4.8797 O   0  0  0  0  0  0  0  0  0  0  0  0
   45.6981    2.3400   -8.4537 C   0  0  2  0  0  0  0  0  0  0  0  0
   45.1414    1.5111   -7.4406 O   0  0  0  0  0  0  0  0  0  0  0  0
   43.3332   -1.1886   -5.6658 C   0  0  0  0  0  0  0  0  0  0  0  0
   42.4323   -2.2278   -5.9648 O   0  0  0  0  0  0  0  0  0  0  0  0
   40.5173   -0.6071  -11.1898 C   0  0  1  0  0  0  0  0  0  0  0  0
   41.0322   -0.6939   -9.7679 O   0  0  0  0  0  0  0  0  0  0  0  0
   44.1700    8.8082   -8.1466 C   0  0  0  0  0  0  0  0  0  0  0  0
   43.5401    6.3077   -3.5885 C   0  0  0  0  0  0  0  0  0  0  0  0
   44.3739    7.0049   -2.8065 O   0  0  0  0  0  0  0  0  0  0  0  0
   46.6202    1.5290   -9.4585 C   0  0  1  0  0  0  0  0  0  0  0  0
   45.8528    0.6264  -10.1850 O   0  0  0  0  0  0  0  0  0  0  0  0
   40.6202    3.6163   -7.0783 C   0  0  0  0  0  0  0  0  0  0  0  0
   41.1091   -1.6974  -12.1238 C   0  0  0  0  0  0  0  0  0  0  0  0
   40.9769   -3.0031  -11.5269 N   0  0  0  0  0  0  0  0  0  0  0  0
   40.6344    5.1307   -6.8465 C   0  0  0  0  0  0  0  0  0  0  0  0
   41.5165    5.7834   -7.8676 N   0  0  0  0  0  0  0  0  0  0  0  0
   42.5498    6.7994   -7.3107 C   0  0  0  0  0  0  0  0  0  0  0  0
  1  2  1  6  0  0  0
  1  9  1  0  0  0  0
  1 35  1  0  0  0  0
  3  4  1  6  0  0  0
  3 11  1  0  0  0  0
  3 45  1  0  0  0  0
  5  6  1  0  0  0  0
  5 12  1  0  0  0  0
  5 37  1  6  0  0  0
  6 30  1  0  0  0  0
  7 14  1  0  0  0  0
  7 41  1  0  0  0  0
  7 23  1  1  0  0  0
  8 16  2  0  0  0  0
  8 42  1  0  0  0  0
  9 10  1  6  0  0  0
  9 18  1  0  0  0  0
 11 20  1  0  0  0  0
 12 13  1  1  0  0  0
 12 22  1  0  0  0  0
 13 47  1  0  0  0  0
 14 15  1  6  0  0  0
 14 24  1  0  0  0  0
 16 17  1  0  0  0  0
 17 26  2  0  0  0  0
 18 19  1  1  0  0  0
 18 27  1  0  0  0  0
 20 21  1  1  0  0  0
 20 29  1  0  0  0  0
 22 23  1  1  0  0  0
 22 30  1  0  0  0  0
 24 25  1  6  0  0  0
 24 31  1  0  0  0  0
 26 33  1  0  0  0  0
 27 28  1  6  0  0  0
 27 34  1  0  0  0  0
 29  2  1  1  0  0  0
 29 36  1  0  0  0  0
 30 38  1  6  0  0  0
 31 32  1  1  0  0  0
 31 40  1  0  0  0  0
 33 42  2  0  0  0  0
 34 35  1  0  0  0  0
 34 43  1  1  0  0  0
 36 37  1  1  0  0  0
 36 45  1  0  0  0  0
 38 39  1  0  0  0  0
 40 41  1  0  0  0  0
 40 48  1  6  0  0  0
 43 44  1  0  0  0  0
 45 46  1  6  0  0  0
 47 50  1  0  0  0  0
 48 49  1  0  0  0  0
 50 51  1  0  0  0  0
 51 52  1  0  0  0  0
 52  8  1  0  0  0  0
M  END
>  <CHROM.1>
-71.94994724,-167.10757266,-171.02740245,178.93423618,-142.73541476,65.06531009
-82.60008794,-178.36645350,68.93474273,74.73629410,-69.17230039,68.42256463
-131.49845935,-162.79008779,1.14374733,43.44568714,2.82958301,-7.63254071
-0.52260866,0.87195452,2.68538194

>  <Name>
2be0_lig

>  <RI>
3.37048e+07

>  <Rbt.Current_Directory>
/home/itssahil/PROJECTS/Mol_Feturizer/New_Systems/rnas/2be0

>  <Rbt.Executable>
rbdock ($Id: //depot/dev/client3/rdock/2013.1/src/exe/rbdock.cxx#4 $)

>  <Rbt.Library>
libRbt.so (2013.1, Build901 2013/11/27)

>  <Rbt.Parameter_File>
/export/apps/rDock/src/rDock_2013.1_src/data/scripts/dock_solv.prm

>  <Rbt.Receptor>
prm/pocket_docking_8.prm

>  <SCORE>
-22.4383

>  <SCORE.INTER>
-7.45567

>  <SCORE.INTER.CONST>
1

>  <SCORE.INTER.POLAR>
-0.894427

>  <SCORE.INTER.ROT>
15

>  <SCORE.INTER.SOLV>
10.0116

>  <SCORE.INTER.VDW>
-18.9262

>  <SCORE.INTER.norm>
-0.143378

>  <SCORE.INTRA>
-14.9826

>  <SCORE.INTRA.DIHEDRAL>
-34.3122

>  <SCORE.INTRA.DIHEDRAL.0>
47.8724

>  <SCORE.INTRA.POLAR>
0

>  <SCORE.INTRA.POLAR.0>
0

>  <SCORE.INTRA.REPUL>
0.0586774

>  <SCORE.INTRA.REPUL.0>
0

>  <SCORE.INTRA.SOLV>
2.37553

>  <SCORE.INTRA.SOLV.lig_0>
-115.677

>  <SCORE.INTRA.VDW>
0.692315

>  <SCORE.INTRA.VDW.0>
-7.4833

>  <SCORE.INTRA.norm>
-0.288128

>  <SCORE.RESTR>
0

>  <SCORE.RESTR.CAVITY>
0

>  <SCORE.RESTR.norm>
0

>  <SCORE.SYSTEM>
0

>  <SCORE.SYSTEM.CONST>
0

>  <SCORE.SYSTEM.DIHEDRAL>
0

>  <SCORE.SYSTEM.SOLV>
0

>  <SCORE.SYSTEM.norm>
0

>  <SCORE.heavy>
52

>  <SCORE.norm>
-0.431506

>  <RMSD>
9.050

$$$$
2be0_lig
 OpenBabel11021811423D
libRbt.so/2013.1/901 2013/11/27
 52 56  0  0  0  0  0  0  0  0999 V2000
   44.2684    3.4104   -7.4975 C   0  0  2  0  0  0  0  0  0  0  0  0
   43.0884    2.6565   -7.3484 O   0  0  0  0  0  0  0  0  0  0  0  0
   39.8697    1.2223   -9.9854 C   0  0  2  0  0  0  0  0  0  0  0  0
   39.1793    0.7652  -11.2239 N   0  0  0  0  0  0  0  0  0  0  0  0
   43.2643   -0.1394   -6.5537 C   0  0  2  0  0  0  0  0  0  0  0  0
   44.4053   -1.0080   -6.3989 O   0  0  0  0  0  0  0  0  0  0  0  0
   40.4274   -2.9797   -4.6074 C   0  0  1  0  0  0  0  0  0  0  0  0
   43.9035    4.7298   -0.6276 C   0  0  0  0  0  0  0  0  0  0  0  0
   45.1217    3.4094   -6.1642 C   0  0  2  0  0  0  0  0  0  0  0  0
   45.3759    2.0311   -5.7397 N   0  0  0  0  0  0  0  0  0  0  0  0
   40.5095    2.6617  -10.2445 C   0  0  0  0  0  0  0  0  0  0  0  0
   42.1514   -0.7060   -5.6576 C   0  0  2  0  0  0  0  0  0  0  0  0
   42.4449   -0.1107   -4.3171 O   0  0  0  0  0  0  0  0  0  0  0  0
   40.0799   -4.1922   -3.5824 C   0  0  2  0  0  0  0  0  0  0  0  0
   40.3465   -5.4956   -4.2722 N   0  0  0  0  0  0  0  0  0  0  0  0
   44.2543    5.7407   -1.5815 C   0  0  0  0  0  0  0  0  0  0  0  0
   44.2466    7.1062   -1.1939 N   0  0  0  0  0  0  0  0  0  0  0  0
   44.3604    4.2514   -5.0384 C   0  0  1  0  0  0  0  0  0  0  0  0
   45.1372    4.2318   -3.8508 O   0  0  0  0  0  0  0  0  0  0  0  0
   41.2901    3.1939   -8.9114 C   0  0  2  0  0  0  0  0  0  0  0  0
   41.8686    4.4895   -9.1308 N   0  0  0  0  0  0  0  0  0  0  0  0
   42.3966   -2.2076   -5.8986 C   0  0  2  0  0  0  0  0  0  0  0  0
   41.8125   -3.1130   -4.9736 O   0  0  0  0  0  0  0  0  0  0  0  0
   38.5774   -4.0686   -3.1872 C   0  0  1  0  0  0  0  0  0  0  0  0
   38.4369   -2.7696   -2.5089 O   0  0  0  0  0  0  0  0  0  0  0  0
   43.9003    7.5378    0.1183 C   0  0  0  0  0  0  0  0  0  0  0  0
   44.1435    5.6998   -5.5651 C   0  0  2  0  0  0  0  0  0  0  0  0
   43.4354    6.5311   -4.5618 O   0  0  0  0  0  0  0  0  0  0  0  0
   42.4267    2.1666   -8.5083 C   0  0  2  0  0  0  0  0  0  0  0  0
   43.9381   -2.3087   -5.9857 C   0  0  1  0  0  0  0  0  0  0  0  0
   37.6444   -4.1410   -4.5177 C   0  0  2  0  0  0  0  0  0  0  0  0
   37.7800   -5.4367   -5.2012 O   0  0  0  0  0  0  0  0  0  0  0  0
   43.5458    6.5840    1.1040 C   0  0  0  0  0  0  0  0  0  0  0  0
   43.2926    5.6799   -6.8929 C   0  0  2  0  0  0  0  0  0  0  0  0
   44.0335    4.8507   -7.8301 O   0  0  0  0  0  0  0  0  0  0  0  0
   41.7490    0.7717   -8.2764 C   0  0  2  0  0  0  0  0  0  0  0  0
   42.8464   -0.0568   -7.9123 O   0  0  0  0  0  0  0  0  0  0  0  0
   44.3977   -3.3056   -7.0482 C   0  0  0  0  0  0  0  0  0  0  0  0
   43.8776   -3.0974   -8.3395 O   0  0  0  0  0  0  0  0  0  0  0  0
   38.0520   -2.9629   -5.5171 C   0  0  1  0  0  0  0  0  0  0  0  0
   39.5269   -3.0930   -5.8370 O   0  0  0  0  0  0  0  0  0  0  0  0
   43.5377    5.1458    0.7493 C   0  0  0  0  0  0  0  0  0  0  0  0
   43.1397    7.0697   -7.3524 C   0  0  0  0  0  0  0  0  0  0  0  0
   44.3280    7.5413   -7.7506 O   0  0  0  0  0  0  0  0  0  0  0  0
   41.0273    0.2718   -9.5981 C   0  0  1  0  0  0  0  0  0  0  0  0
   40.4234   -0.9596   -9.3735 O   0  0  0  0  0  0  0  0  0  0  0  0
   42.4448    1.3191   -3.9274 C   0  0  0  0  0  0  0  0  0  0  0  0
   37.1400   -3.0887   -6.7676 C   0  0  0  0  0  0  0  0  0  0  0  0
   37.2110   -1.8927   -7.5698 N   0  0  0  0  0  0  0  0  0  0  0  0
   42.6439    1.3751   -2.4093 C   0  0  0  0  0  0  0  0  0  0  0  0
   42.6975    2.8058   -1.9656 N   0  0  0  0  0  0  0  0  0  0  0  0
   43.9222    3.1926   -1.0935 C   0  0  0  0  0  0  0  0  0  0  0  0
  1  2  1  1  0  0  0
  1  9  1  0  0  0  0
  1 35  1  0  0  0  0
  3  4  1  6  0  0  0
  3 11  1  0  0  0  0
  3 45  1  0  0  0  0
  5  6  1  0  0  0  0
  5 12  1  0  0  0  0
  5 37  1  6  0  0  0
  6 30  1  0  0  0  0
  7 14  1  0  0  0  0
  7 41  1  0  0  0  0
  7 23  1  6  0  0  0
  8 16  2  0  0  0  0
  8 42  1  0  0  0  0
  9 10  1  1  0  0  0
  9 18  1  0  0  0  0
 11 20  1  0  0  0  0
 12 13  1  1  0  0  0
 12 22  1  0  0  0  0
 13 47  1  0  0  0  0
 14 15  1  6  0  0  0
 14 24  1  0  0  0  0
 16 17  1  0  0  0  0
 17 26  2  0  0  0  0
 18 19  1  1  0  0  0
 18 27  1  0  0  0  0
 20 21  1  6  0  0  0
 20 29  1  0  0  0  0
 22 23  1  1  0  0  0
 22 30  1  0  0  0  0
 24 25  1  6  0  0  0
 24 31  1  0  0  0  0
 26 33  1  0  0  0  0
 27 28  1  1  0  0  0
 27 34  1  0  0  0  0
 29  2  1  1  0  0  0
 29 36  1  0  0  0  0
 30 38  1  6  0  0  0
 31 32  1  6  0  0  0
 31 40  1  0  0  0  0
 33 42  2  0  0  0  0
 34 35  1  0  0  0  0
 34 43  1  6  0  0  0
 36 37  1  6  0  0  0
 36 45  1  0  0  0  0
 38 39  1  0  0  0  0
 40 41  1  0  0  0  0
 40 48  1  6  0  0  0
 43 44  1  0  0  0  0
 45 46  1  1  0  0  0
 47 50  1  0  0  0  0
 48 49  1  0  0  0  0
 50 51  1  0  0  0  0
 51 52  1  0  0  0  0
 52  8  1  0  0  0  0
M  END
>  <CHROM.1>
-159.21617621,-178.84100794,178.18630142,62.94558954,173.34451224,48.36895342
-94.98709239,-62.24676347,68.06435968,86.83606148,166.16281706,178.12998862
-128.07352749,-178.82816449,-76.18093877,42.11344375,1.13544293,-5.58956080
-0.09857864,-1.13425868,-1.41664979

>  <Name>
2be0_lig

>  <RI>
3.37048e+07

>  <Rbt.Current_Directory>
/home/itssahil/PROJECTS/Mol_Feturizer/New_Systems/rnas/2be0

>  <Rbt.Executable>
rbdock ($Id: //depot/dev/client3/rdock/2013.1/src/exe/rbdock.cxx#4 $)

>  <Rbt.Library>
libRbt.so (2013.1, Build901 2013/11/27)

>  <Rbt.Parameter_File>
/export/apps/rDock/src/rDock_2013.1_src/data/scripts/dock_solv.prm

>  <Rbt.Receptor>
prm/pocket_docking_8.prm

>  <SCORE>
-18.0836

>  <SCORE.INTER>
-3.22505

>  <SCORE.INTER.CONST>
1

>  <SCORE.INTER.POLAR>
-0.894427

>  <SCORE.INTER.ROT>
15

>  <SCORE.INTER.SOLV>
5.28058

>  <SCORE.INTER.VDW>
-14.5288

>  <SCORE.INTER.norm>
-0.0620203

>  <SCORE.INTRA>
-14.8585

>  <SCORE.INTRA.DIHEDRAL>
-34.2206

>  <SCORE.INTRA.DIHEDRAL.0>
47.8724

>  <SCORE.INTRA.POLAR>
0

>  <SCORE.INTRA.POLAR.0>
0

>  <SCORE.INTRA.REPUL>
0.0648491

>  <SCORE.INTRA.REPUL.0>
0

>  <SCORE.INTRA.SOLV>
3.95283

>  <SCORE.INTRA.SOLV.lig_0>
-115.677

>  <SCORE.INTRA.VDW>
-0.0488738

>  <SCORE.INTRA.VDW.0>
-7.4833

>  <SCORE.INTRA.norm>
-0.285741

>  <SCORE.RESTR>
0

>  <SCORE.RESTR.CAVITY>
0

>  <SCORE.RESTR.norm>
0

>  <SCORE.SYSTEM>
0

>  <SCORE.SYSTEM.CONST>
0

>  <SCORE.SYSTEM.DIHEDRAL>
0

>  <SCORE.SYSTEM.SOLV>
0

>  <SCORE.SYSTEM.norm>
0

>  <SCORE.heavy>
52

>  <SCORE.norm>
-0.347761

>  <RMSD>
9.083

$$$$
2be0_lig
 OpenBabel11021811423D
libRbt.so/2013.1/901 2013/11/27
 52 56  0  0  0  0  0  0  0  0999 V2000
   39.6582    0.0593   -7.9080 C   0  0  2  0  0  0  0  0  0  0  0  0
   39.6462   -0.2950   -6.5453 O   0  0  0  0  0  0  0  0  0  0  0  0
   42.3675    0.8315   -3.2747 C   0  0  2  0  0  0  0  0  0  0  0  0
   43.6120    0.9132   -2.4598 N   0  0  0  0  0  0  0  0  0  0  0  0
   40.6316    2.9464   -7.3083 C   0  0  2  0  0  0  0  0  0  0  0  0
   40.8394    3.2083   -8.7114 O   0  0  0  0  0  0  0  0  0  0  0  0
   43.9098    6.4066   -7.8778 C   0  0  1  0  0  0  0  0  0  0  0  0
   39.7287    4.3968   -1.2752 C   0  0  0  0  0  0  0  0  0  0  0  0
   38.2226   -0.1029   -8.5551 C   0  0  2  0  0  0  0  0  0  0  0  0
   37.2402    0.6555   -7.7778 N   0  0  0  0  0  0  0  0  0  0  0  0
   41.9673   -0.7020   -3.4654 C   0  0  0  0  0  0  0  0  0  0  0  0
   41.0081    4.2333   -6.5570 C   0  0  2  0  0  0  0  0  0  0  0  0
   39.7545    5.0477   -6.6085 O   0  0  0  0  0  0  0  0  0  0  0  0
   44.9160    6.8353   -6.6758 C   0  0  2  0  0  0  0  0  0  0  0  0
   44.2846    7.9472   -5.8942 N   0  0  0  0  0  0  0  0  0  0  0  0
   39.0910    5.6721   -1.1272 C   0  0  0  0  0  0  0  0  0  0  0  0
   39.0495    6.2939    0.1482 N   0  0  0  0  0  0  0  0  0  0  0  0
   37.8459   -1.6539   -8.6452 C   0  0  1  0  0  0  0  0  0  0  0  0
   36.5542   -1.7769   -9.2202 O   0  0  0  0  0  0  0  0  0  0  0  0
   40.6118   -0.8360   -4.3680 C   0  0  2  0  0  0  0  0  0  0  0  0
   40.2396   -2.2113   -4.5451 N   0  0  0  0  0  0  0  0  0  0  0  0
   42.2272    4.6508   -7.4010 C   0  0  2  0  0  0  0  0  0  0  0  0
   42.6717    5.9933   -7.2722 O   0  0  0  0  0  0  0  0  0  0  0  0
   46.2583    7.2988   -7.3181 C   0  0  1  0  0  0  0  0  0  0  0  0
   46.7922    6.1323   -8.0402 O   0  0  0  0  0  0  0  0  0  0  0  0
   39.6170    5.7076    1.3154 C   0  0  0  0  0  0  0  0  0  0  0  0
   38.9298   -2.3783   -9.4952 C   0  0  2  0  0  0  0  0  0  0  0  0
   38.6355   -3.8271   -9.6114 O   0  0  0  0  0  0  0  0  0  0  0  0
   40.8397   -0.1614   -5.7831 C   0  0  2  0  0  0  0  0  0  0  0  0
   41.8148    4.2629   -8.8410 C   0  0  1  0  0  0  0  0  0  0  0  0
   45.9902    8.5442   -8.3295 C   0  0  2  0  0  0  0  0  0  0  0  0
   45.4561    9.7138   -7.6147 O   0  0  0  0  0  0  0  0  0  0  0  0
   40.2614    4.4488    1.2304 C   0  0  0  0  0  0  0  0  0  0  0  0
   40.3518   -2.2051   -8.8353 C   0  0  2  0  0  0  0  0  0  0  0  0
   40.5791   -0.7715   -8.7458 O   0  0  0  0  0  0  0  0  0  0  0  0
   41.2397    1.3352   -5.5395 C   0  0  2  0  0  0  0  0  0  0  0  0
   41.4044    1.8377   -6.8600 O   0  0  0  0  0  0  0  0  0  0  0  0
   42.9809    3.6948   -9.6482 C   0  0  0  0  0  0  0  0  0  0  0  0
   43.7118    2.6704   -9.0176 O   0  0  0  0  0  0  0  0  0  0  0  0
   44.9602    8.0940   -9.4651 C   0  0  1  0  0  0  0  0  0  0  0  0
   43.6907    7.6079   -8.7968 O   0  0  0  0  0  0  0  0  0  0  0  0
   40.3307    3.7582   -0.0782 C   0  0  0  0  0  0  0  0  0  0  0  0
   41.3338   -2.8898   -9.6914 C   0  0  0  0  0  0  0  0  0  0  0  0
   41.1806   -4.2148   -9.5744 O   0  0  0  0  0  0  0  0  0  0  0  0
   42.5747    1.4277   -4.6872 C   0  0  1  0  0  0  0  0  0  0  0  0
   42.9098    2.7591   -4.4714 O   0  0  0  0  0  0  0  0  0  0  0  0
   39.3468    6.1628   -5.7216 C   0  0  0  0  0  0  0  0  0  0  0  0
   44.7351    9.3210  -10.3900 C   0  0  0  0  0  0  0  0  0  0  0  0
   44.0282   10.3630   -9.6875 N   0  0  0  0  0  0  0  0  0  0  0  0
   38.9716    5.5511   -4.3679 C   0  0  0  0  0  0  0  0  0  0  0  0
   40.1122    4.7201   -3.8626 N   0  0  0  0  0  0  0  0  0  0  0  0
   39.7620    3.7174   -2.7304 C   0  0  0  0  0  0  0  0  0  0  0  0
  1  2  1  1  0  0  0
  1  9  1  0  0  0  0
  1 35  1  0  0  0  0
  3  4  1  1  0  0  0
  3 11  1  0  0  0  0
  3 45  1  0  0  0  0
  5  6  1  0  0  0  0
  5 12  1  0  0  0  0
  5 37  1  1  0  0  0
  6 30  1  0  0  0  0
  7 14  1  0  0  0  0
  7 41  1  0  0  0  0
  7 23  1  1  0  0  0
  8 16  2  0  0  0  0
  8 42  1  0  0  0  0
  9 10  1  1  0  0  0
  9 18  1  0  0  0  0
 11 20  1  0  0  0  0
 12 13  1  6  0  0  0
 12 22  1  0  0  0  0
 13 47  1  0  0  0  0
 14 15  1  6  0  0  0
 14 24  1  0  0  0  0
 16 17  1  0  0  0  0
 17 26  2  0  0  0  0
 18 19  1  6  0  0  0
 18 27  1  0  0  0  0
 20 21  1  6  0  0  0
 20 29  1  0  0  0  0
 22 23  1  6  0  0  0
 22 30  1  0  0  0  0
 24 25  1  6  0  0  0
 24 31  1  0  0  0  0
 26 33  1  0  0  0  0
 27 28  1  1  0  0  0
 27 34  1  0  0  0  0
 29  2  1  6  0  0  0
 29 36  1  0  0  0  0
 30 38  1  6  0  0  0
 31 32  1  1  0  0  0
 31 40  1  0  0  0  0
 33 42  2  0  0  0  0
 34 35  1  0  0  0  0
 34 43  1  6  0  0  0
 36 37  1  6  0  0  0
 36 45  1  0  0  0  0
 38 39  1  0  0  0  0
 40 41  1  0  0  0  0
 40 48  1  6  0  0  0
 43 44  1  0  0  0  0
 45 46  1  1  0  0  0
 47 50  1  0  0  0  0
 48 49  1  0  0  0  0
 50 51  1  0  0  0  0
 51 52  1  0  0  0  0
 52  8  1  0  0  0  0
M  END
>  <CHROM.1>
-177.52838204,-173.70110843,-115.92496235,158.55301544,-72.47089644,171.20434255
-171.14639264,-66.32080385,-71.98003045,121.79958322,-67.84639877,54.49211745
-163.10397466,-82.06946451,43.38349282,41.45383608,3.07392519,-6.39610269
-2.52661108,1.02503719,0.95606206

>  <Name>
2be0_lig

>  <RI>
0

>  <Rbt.Current_Directory>
/home/itssahil/PROJECTS/Mol_Feturizer/New_Systems/rnas/2be0

>  <Rbt.Executable>
rbdock ($Id: //depot/dev/client3/rdock/2013.1/src/exe/rbdock.cxx#4 $)

>  <Rbt.Library>
libRbt.so (2013.1, Build901 2013/11/27)

>  <Rbt.Parameter_File>
/export/apps/rDock/src/rDock_2013.1_src/data/scripts/dock_solv.prm

>  <Rbt.Receptor>
prm/pocket_docking_4.prm

>  <SCORE>
-18.1466

>  <SCORE.INTER>
-5.87525

>  <SCORE.INTER.CONST>
1

>  <SCORE.INTER.POLAR>
-1.53435

>  <SCORE.INTER.ROT>
15

>  <SCORE.INTER.SOLV>
13.0134

>  <SCORE.INTER.VDW>
-16.7401

>  <SCORE.INTER.norm>
-0.112986

>  <SCORE.INTRA>
-12.2947

>  <SCORE.INTRA.DIHEDRAL>
-27.296

>  <SCORE.INTRA.DIHEDRAL.0>
47.8724

>  <SCORE.INTRA.POLAR>
0

>  <SCORE.INTRA.POLAR.0>
0

>  <SCORE.INTRA.REPUL>
4.3937e-05

>  <SCORE.INTRA.REPUL.0>
0

>  <SCORE.INTRA.SOLV>
0.134021

>  <SCORE.INTRA.SOLV.lig_0>
-115.677

>  <SCORE.INTRA.VDW>
1.28607

>  <SCORE.INTRA.VDW.0>
-7.4833

>  <SCORE.INTRA.norm>
-0.236436

>  <SCORE.RESTR>
0.0233127

>  <SCORE.RESTR.CAVITY>
0.0233127

>  <SCORE.RESTR.norm>
0.000448322

>  <SCORE.SYSTEM>
0

>  <SCORE.SYSTEM.CONST>
0

>  <SCORE.SYSTEM.DIHEDRAL>
0

>  <SCORE.SYSTEM.SOLV>
0

>  <SCORE.SYSTEM.norm>
0

>  <SCORE.heavy>
52

>  <SCORE.norm>
-0.348974

>  <RMSD>
9.090

$$$$
2be0_lig
 OpenBabel11021811423D
libRbt.so/2013.1/901 2013/11/27
 52 56  0  0  0  0  0  0  0  0999 V2000
   41.0150    2.6417   -2.2351 C   0  0  2  0  0  0  0  0  0  0  0  0
   42.2941    3.0566   -1.8171 O   0  0  0  0  0  0  0  0  0  0  0  0
   41.7403    6.0279    1.3822 C   0  0  2  0  0  0  0  0  0  0  0  0
   41.9309    7.2708    2.1812 N   0  0  0  0  0  0  0  0  0  0  0  0
   41.5128    5.9794   -3.1135 C   0  0  2  0  0  0  0  0  0  0  0  0
   40.7872    6.5256   -4.2340 O   0  0  0  0  0  0  0  0  0  0  0  0
   42.6041    4.3863   -7.1993 C   0  0  1  0  0  0  0  0  0  0  0  0
   48.0063    4.8190   -5.6671 C   0  0  0  0  0  0  0  0  0  0  0  0
   40.4671    1.4683   -1.3248 C   0  0  2  0  0  0  0  0  0  0  0  0
   40.5032    1.8742    0.0818 N   0  0  0  0  0  0  0  0  0  0  0  0
   43.1394    5.2702    1.2527 C   0  0  0  0  0  0  0  0  0  0  0  0
   42.6037    5.0660   -3.6949 C   0  0  2  0  0  0  0  0  0  0  0  0
   43.7288    6.0074   -3.9871 O   0  0  0  0  0  0  0  0  0  0  0  0
   43.6936    3.5326   -8.0511 C   0  0  2  0  0  0  0  0  0  0  0  0
   45.0163    3.6075   -7.3507 N   0  0  0  0  0  0  0  0  0  0  0  0
   48.7574    5.6412   -6.5697 C   0  0  0  0  0  0  0  0  0  0  0  0
   49.9266    5.1230   -7.1856 N   0  0  0  0  0  0  0  0  0  0  0  0
   41.3202    0.1418   -1.5868 C   0  0  1  0  0  0  0  0  0  0  0  0
   40.8186   -0.8944   -0.7568 O   0  0  0  0  0  0  0  0  0  0  0  0
   42.9762    3.9054    0.3692 C   0  0  2  0  0  0  0  0  0  0  0  0
   44.2279    3.2129    0.2470 N   0  0  0  0  0  0  0  0  0  0  0  0
   41.8006    4.4494   -4.8558 C   0  0  2  0  0  0  0  0  0  0  0  0
   42.5415    3.8076   -5.8833 O   0  0  0  0  0  0  0  0  0  0  0  0
   43.7822    4.1571   -9.4763 C   0  0  1  0  0  0  0  0  0  0  0  0
   42.4430    4.0145  -10.0708 O   0  0  0  0  0  0  0  0  0  0  0  0
   50.4069    3.8032   -6.9502 C   0  0  0  0  0  0  0  0  0  0  0  0
   41.2168   -0.2235   -3.0961 C   0  0  2  0  0  0  0  0  0  0  0  0
   41.9944   -1.4485   -3.4023 O   0  0  0  0  0  0  0  0  0  0  0  0
   42.4238    4.2614   -1.0722 C   0  0  2  0  0  0  0  0  0  0  0  0
   40.9301    5.6277   -5.3539 C   0  0  1  0  0  0  0  0  0  0  0  0
   44.2157    5.7214   -9.3722 C   0  0  2  0  0  0  0  0  0  0  0  0
   45.5533    5.8716   -8.7784 O   0  0  0  0  0  0  0  0  0  0  0  0
   49.7056    2.9441   -6.0687 C   0  0  0  0  0  0  0  0  0  0  0  0
   41.7664    0.9570   -3.9859 C   0  0  2  0  0  0  0  0  0  0  0  0
   40.9706    2.1235   -3.6385 O   0  0  0  0  0  0  0  0  0  0  0  0
   41.0587    5.0110   -0.8886 C   0  0  2  0  0  0  0  0  0  0  0  0
   40.6551    5.2664   -2.2284 O   0  0  0  0  0  0  0  0  0  0  0  0
   39.5233    5.1851   -5.7527 C   0  0  0  0  0  0  0  0  0  0  0  0
   38.7346    6.1673   -6.3808 O   0  0  0  0  0  0  0  0  0  0  0  0
   43.1451    6.5116   -8.4878 C   0  0  1  0  0  0  0  0  0  0  0  0
   43.0566    5.8444   -7.1308 O   0  0  0  0  0  0  0  0  0  0  0  0
   48.4795    3.4379   -5.4000 C   0  0  0  0  0  0  0  0  0  0  0  0
   41.6233    0.5638   -5.3970 C   0  0  0  0  0  0  0  0  0  0  0  0
   42.7452    0.8687   -6.0611 O   0  0  0  0  0  0  0  0  0  0  0  0
   41.2591    6.3452   -0.0535 C   0  0  1  0  0  0  0  0  0  0  0  0
   40.0398    6.9919    0.1093 O   0  0  0  0  0  0  0  0  0  0  0  0
   43.7686    7.1127   -4.9736 C   0  0  0  0  0  0  0  0  0  0  0  0
   43.6150    7.9899   -8.4147 C   0  0  0  0  0  0  0  0  0  0  0  0
   43.5697    8.6019   -9.7194 N   0  0  0  0  0  0  0  0  0  0  0  0
   45.2290    7.5600   -5.0942 C   0  0  0  0  0  0  0  0  0  0  0  0
   46.0066    6.5260   -5.8511 N   0  0  0  0  0  0  0  0  0  0  0  0
   46.6866    5.4311   -4.9858 C   0  0  0  0  0  0  0  0  0  0  0  0
  1  2  1  1  0  0  0
  1  9  1  0  0  0  0
  1 35  1  0  0  0  0
  3  4  1  1  0  0  0
  3 11  1  0  0  0  0
  3 45  1  0  0  0  0
  5  6  1  0  0  0  0
  5 12  1  0  0  0  0
  5 37  1  1  0  0  0
  6 30  1  0  0  0  0
  7 14  1  0  0  0  0
  7 41  1  0  0  0  0
  7 23  1  1  0  0  0
  8 16  2  0  0  0  0
  8 42  1  0  0  0  0
  9 10  1  1  0  0  0
  9 18  1  0  0  0  0
 11 20  1  0  0  0  0
 12 13  1  6  0  0  0
 12 22  1  0  0  0  0
 13 47  1  0  0  0  0
 14 15  1  1  0  0  0
 14 24  1  0  0  0  0
 16 17  1  0  0  0  0
 17 26  2  0  0  0  0
 18 19  1  1  0  0  0
 18 27  1  0  0  0  0
 20 21  1  6  0  0  0
 20 29  1  0  0  0  0
 22 23  1  6  0  0  0
 22 30  1  0  0  0  0
 24 25  1  1  0  0  0
 24 31  1  0  0  0  0
 26 33  1  0  0  0  0
 27 28  1  1  0  0  0
 27 34  1  0  0  0  0
 29  2  1  6  0  0  0
 29 36  1  0  0  0  0
 30 38  1  1  0  0  0
 31 32  1  1  0  0  0
 31 40  1  0  0  0  0
 33 42  2  0  0  0  0
 34 35  1  0  0  0  0
 34 43  1  6  0  0  0
 36 37  1  6  0  0  0
 36 45  1  0  0  0  0
 38 39  1  0  0  0  0
 40 41  1  0  0  0  0
 40 48  1  1  0  0  0
 43 44  1  0  0  0  0
 45 46  1  1  0  0  0
 47 50  1  0  0  0  0
 48 49  1  0  0  0  0
 50 51  1  0  0  0  0
 51 52  1  0  0  0  0
 52  8  1  0  0  0  0
M  END
>  <CHROM.1>
-102.89945197,-160.45908273,171.79634233,-65.44961375,-167.78074740,-111.10554188
116.20515590,71.84978426,-135.50052769,-56.05248920,65.33200039,73.03638645
-91.60790313,-152.18610668,27.86991300,43.12493207,4.34080892,-4.39361369
-2.60605454,0.90184694,-0.36482013

>  <Name>
2be0_lig

>  <RI>
0

>  <Rbt.Current_Directory>
/home/itssahil/PROJECTS/Mol_Feturizer/New_Systems/rnas/2be0

>  <Rbt.Executable>
rbdock ($Id: //depot/dev/client3/rdock/2013.1/src/exe/rbdock.cxx#4 $)

>  <Rbt.Library>
libRbt.so (2013.1, Build901 2013/11/27)

>  <Rbt.Parameter_File>
/export/apps/rDock/src/rDock_2013.1_src/data/scripts/dock_solv.prm

>  <Rbt.Receptor>
prm/pocket_docking_2.prm

>  <SCORE>
24.1674

>  <SCORE.INTER>
8.47515

>  <SCORE.INTER.CONST>
1

>  <SCORE.INTER.POLAR>
0

>  <SCORE.INTER.ROT>
15

>  <SCORE.INTER.SOLV>
16.8052

>  <SCORE.INTER.VDW>
-13.5516

>  <SCORE.INTER.norm>
0.162984

>  <SCORE.INTRA>
0.353403

>  <SCORE.INTRA.DIHEDRAL>
-17.1042

>  <SCORE.INTRA.DIHEDRAL.0>
47.8724

>  <SCORE.INTRA.POLAR>
0

>  <SCORE.INTRA.POLAR.0>
0

>  <SCORE.INTRA.REPUL>
0.106229

>  <SCORE.INTRA.REPUL.0>
0

>  <SCORE.INTRA.SOLV>
5.62444

>  <SCORE.INTRA.SOLV.lig_0>
-115.677

>  <SCORE.INTRA.VDW>
5.56212

>  <SCORE.INTRA.VDW.0>
-7.4833

>  <SCORE.INTRA.norm>
0.00679622

>  <SCORE.RESTR>
15.3388

>  <SCORE.RESTR.CAVITY>
15.3388

>  <SCORE.RESTR.norm>
0.294978

>  <SCORE.SYSTEM>
0

>  <SCORE.SYSTEM.CONST>
0

>  <SCORE.SYSTEM.DIHEDRAL>
0

>  <SCORE.SYSTEM.SOLV>
0

>  <SCORE.SYSTEM.norm>
0

>  <SCORE.heavy>
52

>  <SCORE.norm>
0.464758

>  <RMSD>
9.111

$$$$
2be0_lig
 OpenBabel11021811423D
libRbt.so/2013.1/901 2013/11/27
 52 56  0  0  0  0  0  0  0  0999 V2000
   39.4597   -1.6161   -6.8907 C   0  0  2  0  0  0  0  0  0  0  0  0
   40.8135   -1.4145   -6.5599 O   0  0  0  0  0  0  0  0  0  0  0  0
   40.7282   -2.6105   -2.3251 C   0  0  2  0  0  0  0  0  0  0  0  0
   41.2204   -3.0263   -0.9819 N   0  0  0  0  0  0  0  0  0  0  0  0
   41.5215    1.4864   -3.6013 C   0  0  2  0  0  0  0  0  0  0  0  0
   40.5376    2.5406   -3.6325 O   0  0  0  0  0  0  0  0  0  0  0  0
   44.7038    3.9831   -5.5621 C   0  0  1  0  0  0  0  0  0  0  0  0
   43.4275    7.5232   -1.3798 C   0  0  0  0  0  0  0  0  0  0  0  0
   39.2797   -1.8636   -8.4438 C   0  0  2  0  0  0  0  0  0  0  0  0
   40.1416   -2.9671   -8.8728 N   0  0  0  0  0  0  0  0  0  0  0  0
   41.2576   -3.6454   -3.4192 C   0  0  0  0  0  0  0  0  0  0  0  0
   42.8853    2.1454   -3.8626 C   0  0  2  0  0  0  0  0  0  0  0  0
   43.3145    2.6099   -2.5071 O   0  0  0  0  0  0  0  0  0  0  0  0
   45.5779    3.8930   -4.1950 C   0  0  2  0  0  0  0  0  0  0  0  0
   45.4533    5.1923   -3.4586 N   0  0  0  0  0  0  0  0  0  0  0  0
   43.5943    7.7278   -2.7887 C   0  0  0  0  0  0  0  0  0  0  0  0
   42.7715    8.6661   -3.4653 N   0  0  0  0  0  0  0  0  0  0  0  0
   39.5927   -0.5147   -9.2427 C   0  0  1  0  0  0  0  0  0  0  0  0
   39.4333   -0.7596  -10.6315 O   0  0  0  0  0  0  0  0  0  0  0  0
   40.7503   -3.2161   -4.9119 C   0  0  2  0  0  0  0  0  0  0  0  0
   41.2182   -4.1409   -5.9054 N   0  0  0  0  0  0  0  0  0  0  0  0
   42.4500    3.1752   -4.9223 C   0  0  2  0  0  0  0  0  0  0  0  0
   43.3417    4.2495   -5.1821 O   0  0  0  0  0  0  0  0  0  0  0  0
   47.0597    3.6181   -4.5920 C   0  0  1  0  0  0  0  0  0  0  0  0
   47.0643    2.3209   -5.2882 O   0  0  0  0  0  0  0  0  0  0  0  0
   41.7660    9.4312   -2.8082 C   0  0  0  0  0  0  0  0  0  0  0  0
   38.6278    0.5963   -8.7358 C   0  0  2  0  0  0  0  0  0  0  0  0
   38.8738    1.8779   -9.4402 O   0  0  0  0  0  0  0  0  0  0  0  0
   41.2682   -1.7593   -5.2570 C   0  0  2  0  0  0  0  0  0  0  0  0
   41.0535    3.6253   -4.4311 C   0  0  1  0  0  0  0  0  0  0  0  0
   47.6062    4.8063   -5.5592 C   0  0  2  0  0  0  0  0  0  0  0  0
   47.6041    6.1061   -4.8700 O   0  0  0  0  0  0  0  0  0  0  0  0
   41.5560    9.2726   -1.4162 C   0  0  0  0  0  0  0  0  0  0  0  0
   38.8215    0.8278   -7.1878 C   0  0  2  0  0  0  0  0  0  0  0  0
   38.5717   -0.4584   -6.5569 O   0  0  0  0  0  0  0  0  0  0  0  0
   40.7311   -0.7871   -4.1500 C   0  0  2  0  0  0  0  0  0  0  0  0
   41.2398    0.4753   -4.5635 O   0  0  0  0  0  0  0  0  0  0  0  0
   40.0714    3.8377   -5.5820 C   0  0  0  0  0  0  0  0  0  0  0  0
   40.4393    4.8222   -6.5183 O   0  0  0  0  0  0  0  0  0  0  0  0
   46.6903    4.8913   -6.8657 C   0  0  1  0  0  0  0  0  0  0  0  0
   45.2554    5.1114   -6.4330 O   0  0  0  0  0  0  0  0  0  0  0  0
   42.3884    8.3050   -0.6644 C   0  0  0  0  0  0  0  0  0  0  0  0
   37.8716    1.8692   -6.7643 C   0  0  0  0  0  0  0  0  0  0  0  0
   37.9336    2.0156   -5.4348 O   0  0  0  0  0  0  0  0  0  0  0  0
   41.2671   -1.2150   -2.7193 C   0  0  1  0  0  0  0  0  0  0  0  0
   40.7745   -0.3506   -1.7489 O   0  0  0  0  0  0  0  0  0  0  0  0
   42.4743    3.1542   -1.4143 C   0  0  0  0  0  0  0  0  0  0  0  0
   47.2503    6.0447   -7.7419 C   0  0  0  0  0  0  0  0  0  0  0  0
   48.5447    5.6962   -8.2726 N   0  0  0  0  0  0  0  0  0  0  0  0
   42.6693    4.6738   -1.4067 C   0  0  0  0  0  0  0  0  0  0  0  0
   44.0960    4.9920   -1.0751 N   0  0  0  0  0  0  0  0  0  0  0  0
   44.3734    6.4562   -0.6400 C   0  0  0  0  0  0  0  0  0  0  0  0
  1  2  1  6  0  0  0
  1  9  1  0  0  0  0
  1 35  1  0  0  0  0
  3  4  1  1  0  0  0
  3 11  1  0  0  0  0
  3 45  1  0  0  0  0
  5  6  1  0  0  0  0
  5 12  1  0  0  0  0
  5 37  1  6  0  0  0
  6 30  1  0  0  0  0
  7 14  1  0  0  0  0
  7 41  1  0  0  0  0
  7 23  1  1  0  0  0
  8 16  2  0  0  0  0
  8 42  1  0  0  0  0
  9 10  1  6  0  0  0
  9 18  1  0  0  0  0
 11 20  1  0  0  0  0
 12 13  1  1  0  0  0
 12 22  1  0  0  0  0
 13 47  1  0  0  0  0
 14 15  1  6  0  0  0
 14 24  1  0  0  0  0
 16 17  1  0  0  0  0
 17 26  2  0  0  0  0
 18 19  1  6  0  0  0
 18 27  1  0  0  0  0
 20 21  1  6  0  0  0
 20 29  1  0  0  0  0
 22 23  1  1  0  0  0
 22 30  1  0  0  0  0
 24 25  1  6  0  0  0
 24 31  1  0  0  0  0
 26 33  1  0  0  0  0
 27 28  1  6  0  0  0
 27 34  1  0  0  0  0
 29  2  1  6  0  0  0
 29 36  1  0  0  0  0
 30 38  1  6  0  0  0
 31 32  1  1  0  0  0
 31 40  1  0  0  0  0
 33 42  2  0  0  0  0
 34 35  1  0  0  0  0
 34 43  1  1  0  0  0
 36 37  1  6  0  0  0
 36 45  1  0  0  0  0
 38 39  1  0  0  0  0
 40 41  1  0  0  0  0
 40 48  1  6  0  0  0
 43 44  1  0  0  0  0
 45 46  1  1  0  0  0
 47 50  1  0  0  0  0
 48 49  1  0  0  0  0
 50 51  1  0  0  0  0
 51 52  1  0  0  0  0
 52  8  1  0  0  0  0
M  END
>  <CHROM.1>
-152.31134081,-106.25429495,-89.47665332,-36.22364009,-102.77149296,55.35698259
48.36449195,-177.00472808,175.07649510,-151.14345358,68.35822692,-63.85563396
-163.59959415,-33.60120268,-67.58736912,42.24081552,2.43042206,-4.86579858
-2.51469288,0.89132009,1.16004619

>  <Name>
2be0_lig

>  <RI>
2.10017e+07

>  <Rbt.Current_Directory>
/home/itssahil/PROJECTS/Mol_Feturizer/New_Systems/rnas/2be0

>  <Rbt.Executable>
rbdock ($Id: //depot/dev/client3/rdock/2013.1/src/exe/rbdock.cxx#4 $)

>  <Rbt.Library>
libRbt.so (2013.1, Build901 2013/11/27)

>  <Rbt.Parameter_File>
/export/apps/rDock/src/rDock_2013.1_src/data/scripts/dock_solv.prm

>  <Rbt.Receptor>
prm/pocket_docking_3.prm

>  <SCORE>
4.3813

>  <SCORE.INTER>
6.72455

>  <SCORE.INTER.CONST>
1

>  <SCORE.INTER.POLAR>
0

>  <SCORE.INTER.ROT>
15

>  <SCORE.INTER.SOLV>
17.0914

>  <SCORE.INTER.VDW>
-14.8141

>  <SCORE.INTER.norm>
0.129318

>  <SCORE.INTRA>
-4.93145

>  <SCORE.INTRA.DIHEDRAL>
-20.4368

>  <SCORE.INTRA.DIHEDRAL.0>
47.8724

>  <SCORE.INTRA.POLAR>
0

>  <SCORE.INTRA.POLAR.0>
0

>  <SCORE.INTRA.REPUL>
0

>  <SCORE.INTRA.REPUL.0>
0

>  <SCORE.INTRA.SOLV>
4.86962

>  <SCORE.INTRA.SOLV.lig_0>
-115.677

>  <SCORE.INTRA.VDW>
2.85214

>  <SCORE.INTRA.VDW.0>
-7.4833

>  <SCORE.INTRA.norm>
-0.0948357

>  <SCORE.RESTR>
2.5882

>  <SCORE.RESTR.CAVITY>
2.5882

>  <SCORE.RESTR.norm>
0.0497731

>  <SCORE.SYSTEM>
0

>  <SCORE.SYSTEM.CONST>
0

>  <SCORE.SYSTEM.DIHEDRAL>
0

>  <SCORE.SYSTEM.SOLV>
0

>  <SCORE.SYSTEM.norm>
0

>  <SCORE.heavy>
52

>  <SCORE.norm>
0.0842557

>  <RMSD>
9.120

$$$$
2be0_lig
 OpenBabel11021811423D
libRbt.so/2013.1/901 2013/11/27
 52 56  0  0  0  0  0  0  0  0999 V2000
   39.2580    2.2500   -6.0434 C   0  0  2  0  0  0  0  0  0  0  0  0
   39.7289    1.2201   -5.2065 O   0  0  0  0  0  0  0  0  0  0  0  0
   41.4831    1.4035   -1.1741 C   0  0  2  0  0  0  0  0  0  0  0  0
   42.4616    1.6960   -0.0895 N   0  0  0  0  0  0  0  0  0  0  0  0
   40.2252    4.7597   -3.5644 C   0  0  2  0  0  0  0  0  0  0  0  0
   39.6465    5.8046   -4.3730 O   0  0  0  0  0  0  0  0  0  0  0  0
   43.7155    4.1406   -6.3692 C   0  0  1  0  0  0  0  0  0  0  0  0
   43.3099    9.2700    0.5896 C   0  0  0  0  0  0  0  0  0  0  0  0
   38.0685    1.7462   -6.9584 C   0  0  2  0  0  0  0  0  0  0  0  0
   37.0152    1.1626   -6.1251 N   0  0  0  0  0  0  0  0  0  0  0  0
   42.1962    0.5214   -2.2974 C   0  0  0  0  0  0  0  0  0  0  0  0
   41.6823    4.5980   -4.0260 C   0  0  2  0  0  0  0  0  0  0  0  0
   42.4157    5.6372   -3.2391 O   0  0  0  0  0  0  0  0  0  0  0  0
   44.5584    4.3069   -4.9896 C   0  0  2  0  0  0  0  0  0  0  0  0
   45.0472    5.7202   -4.8927 N   0  0  0  0  0  0  0  0  0  0  0  0
   42.1072    9.5120    1.3310 C   0  0  0  0  0  0  0  0  0  0  0  0
   41.7255   10.8447    1.6364 N   0  0  0  0  0  0  0  0  0  0  0  0
   38.6240    0.7050   -8.0369 C   0  0  1  0  0  0  0  0  0  0  0  0
   37.5423    0.2605   -8.8410 O   0  0  0  0  0  0  0  0  0  0  0  0
   41.1582    0.1898   -3.5150 C   0  0  2  0  0  0  0  0  0  0  0  0
   41.7872   -0.6055   -4.5315 N   0  0  0  0  0  0  0  0  0  0  0  0
   41.4725    4.7907   -5.5399 C   0  0  2  0  0  0  0  0  0  0  0  0
   42.6244    5.0774   -6.3193 O   0  0  0  0  0  0  0  0  0  0  0  0
   45.7529    3.3068   -5.0355 C   0  0  1  0  0  0  0  0  0  0  0  0
   45.1593    1.9618   -5.1130 O   0  0  0  0  0  0  0  0  0  0  0  0
   42.4886   11.9799    1.2401 C   0  0  0  0  0  0  0  0  0  0  0  0
   39.7244    1.4084   -8.8834 C   0  0  2  0  0  0  0  0  0  0  0  0
   40.2827    0.4873   -9.9027 O   0  0  0  0  0  0  0  0  0  0  0  0
   40.6268    1.5400   -4.1507 C   0  0  2  0  0  0  0  0  0  0  0  0
   40.3790    5.8829   -5.6131 C   0  0  1  0  0  0  0  0  0  0  0  0
   46.6857    3.6133   -6.3323 C   0  0  2  0  0  0  0  0  0  0  0  0
   47.2822    4.9564   -6.2618 O   0  0  0  0  0  0  0  0  0  0  0  0
   43.6861   11.8029    0.5042 C   0  0  0  0  0  0  0  0  0  0  0  0
   40.8994    1.9032   -7.9549 C   0  0  2  0  0  0  0  0  0  0  0  0
   40.2905    2.7943   -6.9803 O   0  0  0  0  0  0  0  0  0  0  0  0
   39.9474    2.3708   -3.0073 C   0  0  2  0  0  0  0  0  0  0  0  0
   39.5026    3.5389   -3.6864 O   0  0  0  0  0  0  0  0  0  0  0  0
   39.3776    5.6304   -6.7390 C   0  0  0  0  0  0  0  0  0  0  0  0
   38.3176    6.5525   -6.8248 O   0  0  0  0  0  0  0  0  0  0  0  0
   45.8070    3.4864   -7.6607 C   0  0  1  0  0  0  0  0  0  0  0  0
   44.6341    4.4390   -7.5536 O   0  0  0  0  0  0  0  0  0  0  0  0
   44.1285   10.4315    0.1609 C   0  0  0  0  0  0  0  0  0  0  0  0
   41.8945    2.5760   -8.8052 C   0  0  0  0  0  0  0  0  0  0  0  0
   41.3500    3.6726   -9.3471 O   0  0  0  0  0  0  0  0  0  0  0  0
   40.9901    2.7007   -1.8578 C   0  0  1  0  0  0  0  0  0  0  0  0
   40.3706    3.4278   -0.8483 O   0  0  0  0  0  0  0  0  0  0  0  0
   42.2885    7.1114   -3.3220 C   0  0  0  0  0  0  0  0  0  0  0  0
   46.7434    3.7993   -8.8594 C   0  0  0  0  0  0  0  0  0  0  0  0
   46.0517    3.6009  -10.1088 N   0  0  0  0  0  0  0  0  0  0  0  0
   43.2412    7.7078   -2.2808 C   0  0  0  0  0  0  0  0  0  0  0  0
   42.9128    7.1520   -0.9281 N   0  0  0  0  0  0  0  0  0  0  0  0
   43.7165    7.7519    0.2571 C   0  0  0  0  0  0  0  0  0  0  0  0
  1  2  1  6  0  0  0
  1  9  1  0  0  0  0
  1 35  1  0  0  0  0
  3  4  1  1  0  0  0
  3 11  1  0  0  0  0
  3 45  1  0  0  0  0
  5  6  1  0  0  0  0
  5 12  1  0  0  0  0
  5 37  1  6  0  0  0
  6 30  1  0  0  0  0
  7 14  1  0  0  0  0
  7 41  1  0  0  0  0
  7 23  1  1  0  0  0
  8 16  2  0  0  0  0
  8 42  1  0  0  0  0
  9 10  1  1  0  0  0
  9 18  1  0  0  0  0
 11 20  1  0  0  0  0
 12 13  1  1  0  0  0
 12 22  1  0  0  0  0
 13 47  1  0  0  0  0
 14 15  1  6  0  0  0
 14 24  1  0  0  0  0
 16 17  1  0  0  0  0
 17 26  2  0  0  0  0
 18 19  1  6  0  0  0
 18 27  1  0  0  0  0
 20 21  1  6  0  0  0
 20 29  1  0  0  0  0
 22 23  1  6  0  0  0
 22 30  1  0  0  0  0
 24 25  1  6  0  0  0
 24 31  1  0  0  0  0
 26 33  1  0  0  0  0
 27 28  1  6  0  0  0
 27 34  1  0  0  0  0
 29  2  1  6  0  0  0
 29 36  1  0  0  0  0
 30 38  1  6  0  0  0
 31 32  1  1  0  0  0
 31 40  1  0  0  0  0
 33 42  2  0  0  0  0
 34 35  1  0  0  0  0
 34 43  1  6  0  0  0
 36 37  1  6  0  0  0
 36 45  1  0  0  0  0
 38 39  1  0  0  0  0
 40 41  1  0  0  0  0
 40 48  1  6  0  0  0
 43 44  1  0  0  0  0
 45 46  1  1  0  0  0
 47 50  1  0  0  0  0
 48 49  1  0  0  0  0
 50 51  1  0  0  0  0
 51 52  1  0  0  0  0
 52  8  1  0  0  0  0
M  END
>  <CHROM.1>
-168.82927491,177.47130815,-77.83672204,-65.69907715,178.81377819,60.52752199
-171.68417912,60.89922393,64.47682927,-102.66967447,175.37605213,-56.36174472
-175.07570220,70.44198561,78.42167049,41.94496258,4.23926198,-4.66615157
1.80771769,-0.46393711,-2.22933132

>  <Name>
2be0_lig

>  <RI>
2.75444e+07

>  <Rbt.Current_Directory>
/home/itssahil/PROJECTS/Mol_Feturizer/New_Systems/rnas/2be0

>  <Rbt.Executable>
rbdock ($Id: //depot/dev/client3/rdock/2013.1/src/exe/rbdock.cxx#4 $)

>  <Rbt.Library>
libRbt.so (2013.1, Build901 2013/11/27)

>  <Rbt.Parameter_File>
/export/apps/rDock/src/rDock_2013.1_src/data/scripts/dock_solv.prm

>  <Rbt.Receptor>
prm/pocket_docking_5.prm

>  <SCORE>
-18.5103

>  <SCORE.INTER>
-0.748934

>  <SCORE.INTER.CONST>
1

>  <SCORE.INTER.POLAR>
0

>  <SCORE.INTER.ROT>
15

>  <SCORE.INTER.SOLV>
11.9775

>  <SCORE.INTER.VDW>
-18.0918

>  <SCORE.INTER.norm>
-0.0144026

>  <SCORE.INTRA>
-17.7741

>  <SCORE.INTRA.DIHEDRAL>
-37.9757

>  <SCORE.INTRA.DIHEDRAL.0>
47.8724

>  <SCORE.INTRA.POLAR>
0

>  <SCORE.INTRA.POLAR.0>
0

>  <SCORE.INTRA.REPUL>
0

>  <SCORE.INTRA.REPUL.0>
0

>  <SCORE.INTRA.SOLV>
0.146333

>  <SCORE.INTRA.SOLV.lig_0>
-115.677

>  <SCORE.INTRA.VDW>
1.14054

>  <SCORE.INTRA.VDW.0>
-7.4833

>  <SCORE.INTRA.norm>
-0.34181

>  <SCORE.RESTR>
0.012746

>  <SCORE.RESTR.CAVITY>
0.012746

>  <SCORE.RESTR.norm>
0.000245115

>  <SCORE.SYSTEM>
0

>  <SCORE.SYSTEM.CONST>
0

>  <SCORE.SYSTEM.DIHEDRAL>
0

>  <SCORE.SYSTEM.SOLV>
0

>  <SCORE.SYSTEM.norm>
0

>  <SCORE.heavy>
52

>  <SCORE.norm>
-0.355968

>  <RMSD>
9.120

$$$$
2be0_lig
 OpenBabel11021811423D
libRbt.so/2013.1/901 2013/11/27
 52 56  0  0  0  0  0  0  0  0999 V2000
   40.8075    2.7414   -2.0503 C   0  0  2  0  0  0  0  0  0  0  0  0
   40.0270    1.7000   -2.5881 O   0  0  0  0  0  0  0  0  0  0  0  0
   38.7191    1.4934   -6.7855 C   0  0  2  0  0  0  0  0  0  0  0  0
   37.8810    1.7069   -7.9985 N   0  0  0  0  0  0  0  0  0  0  0  0
   41.5823    4.5747   -4.9607 C   0  0  2  0  0  0  0  0  0  0  0  0
   42.8883    3.9913   -4.7759 O   0  0  0  0  0  0  0  0  0  0  0  0
   42.4477    7.5537   -1.4963 C   0  0  1  0  0  0  0  0  0  0  0  0
   44.2645    9.0537  -10.3085 C   0  0  0  0  0  0  0  0  0  0  0  0
   41.3834    2.3506   -0.6286 C   0  0  2  0  0  0  0  0  0  0  0  0
   42.1102    1.0825   -0.7199 N   0  0  0  0  0  0  0  0  0  0  0  0
   37.8347    0.7934   -5.6558 C   0  0  0  0  0  0  0  0  0  0  0  0
   41.6474    5.9981   -4.3843 C   0  0  2  0  0  0  0  0  0  0  0  0
   42.1895    6.8097   -5.5178 O   0  0  0  0  0  0  0  0  0  0  0  0
   41.0530    8.0885   -2.1367 C   0  0  2  0  0  0  0  0  0  0  0  0
   41.3684    8.9672   -3.3089 N   0  0  0  0  0  0  0  0  0  0  0  0
   45.2889    9.9601   -9.8798 C   0  0  0  0  0  0  0  0  0  0  0  0
   45.3749   11.2512  -10.4635 N   0  0  0  0  0  0  0  0  0  0  0  0
   40.1909    2.2814    0.4339 C   0  0  1  0  0  0  0  0  0  0  0  0
   40.7266    1.9227    1.6982 O   0  0  0  0  0  0  0  0  0  0  0  0
   38.7152    0.5540   -4.3003 C   0  0  2  0  0  0  0  0  0  0  0  0
   37.9314   -0.0775   -3.2766 N   0  0  0  0  0  0  0  0  0  0  0  0
   42.5310    5.7142   -3.1549 C   0  0  2  0  0  0  0  0  0  0  0  0
   43.1434    6.8320   -2.5288 O   0  0  0  0  0  0  0  0  0  0  0  0
   40.2941    8.8847   -1.0325 C   0  0  1  0  0  0  0  0  0  0  0  0
   40.0244    7.9266    0.0523 O   0  0  0  0  0  0  0  0  0  0  0  0
   44.4816   11.7057  -11.4752 C   0  0  0  0  0  0  0  0  0  0  0  0
   39.4842    3.6675    0.4761 C   0  0  2  0  0  0  0  0  0  0  0  0
   38.3618    3.6640    1.4452 O   0  0  0  0  0  0  0  0  0  0  0  0
   39.2678    1.9395   -3.7669 C   0  0  2  0  0  0  0  0  0  0  0  0
   43.5362    4.6583   -3.6732 C   0  0  1  0  0  0  0  0  0  0  0  0
   41.2109   10.1223   -0.5094 C   0  0  2  0  0  0  0  0  0  0  0  0
   41.4849   11.0839   -1.5887 O   0  0  0  0  0  0  0  0  0  0  0  0
   43.4483   10.8543  -11.9383 C   0  0  0  0  0  0  0  0  0  0  0  0
   38.9181    4.0391   -0.9482 C   0  0  2  0  0  0  0  0  0  0  0  0
   40.0596    4.0222   -1.8490 O   0  0  0  0  0  0  0  0  0  0  0  0
   40.1173    2.5882   -4.9143 C   0  0  2  0  0  0  0  0  0  0  0  0
   40.5670    3.8032   -4.3270 O   0  0  0  0  0  0  0  0  0  0  0  0
   43.8495    3.5892   -2.6276 C   0  0  0  0  0  0  0  0  0  0  0  0
   44.3149    4.0709   -1.3896 O   0  0  0  0  0  0  0  0  0  0  0  0
   42.5896    9.5559    0.0661 C   0  0  1  0  0  0  0  0  0  0  0  0
   43.2702    8.7514   -1.0221 O   0  0  0  0  0  0  0  0  0  0  0  0
   43.3166    9.4963  -11.3614 C   0  0  0  0  0  0  0  0  0  0  0  0
   38.2832    5.3633   -0.8507 C   0  0  0  0  0  0  0  0  0  0  0  0
   37.5979    5.6133   -1.9735 O   0  0  0  0  0  0  0  0  0  0  0  0
   39.2248    2.8344   -6.2028 C   0  0  1  0  0  0  0  0  0  0  0  0
   39.9939    3.3996   -7.2130 O   0  0  0  0  0  0  0  0  0  0  0  0
   43.4557    6.6154   -6.2631 C   0  0  0  0  0  0  0  0  0  0  0  0
   43.4239   10.7777    0.5380 C   0  0  0  0  0  0  0  0  0  0  0  0
   44.6124   10.3439    1.2295 N   0  0  0  0  0  0  0  0  0  0  0  0
   43.6785    7.8706   -7.1129 C   0  0  0  0  0  0  0  0  0  0  0  0
   44.7064    7.5843   -8.1656 N   0  0  0  0  0  0  0  0  0  0  0  0
   44.1901    7.5997   -9.6296 C   0  0  0  0  0  0  0  0  0  0  0  0
  1  2  1  1  0  0  0
  1  9  1  0  0  0  0
  1 35  1  0  0  0  0
  3  4  1  6  0  0  0
  3 11  1  0  0  0  0
  3 45  1  0  0  0  0
  5  6  1  0  0  0  0
  5 12  1  0  0  0  0
  5 37  1  1  0  0  0
  6 30  1  0  0  0  0
  7 14  1  0  0  0  0
  7 41  1  0  0  0  0
  7 23  1  6  0  0  0
  8 16  2  0  0  0  0
  8 42  1  0  0  0  0
  9 10  1  6  0  0  0
  9 18  1  0  0  0  0
 11 20  1  0  0  0  0
 12 13  1  6  0  0  0
 12 22  1  0  0  0  0
 13 47  1  0  0  0  0
 14 15  1  6  0  0  0
 14 24  1  0  0  0  0
 16 17  1  0  0  0  0
 17 26  2  0  0  0  0
 18 19  1  1  0  0  0
 18 27  1  0  0  0  0
 20 21  1  1  0  0  0
 20 29  1  0  0  0  0
 22 23  1  6  0  0  0
 22 30  1  0  0  0  0
 24 25  1  1  0  0  0
 24 31  1  0  0  0  0
 26 33  1  0  0  0  0
 27 28  1  1  0  0  0
 27 34  1  0  0  0  0
 29  2  1  1  0  0  0
 29 36  1  0  0  0  0
 30 38  1  1  0  0  0
 31 32  1  6  0  0  0
 31 40  1  0  0  0  0
 33 42  2  0  0  0  0
 34 35  1  0  0  0  0
 34 43  1  1  0  0  0
 36 37  1  1  0  0  0
 36 45  1  0  0  0  0
 38 39  1  0  0  0  0
 40 41  1  0  0  0  0
 40 48  1  6  0  0  0
 43 44  1  0  0  0  0
 45 46  1  6  0  0  0
 47 50  1  0  0  0  0
 48 49  1  0  0  0  0
 50 51  1  0  0  0  0
 51 52  1  0  0  0  0
 52  8  1  0  0  0  0
M  END
>  <CHROM.1>
170.88686891,-76.10051984,-58.26775343,-56.73794387,-168.32856297,88.10845875
169.44702797,-171.35297315,-169.65895035,168.13227464,172.60306229,-163.95217744
113.49463971,89.04578435,29.71550902,41.47851978,5.69946210,-3.77527853,2.59315115
1.10115985,1.31950824

>  <Name>
2be0_lig

>  <RI>
0

>  <Rbt.Current_Directory>
/home/itssahil/PROJECTS/Mol_Feturizer/New_Systems/rnas/2be0

>  <Rbt.Executable>
rbdock ($Id: //depot/dev/client3/rdock/2013.1/src/exe/rbdock.cxx#4 $)

>  <Rbt.Library>
libRbt.so (2013.1, Build901 2013/11/27)

>  <Rbt.Parameter_File>
/export/apps/rDock/src/rDock_2013.1_src/data/scripts/dock_solv.prm

>  <Rbt.Receptor>
prm/pocket_docking_7.prm

>  <SCORE>
-25.5123

>  <SCORE.INTER>
-8.8146

>  <SCORE.INTER.CONST>
1

>  <SCORE.INTER.POLAR>
-0.408619

>  <SCORE.INTER.ROT>
15

>  <SCORE.INTER.SOLV>
23.1296

>  <SCORE.INTER.VDW>
-25.8242

>  <SCORE.INTER.norm>
-0.169512

>  <SCORE.INTRA>
-16.6977

>  <SCORE.INTRA.DIHEDRAL>
-36.4093

>  <SCORE.INTRA.DIHEDRAL.0>
47.8724

>  <SCORE.INTRA.POLAR>
0

>  <SCORE.INTRA.POLAR.0>
0

>  <SCORE.INTRA.REPUL>
0

>  <SCORE.INTRA.REPUL.0>
0

>  <SCORE.INTRA.SOLV>
-1.11843

>  <SCORE.INTRA.SOLV.lig_0>
-115.677

>  <SCORE.INTRA.VDW>
2.06621

>  <SCORE.INTRA.VDW.0>
-7.4833

>  <SCORE.INTRA.norm>
-0.321109

>  <SCORE.RESTR>
0

>  <SCORE.RESTR.CAVITY>
0

>  <SCORE.RESTR.norm>
0

>  <SCORE.SYSTEM>
0

>  <SCORE.SYSTEM.CONST>
0

>  <SCORE.SYSTEM.DIHEDRAL>
0

>  <SCORE.SYSTEM.SOLV>
0

>  <SCORE.SYSTEM.norm>
0

>  <SCORE.heavy>
52

>  <SCORE.norm>
-0.490621

>  <RMSD>
9.120

$$$$
2be0_lig
 OpenBabel11021811423D
libRbt.so/2013.1/901 2013/11/27
 52 56  0  0  0  0  0  0  0  0999 V2000
   43.6887    3.4843   -0.1577 C   0  0  2  0  0  0  0  0  0  0  0  0
   44.0017    4.7713   -0.6357 O   0  0  0  0  0  0  0  0  0  0  0  0
   40.7530    7.0549    1.2621 C   0  0  2  0  0  0  0  0  0  0  0  0
   39.9383    8.2232    1.6989 N   0  0  0  0  0  0  0  0  0  0  0  0
   43.0638    5.8979   -2.7736 C   0  0  2  0  0  0  0  0  0  0  0  0
   43.5014    7.2465   -2.5090 O   0  0  0  0  0  0  0  0  0  0  0  0
   43.3568    6.9012   -6.8996 C   0  0  1  0  0  0  0  0  0  0  0  0
   49.0940    5.0886   -6.4603 C   0  0  0  0  0  0  0  0  0  0  0  0
   43.9666    2.3807   -1.2580 C   0  0  2  0  0  0  0  0  0  0  0  0
   45.3472    2.4918   -1.7335 N   0  0  0  0  0  0  0  0  0  0  0  0
   42.2474    7.2313    1.7951 C   0  0  0  0  0  0  0  0  0  0  0  0
   42.9618    5.7570   -4.3008 C   0  0  2  0  0  0  0  0  0  0  0  0
   44.3556    5.4042   -4.7131 O   0  0  0  0  0  0  0  0  0  0  0  0
   44.1459    8.0391   -7.7505 C   0  0  2  0  0  0  0  0  0  0  0  0
   43.1394    8.8876   -8.4666 N   0  0  0  0  0  0  0  0  0  0  0  0
   49.1367    3.8491   -7.1789 C   0  0  0  0  0  0  0  0  0  0  0  0
   48.9252    3.8423   -8.5826 N   0  0  0  0  0  0  0  0  0  0  0  0
   42.9100    2.5307   -2.4484 C   0  0  1  0  0  0  0  0  0  0  0  0
   43.1808    1.5386   -3.4264 O   0  0  0  0  0  0  0  0  0  0  0  0
   43.1794    5.9745    1.3243 C   0  0  2  0  0  0  0  0  0  0  0  0
   44.5263    6.1200    1.7996 N   0  0  0  0  0  0  0  0  0  0  0  0
   42.3964    7.1518   -4.6289 C   0  0  2  0  0  0  0  0  0  0  0  0
   42.4859    7.5828   -5.9789 O   0  0  0  0  0  0  0  0  0  0  0  0
   45.0841    7.3148   -8.7625 C   0  0  1  0  0  0  0  0  0  0  0  0
   46.0327    6.5311   -7.9542 O   0  0  0  0  0  0  0  0  0  0  0  0
   48.6653    5.0243   -9.3332 C   0  0  0  0  0  0  0  0  0  0  0  0
   41.4766    2.3876   -1.8593 C   0  0  2  0  0  0  0  0  0  0  0  0
   40.4488    2.5223   -2.9197 O   0  0  0  0  0  0  0  0  0  0  0  0
   43.1827    5.8706   -0.2564 C   0  0  2  0  0  0  0  0  0  0  0  0
   43.1249    8.0778   -3.6260 C   0  0  1  0  0  0  0  0  0  0  0  0
   44.2104    6.3527   -9.7407 C   0  0  2  0  0  0  0  0  0  0  0  0
   43.2596    7.1293  -10.5515 O   0  0  0  0  0  0  0  0  0  0  0  0
   48.6123    6.2790   -8.6774 C   0  0  0  0  0  0  0  0  0  0  0  0
   41.2191    3.4944   -0.7655 C   0  0  2  0  0  0  0  0  0  0  0  0
   42.2555    3.3131    0.2384 O   0  0  0  0  0  0  0  0  0  0  0  0
   41.6956    5.7101   -0.7274 C   0  0  2  0  0  0  0  0  0  0  0  0
   41.8198    5.6148   -2.1412 O   0  0  0  0  0  0  0  0  0  0  0  0
   42.2139    9.1750   -3.0781 C   0  0  0  0  0  0  0  0  0  0  0  0
   41.1362    8.7298   -2.2897 O   0  0  0  0  0  0  0  0  0  0  0  0
   43.4147    5.2824   -8.8607 C   0  0  1  0  0  0  0  0  0  0  0  0
   42.5533    6.0270   -7.8617 O   0  0  0  0  0  0  0  0  0  0  0  0
   48.8256    6.3395   -7.2128 C   0  0  0  0  0  0  0  0  0  0  0  0
   39.8619    3.2955   -0.2322 C   0  0  0  0  0  0  0  0  0  0  0  0
   39.6120    4.2168    0.7067 O   0  0  0  0  0  0  0  0  0  0  0  0
   40.8273    6.9605   -0.2803 C   0  0  1  0  0  0  0  0  0  0  0  0
   39.5110    6.7984   -0.6957 O   0  0  0  0  0  0  0  0  0  0  0  0
   45.5701    5.3215   -3.8679 C   0  0  0  0  0  0  0  0  0  0  0  0
   42.5938    4.4033   -9.8429 C   0  0  0  0  0  0  0  0  0  0  0  0
   41.3407    4.0114   -9.2470 N   0  0  0  0  0  0  0  0  0  0  0  0
   46.7569    5.0683   -4.8032 C   0  0  0  0  0  0  0  0  0  0  0  0
   48.0372    5.2810   -4.0535 N   0  0  0  0  0  0  0  0  0  0  0  0
   49.3383    5.0665   -4.8728 C   0  0  0  0  0  0  0  0  0  0  0  0
  1  2  1  6  0  0  0
  1  9  1  0  0  0  0
  1 35  1  0  0  0  0
  3  4  1  6  0  0  0
  3 11  1  0  0  0  0
  3 45  1  0  0  0  0
  5  6  1  0  0  0  0
  5 12  1  0  0  0  0
  5 37  1  1  0  0  0
  6 30  1  0  0  0  0
  7 14  1  0  0  0  0
  7 41  1  0  0  0  0
  7 23  1  1  0  0  0
  8 16  2  0  0  0  0
  8 42  1  0  0  0  0
  9 10  1  6  0  0  0
  9 18  1  0  0  0  0
 11 20  1  0  0  0  0
 12 13  1  6  0  0  0
 12 22  1  0  0  0  0
 13 47  1  0  0  0  0
 14 15  1  6  0  0  0
 14 24  1  0  0  0  0
 16 17  1  0  0  0  0
 17 26  2  0  0  0  0
 18 19  1  6  0  0  0
 18 27  1  0  0  0  0
 20 21  1  6  0  0  0
 20 29  1  0  0  0  0
 22 23  1  6  0  0  0
 22 30  1  0  0  0  0
 24 25  1  1  0  0  0
 24 31  1  0  0  0  0
 26 33  1  0  0  0  0
 27 28  1  6  0  0  0
 27 34  1  0  0  0  0
 29  2  1  1  0  0  0
 29 36  1  0  0  0  0
 30 38  1  1  0  0  0
 31 32  1  1  0  0  0
 31 40  1  0  0  0  0
 33 42  2  0  0  0  0
 34 35  1  0  0  0  0
 34 43  1  1  0  0  0
 36 37  1  6  0  0  0
 36 45  1  0  0  0  0
 38 39  1  0  0  0  0
 40 41  1  0  0  0  0
 40 48  1  6  0  0  0
 43 44  1  0  0  0  0
 45 46  1  6  0  0  0
 47 50  1  0  0  0  0
 48 49  1  0  0  0  0
 50 51  1  0  0  0  0
 51 52  1  0  0  0  0
 52  8  1  0  0  0  0
M  END
>  <CHROM.1>
142.85344175,-59.69572898,-135.77695055,-4.58199959,-174.09354093,-15.23818709
58.33898307,-51.13272447,179.68524100,-10.50297019,-145.68559452,167.35359937
-179.75854320,17.33243896,-105.90122445,43.64196768,5.55848374,-3.92879235
-2.11802925,0.41871834,-1.27219742

>  <Name>
2be0_lig

>  <RI>
0

>  <Rbt.Current_Directory>
/home/itssahil/PROJECTS/Mol_Feturizer/New_Systems/rnas/2be0

>  <Rbt.Executable>
rbdock ($Id: //depot/dev/client3/rdock/2013.1/src/exe/rbdock.cxx#4 $)

>  <Rbt.Library>
libRbt.so (2013.1, Build901 2013/11/27)

>  <Rbt.Parameter_File>
/export/apps/rDock/src/rDock_2013.1_src/data/scripts/dock_solv.prm

>  <Rbt.Receptor>
prm/pocket_docking_2.prm

>  <SCORE>
39.1899

>  <SCORE.INTER>
7.58559

>  <SCORE.INTER.CONST>
1

>  <SCORE.INTER.POLAR>
0

>  <SCORE.INTER.ROT>
15

>  <SCORE.INTER.SOLV>
28.3695

>  <SCORE.INTER.VDW>
-17.9994

>  <SCORE.INTER.norm>
0.145877

>  <SCORE.INTRA>
20.1423

>  <SCORE.INTRA.DIHEDRAL>
-11.4041

>  <SCORE.INTRA.DIHEDRAL.0>
47.8724

>  <SCORE.INTRA.POLAR>
0

>  <SCORE.INTRA.POLAR.0>
0

>  <SCORE.INTRA.REPUL>
0

>  <SCORE.INTRA.REPUL.0>
0

>  <SCORE.INTRA.SOLV>
2.8956

>  <SCORE.INTRA.SOLV.lig_0>
-115.677

>  <SCORE.INTRA.VDW>
24.3965

>  <SCORE.INTRA.VDW.0>
-7.4833

>  <SCORE.INTRA.norm>
0.387351

>  <SCORE.RESTR>
11.462

>  <SCORE.RESTR.CAVITY>
11.462

>  <SCORE.RESTR.norm>
0.220423

>  <SCORE.SYSTEM>
0

>  <SCORE.SYSTEM.CONST>
0

>  <SCORE.SYSTEM.DIHEDRAL>
0

>  <SCORE.SYSTEM.SOLV>
0

>  <SCORE.SYSTEM.norm>
0

>  <SCORE.heavy>
52

>  <SCORE.norm>
0.753651

>  <RMSD>
9.131

$$$$
2be0_lig
 OpenBabel11021811423D
libRbt.so/2013.1/901 2013/11/27
 52 56  0  0  0  0  0  0  0  0999 V2000
   39.3881   -0.9506  -10.5791 C   0  0  2  0  0  0  0  0  0  0  0  0
   39.1172   -1.0125   -9.1986 O   0  0  0  0  0  0  0  0  0  0  0  0
   35.3025    1.1688   -8.9509 C   0  0  2  0  0  0  0  0  0  0  0  0
   33.9470    1.5605   -8.4727 N   0  0  0  0  0  0  0  0  0  0  0  0
   40.0551    1.6791   -7.6734 C   0  0  2  0  0  0  0  0  0  0  0  0
   41.0523    0.7080   -8.0515 O   0  0  0  0  0  0  0  0  0  0  0  0
   41.8281    2.2035   -3.5081 C   0  0  1  0  0  0  0  0  0  0  0  0
   43.1413    6.7653   -8.0172 C   0  0  0  0  0  0  0  0  0  0  0  0
   40.8356   -1.5024  -10.9045 C   0  0  2  0  0  0  0  0  0  0  0  0
   40.9871   -2.8509  -10.3539 N   0  0  0  0  0  0  0  0  0  0  0  0
   35.2935   -0.3805   -9.3356 C   0  0  0  0  0  0  0  0  0  0  0  0
   40.6141    2.4384   -6.4596 C   0  0  2  0  0  0  0  0  0  0  0  0
   41.4525    3.5133   -7.0755 O   0  0  0  0  0  0  0  0  0  0  0  0
   43.1581    2.8038   -2.7926 C   0  0  2  0  0  0  0  0  0  0  0  0
   44.1177    1.6802   -2.5424 N   0  0  0  0  0  0  0  0  0  0  0  0
   42.6874    7.5637   -9.1179 C   0  0  0  0  0  0  0  0  0  0  0  0
   43.0609    7.2134  -10.4418 N   0  0  0  0  0  0  0  0  0  0  0  0
   41.9363   -0.4949  -10.3309 C   0  0  1  0  0  0  0  0  0  0  0  0
   43.2250   -1.0109  -10.6261 O   0  0  0  0  0  0  0  0  0  0  0  0
   36.7692   -0.8545   -9.8528 C   0  0  2  0  0  0  0  0  0  0  0  0
   36.7739   -2.2465  -10.2043 N   0  0  0  0  0  0  0  0  0  0  0  0
   41.2917    1.2595   -5.7358 C   0  0  2  0  0  0  0  0  0  0  0  0
   42.2472    1.5801   -4.7355 O   0  0  0  0  0  0  0  0  0  0  0  0
   42.7210    3.4709   -1.4536 C   0  0  1  0  0  0  0  0  0  0  0  0
   41.8010    4.5606   -1.8191 O   0  0  0  0  0  0  0  0  0  0  0  0
   43.8811    6.0891  -10.7443 C   0  0  0  0  0  0  0  0  0  0  0  0
   41.7108    0.9039  -10.9750 C   0  0  2  0  0  0  0  0  0  0  0  0
   42.7035    1.8863  -10.4766 O   0  0  0  0  0  0  0  0  0  0  0  0
   37.8458   -0.5892   -8.7213 C   0  0  2  0  0  0  0  0  0  0  0  0
   41.8607    0.4075   -6.8953 C   0  0  1  0  0  0  0  0  0  0  0  0
   41.9866    2.3764   -0.5004 C   0  0  2  0  0  0  0  0  0  0  0  0
   42.9002    1.2839   -0.1313 O   0  0  0  0  0  0  0  0  0  0  0  0
   44.3587    5.2625   -9.6977 C   0  0  0  0  0  0  0  0  0  0  0  0
   40.2644    1.4362  -10.6403 C   0  0  2  0  0  0  0  0  0  0  0  0
   39.3419    0.4330  -11.1479 O   0  0  0  0  0  0  0  0  0  0  0  0
   37.8064    0.9394   -8.3740 C   0  0  2  0  0  0  0  0  0  0  0  0
   38.8079    1.0621   -7.3713 O   0  0  0  0  0  0  0  0  0  0  0  0
   41.7279   -1.0923   -6.6362 C   0  0  0  0  0  0  0  0  0  0  0  0
   40.4215   -1.5493   -6.3801 O   0  0  0  0  0  0  0  0  0  0  0  0
   40.7152    1.7778   -1.2608 C   0  0  1  0  0  0  0  0  0  0  0  0
   41.1776    1.1829   -2.5749 O   0  0  0  0  0  0  0  0  0  0  0  0
   43.9977    5.5860   -8.2979 C   0  0  0  0  0  0  0  0  0  0  0  0
   40.1031    2.7463  -11.2912 C   0  0  0  0  0  0  0  0  0  0  0  0
   40.6315    3.6991  -10.5131 O   0  0  0  0  0  0  0  0  0  0  0  0
   36.3696    1.3582   -7.8470 C   0  0  1  0  0  0  0  0  0  0  0  0
   36.3481    2.7165   -7.5535 O   0  0  0  0  0  0  0  0  0  0  0  0
   41.0040    4.7519   -7.7544 C   0  0  0  0  0  0  0  0  0  0  0  0
   40.0641    0.7356   -0.3114 C   0  0  0  0  0  0  0  0  0  0  0  0
   38.9803    0.0533   -0.9738 N   0  0  0  0  0  0  0  0  0  0  0  0
   40.5689    5.7350   -6.6627 C   0  0  0  0  0  0  0  0  0  0  0  0
   41.7640    6.1465   -5.8570 N   0  0  0  0  0  0  0  0  0  0  0  0
   42.7021    7.1844   -6.5300 C   0  0  0  0  0  0  0  0  0  0  0  0
  1  2  1  1  0  0  0
  1  9  1  0  0  0  0
  1 35  1  0  0  0  0
  3  4  1  1  0  0  0
  3 11  1  0  0  0  0
  3 45  1  0  0  0  0
  5  6  1  0  0  0  0
  5 12  1  0  0  0  0
  5 37  1  1  0  0  0
  6 30  1  0  0  0  0
  7 14  1  0  0  0  0
  7 41  1  0  0  0  0
  7 23  1  6  0  0  0
  8 16  2  0  0  0  0
  8 42  1  0  0  0  0
  9 10  1  1  0  0  0
  9 18  1  0  0  0  0
 11 20  1  0  0  0  0
 12 13  1  6  0  0  0
 12 22  1  0  0  0  0
 13 47  1  0  0  0  0
 14 15  1  1  0  0  0
 14 24  1  0  0  0  0
 16 17  1  0  0  0  0
 17 26  2  0  0  0  0
 18 19  1  6  0  0  0
 18 27  1  0  0  0  0
 20 21  1  1  0  0  0
 20 29  1  0  0  0  0
 22 23  1  1  0  0  0
 22 30  1  0  0  0  0
 24 25  1  6  0  0  0
 24 31  1  0  0  0  0
 26 33  1  0  0  0  0
 27 28  1  1  0  0  0
 27 34  1  0  0  0  0
 29  2  1  6  0  0  0
 29 36  1  0  0  0  0
 30 38  1  1  0  0  0
 31 32  1  6  0  0  0
 31 40  1  0  0  0  0
 33 42  2  0  0  0  0
 34 35  1  0  0  0  0
 34 43  1  6  0  0  0
 36 37  1  1  0  0  0
 36 45  1  0  0  0  0
 38 39  1  0  0  0  0
 40 41  1  0  0  0  0
 40 48  1  1  0  0  0
 43 44  1  0  0  0  0
 45 46  1  6  0  0  0
 47 50  1  0  0  0  0
 48 49  1  0  0  0  0
 50 51  1  0  0  0  0
 51 52  1  0  0  0  0
 52  8  1  0  0  0  0
M  END
>  <CHROM.1>
-178.41057655,-94.11104534,-164.35134571,74.52115784,76.52030123,68.10372010
29.94241472,-59.96097226,-83.55256917,106.64739910,-174.51524169,66.69064368
76.71516669,-51.10681090,113.81566264,40.62739228,1.91504484,-7.18053719
2.19706310,-0.88519565,-1.40731187

>  <Name>
2be0_lig

>  <RI>
0

>  <Rbt.Current_Directory>
/home/itssahil/PROJECTS/Mol_Feturizer/New_Systems/rnas/2be0

>  <Rbt.Executable>
rbdock ($Id: //depot/dev/client3/rdock/2013.1/src/exe/rbdock.cxx#4 $)

>  <Rbt.Library>
libRbt.so (2013.1, Build901 2013/11/27)

>  <Rbt.Parameter_File>
/export/apps/rDock/src/rDock_2013.1_src/data/scripts/dock_solv.prm

>  <Rbt.Receptor>
prm/pocket_docking_6.prm

>  <SCORE>
-14.3989

>  <SCORE.INTER>
-1.82

>  <SCORE.INTER.CONST>
1

>  <SCORE.INTER.POLAR>
0

>  <SCORE.INTER.ROT>
15

>  <SCORE.INTER.SOLV>
11.8007

>  <SCORE.INTER.VDW>
-18.7469

>  <SCORE.INTER.norm>
-0.0349999

>  <SCORE.INTRA>
-12.579

>  <SCORE.INTRA.DIHEDRAL>
-26.4

>  <SCORE.INTRA.DIHEDRAL.0>
47.8724

>  <SCORE.INTRA.POLAR>
0

>  <SCORE.INTRA.POLAR.0>
0

>  <SCORE.INTRA.REPUL>
0.00657385

>  <SCORE.INTRA.REPUL.0>
0

>  <SCORE.INTRA.SOLV>
0.637863

>  <SCORE.INTRA.SOLV.lig_0>
-115.677

>  <SCORE.INTRA.VDW>
0.269229

>  <SCORE.INTRA.VDW.0>
-7.4833

>  <SCORE.INTRA.norm>
-0.241903

>  <SCORE.RESTR>
0

>  <SCORE.RESTR.CAVITY>
0

>  <SCORE.RESTR.norm>
0

>  <SCORE.SYSTEM>
0

>  <SCORE.SYSTEM.CONST>
0

>  <SCORE.SYSTEM.DIHEDRAL>
0

>  <SCORE.SYSTEM.SOLV>
0

>  <SCORE.SYSTEM.norm>
0

>  <SCORE.heavy>
52

>  <SCORE.norm>
-0.276903

>  <RMSD>
9.138

$$$$
2be0_lig
 OpenBabel11021811423D
libRbt.so/2013.1/901 2013/11/27
 52 56  0  0  0  0  0  0  0  0999 V2000
   46.9944    5.8199   -7.7753 C   0  0  2  0  0  0  0  0  0  0  0  0
   46.3426    4.5944   -8.0119 O   0  0  0  0  0  0  0  0  0  0  0  0
   42.5068    4.0320  -10.0955 C   0  0  2  0  0  0  0  0  0  0  0  0
   41.0350    3.9776  -10.3199 N   0  0  0  0  0  0  0  0  0  0  0  0
   44.1902    7.5973   -8.2248 C   0  0  2  0  0  0  0  0  0  0  0  0
   43.2723    8.4129   -8.9816 O   0  0  0  0  0  0  0  0  0  0  0  0
   46.9175   11.4907   -8.3790 C   0  0  1  0  0  0  0  0  0  0  0  0
   42.1466    8.0886   -2.8084 C   0  0  0  0  0  0  0  0  0  0  0  0
   48.5404    5.7190   -8.1002 C   0  0  2  0  0  0  0  0  0  0  0  0
   48.7285    5.2280   -9.4670 N   0  0  0  0  0  0  0  0  0  0  0  0
   42.8865    3.0660   -8.8827 C   0  0  0  0  0  0  0  0  0  0  0  0
   45.0518    8.5582   -7.3900 C   0  0  2  0  0  0  0  0  0  0  0  0
   44.2254    8.7948   -6.1659 O   0  0  0  0  0  0  0  0  0  0  0  0
   46.6391   13.0126   -8.8767 C   0  0  2  0  0  0  0  0  0  0  0  0
   45.6377   12.9780   -9.9910 N   0  0  0  0  0  0  0  0  0  0  0  0
   42.7227    9.3935   -2.9510 C   0  0  0  0  0  0  0  0  0  0  0  0
   43.7182    9.8264   -2.0364 N   0  0  0  0  0  0  0  0  0  0  0  0
   49.2556    4.7787   -7.0230 C   0  0  1  0  0  0  0  0  0  0  0  0
   50.6373    4.6955   -7.3361 O   0  0  0  0  0  0  0  0  0  0  0  0
   44.4943    3.1076   -8.5942 C   0  0  2  0  0  0  0  0  0  0  0  0
   44.8494    2.2407   -7.5063 N   0  0  0  0  0  0  0  0  0  0  0  0
   45.2222    9.6837   -8.4278 C   0  0  2  0  0  0  0  0  0  0  0  0
   45.6585   10.9458   -7.9446 O   0  0  0  0  0  0  0  0  0  0  0  0
   47.9930   13.6117   -9.3635 C   0  0  1  0  0  0  0  0  0  0  0  0
   48.8862   13.6118   -8.1932 O   0  0  0  0  0  0  0  0  0  0  0  0
   44.1858    9.0195   -0.9601 C   0  0  0  0  0  0  0  0  0  0  0  0
   49.0176    5.3782   -5.6066 C   0  0  2  0  0  0  0  0  0  0  0  0
   49.6568    4.5438   -4.5606 O   0  0  0  0  0  0  0  0  0  0  0  0
   44.9419    4.5899   -8.2595 C   0  0  2  0  0  0  0  0  0  0  0  0
   43.8484    9.7259   -9.1384 C   0  0  1  0  0  0  0  0  0  0  0  0
   48.6022   12.7039  -10.5679 C   0  0  2  0  0  0  0  0  0  0  0  0
   47.7144   12.6989  -11.7410 O   0  0  0  0  0  0  0  0  0  0  0  0
   43.6541    7.7202   -0.7698 C   0  0  0  0  0  0  0  0  0  0  0  0
   47.4729    5.4711   -5.3019 C   0  0  2  0  0  0  0  0  0  0  0  0
   46.9058    6.2939   -6.3584 O   0  0  0  0  0  0  0  0  0  0  0  0
   44.5376    5.4963   -9.4736 C   0  0  2  0  0  0  0  0  0  0  0  0
   44.9930    6.7831   -9.0734 O   0  0  0  0  0  0  0  0  0  0  0  0
   43.9763    9.9802  -10.6394 C   0  0  0  0  0  0  0  0  0  0  0  0
   42.7639   10.0119  -11.3538 O   0  0  0  0  0  0  0  0  0  0  0  0
   48.8142   11.2073  -10.0501 C   0  0  1  0  0  0  0  0  0  0  0  0
   47.4868   10.6815   -9.5439 O   0  0  0  0  0  0  0  0  0  0  0  0
   42.6119    7.2219   -1.6970 C   0  0  0  0  0  0  0  0  0  0  0  0
   47.3110    6.0626   -3.9640 C   0  0  0  0  0  0  0  0  0  0  0  0
   46.0145    6.3103   -3.7395 O   0  0  0  0  0  0  0  0  0  0  0  0
   42.9685    5.4561   -9.7058 C   0  0  1  0  0  0  0  0  0  0  0  0
   42.6278    6.2554  -10.7904 O   0  0  0  0  0  0  0  0  0  0  0  0
   43.9874    7.8768   -5.0271 C   0  0  0  0  0  0  0  0  0  0  0  0
   49.3842   10.3886  -11.2401 C   0  0  0  0  0  0  0  0  0  0  0  0
   49.5420    9.0032  -10.8735 N   0  0  0  0  0  0  0  0  0  0  0  0
   42.9055    6.8838   -5.4638 C   0  0  0  0  0  0  0  0  0  0  0  0
   41.5559    7.5183   -5.3129 N   0  0  0  0  0  0  0  0  0  0  0  0
   41.0231    7.6246   -3.8586 C   0  0  0  0  0  0  0  0  0  0  0  0
  1  2  1  1  0  0  0
  1  9  1  0  0  0  0
  1 35  1  0  0  0  0
  3  4  1  1  0  0  0
  3 11  1  0  0  0  0
  3 45  1  0  0  0  0
  5  6  1  0  0  0  0
  5 12  1  0  0  0  0
  5 37  1  6  0  0  0
  6 30  1  0  0  0  0
  7 14  1  0  0  0  0
  7 41  1  0  0  0  0
  7 23  1  6  0  0  0
  8 16  2  0  0  0  0
  8 42  1  0  0  0  0
  9 10  1  6  0  0  0
  9 18  1  0  0  0  0
 11 20  1  0  0  0  0
 12 13  1  1  0  0  0
 12 22  1  0  0  0  0
 13 47  1  0  0  0  0
 14 15  1  6  0  0  0
 14 24  1  0  0  0  0
 16 17  1  0  0  0  0
 17 26  2  0  0  0  0
 18 19  1  6  0  0  0
 18 27  1  0  0  0  0
 20 21  1  1  0  0  0
 20 29  1  0  0  0  0
 22 23  1  1  0  0  0
 22 30  1  0  0  0  0
 24 25  1  1  0  0  0
 24 31  1  0  0  0  0
 26 33  1  0  0  0  0
 27 28  1  1  0  0  0
 27 34  1  0  0  0  0
 29  2  1  6  0  0  0
 29 36  1  0  0  0  0
 30 38  1  6  0  0  0
 31 32  1  6  0  0  0
 31 40  1  0  0  0  0
 33 42  2  0  0  0  0
 34 35  1  0  0  0  0
 34 43  1  1  0  0  0
 36 37  1  1  0  0  0
 36 45  1  0  0  0  0
 38 39  1  0  0  0  0
 40 41  1  0  0  0  0
 40 48  1  6  0  0  0
 43 44  1  0  0  0  0
 45 46  1  6  0  0  0
 47 50  1  0  0  0  0
 48 49  1  0  0  0  0
 50 51  1  0  0  0  0
 51 52  1  0  0  0  0
 52  8  1  0  0  0  0
M  END
>  <CHROM.1>
-157.02329346,-88.12932658,129.58923313,74.44537501,-80.09926713,116.91099031
175.92985181,62.85630320,172.36484753,-83.33051486,-177.10485124,-81.13931665
-75.50026198,42.53970645,63.79539817,45.55058526,7.82301816,-7.50457742,-2.55767557
1.05348610,0.19975507

>  <Name>
2be0_lig

>  <RI>
224

>  <Rbt.Current_Directory>
/home/itssahil/PROJECTS/Mol_Feturizer/New_Systems/rnas/2be0

>  <Rbt.Executable>
rbdock ($Id: //depot/dev/client3/rdock/2013.1/src/exe/rbdock.cxx#4 $)

>  <Rbt.Library>
libRbt.so (2013.1, Build901 2013/11/27)

>  <Rbt.Parameter_File>
/export/apps/rDock/src/rDock_2013.1_src/data/scripts/dock_solv.prm

>  <Rbt.Receptor>
prm/blind_docking_100.prm

>  <SCORE>
15.3651

>  <SCORE.INTER>
9.10967

>  <SCORE.INTER.CONST>
1

>  <SCORE.INTER.POLAR>
-1.23682

>  <SCORE.INTER.ROT>
15

>  <SCORE.INTER.SOLV>
39.9905

>  <SCORE.INTER.VDW>
-16.7343

>  <SCORE.INTER.norm>
0.175186

>  <SCORE.INTRA>
-6.19122

>  <SCORE.INTRA.DIHEDRAL>
-19.8582

>  <SCORE.INTRA.DIHEDRAL.0>
47.8724

>  <SCORE.INTRA.POLAR>
0

>  <SCORE.INTRA.POLAR.0>
0

>  <SCORE.INTRA.REPUL>
0

>  <SCORE.INTRA.REPUL.0>
0

>  <SCORE.INTRA.SOLV>
-0.58452

>  <SCORE.INTRA.SOLV.lig_0>
-115.677

>  <SCORE.INTRA.VDW>
4.03016

>  <SCORE.INTRA.VDW.0>
-7.4833

>  <SCORE.INTRA.norm>
-0.119062

>  <SCORE.RESTR>
12.4467

>  <SCORE.RESTR.CAVITY>
12.4467

>  <SCORE.RESTR.norm>
0.239359

>  <SCORE.SYSTEM>
0

>  <SCORE.SYSTEM.CONST>
0

>  <SCORE.SYSTEM.DIHEDRAL>
0

>  <SCORE.SYSTEM.SOLV>
0

>  <SCORE.SYSTEM.norm>
0

>  <SCORE.heavy>
52

>  <SCORE.norm>
0.295483

>  <RMSD>
9.148

$$$$
2be0_lig
 OpenBabel11021811423D
libRbt.so/2013.1/901 2013/11/27
 52 56  0  0  0  0  0  0  0  0999 V2000
   41.8353    8.6088   -1.2398 C   0  0  2  0  0  0  0  0  0  0  0  0
   42.2732    7.4181   -0.6288 O   0  0  0  0  0  0  0  0  0  0  0  0
   40.4538    3.7635    1.0158 C   0  0  2  0  0  0  0  0  0  0  0  0
   39.4631    2.8800    1.6921 N   0  0  0  0  0  0  0  0  0  0  0  0
   41.2627    6.3712   -3.1855 C   0  0  2  0  0  0  0  0  0  0  0  0
   40.5259    6.6268   -4.3988 O   0  0  0  0  0  0  0  0  0  0  0  0
   41.3043    2.3787   -5.8641 C   0  0  1  0  0  0  0  0  0  0  0  0
   44.8854    6.8634   -8.5892 C   0  0  0  0  0  0  0  0  0  0  0  0
   43.0203    9.6483   -1.3845 C   0  0  2  0  0  0  0  0  0  0  0  0
   44.1426    9.0253   -2.0895 N   0  0  0  0  0  0  0  0  0  0  0  0
   40.8579    4.9491    2.0055 C   0  0  0  0  0  0  0  0  0  0  0  0
   42.2743    5.2596   -3.5074 C   0  0  2  0  0  0  0  0  0  0  0  0
   43.4397    6.0025   -4.0794 O   0  0  0  0  0  0  0  0  0  0  0  0
   40.6100    1.5204   -4.6714 C   0  0  2  0  0  0  0  0  0  0  0  0
   41.6853    0.9911   -3.7717 N   0  0  0  0  0  0  0  0  0  0  0  0
   43.9961    6.0290   -9.3427 C   0  0  0  0  0  0  0  0  0  0  0  0
   43.0006    6.6222  -10.1625 N   0  0  0  0  0  0  0  0  0  0  0  0
   43.4449   10.1839    0.0607 C   0  0  1  0  0  0  0  0  0  0  0  0
   44.5119   11.1073   -0.0903 O   0  0  0  0  0  0  0  0  0  0  0  0
   41.9350    5.9513    1.2947 C   0  0  2  0  0  0  0  0  0  0  0  0
   42.3086    7.0215    2.1760 N   0  0  0  0  0  0  0  0  0  0  0  0
   41.3907    4.3963   -4.4276 C   0  0  2  0  0  0  0  0  0  0  0  0
   42.0511    3.4425   -5.2465 O   0  0  0  0  0  0  0  0  0  0  0  0
   39.8079    0.3551   -5.3253 C   0  0  1  0  0  0  0  0  0  0  0  0
   38.7782    0.9870   -6.1666 O   0  0  0  0  0  0  0  0  0  0  0  0
   42.8310    8.0313  -10.2794 C   0  0  0  0  0  0  0  0  0  0  0  0
   42.2023   10.8389    0.7309 C   0  0  2  0  0  0  0  0  0  0  0  0
   42.5344   11.3531    2.0816 O   0  0  0  0  0  0  0  0  0  0  0  0
   41.3156    6.5502   -0.0346 C   0  0  2  0  0  0  0  0  0  0  0  0
   40.5712    5.4421   -5.2205 C   0  0  1  0  0  0  0  0  0  0  0  0
   40.8031   -0.5756   -6.2137 C   0  0  2  0  0  0  0  0  0  0  0  0
   41.8353   -1.2103   -5.3793 O   0  0  0  0  0  0  0  0  0  0  0  0
   43.6811    8.9063   -9.5592 C   0  0  0  0  0  0  0  0  0  0  0  0
   41.0333    9.7887    0.8657 C   0  0  2  0  0  0  0  0  0  0  0  0
   40.7580    9.3215   -0.4837 O   0  0  0  0  0  0  0  0  0  0  0  0
   40.9272    5.3483   -0.9639 C   0  0  2  0  0  0  0  0  0  0  0  0
   40.4010    5.9961   -2.1158 O   0  0  0  0  0  0  0  0  0  0  0  0
   39.1261    5.0007   -5.4463 C   0  0  0  0  0  0  0  0  0  0  0  0
   38.9640    3.8078   -6.1756 O   0  0  0  0  0  0  0  0  0  0  0  0
   41.4997    0.3170   -7.3410 C   0  0  1  0  0  0  0  0  0  0  0  0
   42.2270    1.4617   -6.6662 O   0  0  0  0  0  0  0  0  0  0  0  0
   44.7357    8.3368   -8.6887 C   0  0  0  0  0  0  0  0  0  0  0  0
   39.8837   10.4690    1.4835 C   0  0  0  0  0  0  0  0  0  0  0  0
   39.4369   11.4263    0.6609 O   0  0  0  0  0  0  0  0  0  0  0  0
   39.8585    4.4138   -0.2554 C   0  0  1  0  0  0  0  0  0  0  0  0
   39.5327    3.3488   -1.0868 O   0  0  0  0  0  0  0  0  0  0  0  0
   43.4639    6.9138   -5.2479 C   0  0  0  0  0  0  0  0  0  0  0  0
   42.4421   -0.6181   -8.1466 C   0  0  0  0  0  0  0  0  0  0  0  0
   41.6783   -1.5066   -8.9868 N   0  0  0  0  0  0  0  0  0  0  0  0
   44.9342    7.2068   -5.5638 C   0  0  0  0  0  0  0  0  0  0  0  0
   45.5597    5.9985   -6.1926 N   0  0  0  0  0  0  0  0  0  0  0  0
   46.0031    6.1649   -7.6710 C   0  0  0  0  0  0  0  0  0  0  0  0
  1  2  1  1  0  0  0
  1  9  1  0  0  0  0
  1 35  1  0  0  0  0
  3  4  1  1  0  0  0
  3 11  1  0  0  0  0
  3 45  1  0  0  0  0
  5  6  1  0  0  0  0
  5 12  1  0  0  0  0
  5 37  1  1  0  0  0
  6 30  1  0  0  0  0
  7 14  1  0  0  0  0
  7 41  1  0  0  0  0
  7 23  1  1  0  0  0
  8 16  2  0  0  0  0
  8 42  1  0  0  0  0
  9 10  1  1  0  0  0
  9 18  1  0  0  0  0
 11 20  1  0  0  0  0
 12 13  1  6  0  0  0
 12 22  1  0  0  0  0
 13 47  1  0  0  0  0
 14 15  1  1  0  0  0
 14 24  1  0  0  0  0
 16 17  1  0  0  0  0
 17 26  2  0  0  0  0
 18 19  1  6  0  0  0
 18 27  1  0  0  0  0
 20 21  1  1  0  0  0
 20 29  1  0  0  0  0
 22 23  1  6  0  0  0
 22 30  1  0  0  0  0
 24 25  1  6  0  0  0
 24 31  1  0  0  0  0
 26 33  1  0  0  0  0
 27 28  1  1  0  0  0
 27 34  1  0  0  0  0
 29  2  1  6  0  0  0
 29 36  1  0  0  0  0
 30 38  1  1  0  0  0
 31 32  1  1  0  0  0
 31 40  1  0  0  0  0
 33 42  2  0  0  0  0
 34 35  1  0  0  0  0
 34 43  1  6  0  0  0
 36 37  1  6  0  0  0
 36 45  1  0  0  0  0
 38 39  1  0  0  0  0
 40 41  1  0  0  0  0
 40 48  1  1  0  0  0
 43 44  1  0  0  0  0
 45 46  1  6  0  0  0
 47 50  1  0  0  0  0
 48 49  1  0  0  0  0
 50 51  1  0  0  0  0
 51 52  1  0  0  0  0
 52  8  1  0  0  0  0
M  END
>  <CHROM.1>
160.32524264,162.33461736,-59.69185042,-57.18183882,-169.93961128,163.93046002
-141.78816461,-176.78785556,64.69374415,88.71598691,72.59991163,73.45095358
114.09271531,-46.52892914,-95.19770490,41.84552900,5.59468783,-3.56847540
-1.60337033,-1.10015622,-2.32999363

>  <Name>
2be0_lig

>  <RI>
0

>  <Rbt.Current_Directory>
/home/itssahil/PROJECTS/Mol_Feturizer/New_Systems/rnas/2be0

>  <Rbt.Executable>
rbdock ($Id: //depot/dev/client3/rdock/2013.1/src/exe/rbdock.cxx#4 $)

>  <Rbt.Library>
libRbt.so (2013.1, Build901 2013/11/27)

>  <Rbt.Parameter_File>
/export/apps/rDock/src/rDock_2013.1_src/data/scripts/dock_solv.prm

>  <Rbt.Receptor>
prm/pocket_docking_4.prm

>  <SCORE>
-23.2868

>  <SCORE.INTER>
-10.6478

>  <SCORE.INTER.CONST>
1

>  <SCORE.INTER.POLAR>
-1.10194

>  <SCORE.INTER.ROT>
15

>  <SCORE.INTER.SOLV>
13.1503

>  <SCORE.INTER.VDW>
-21.4088

>  <SCORE.INTER.norm>
-0.204765

>  <SCORE.INTRA>
-12.7776

>  <SCORE.INTRA.DIHEDRAL>
-30.6662

>  <SCORE.INTRA.DIHEDRAL.0>
47.8724

>  <SCORE.INTRA.POLAR>
0

>  <SCORE.INTRA.POLAR.0>
0

>  <SCORE.INTRA.REPUL>
0.000165044

>  <SCORE.INTRA.REPUL.0>
0

>  <SCORE.INTRA.SOLV>
1.46058

>  <SCORE.INTRA.SOLV.lig_0>
-115.677

>  <SCORE.INTRA.VDW>
1.82434

>  <SCORE.INTRA.VDW.0>
-7.4833

>  <SCORE.INTRA.norm>
-0.245724

>  <SCORE.RESTR>
0.138664

>  <SCORE.RESTR.CAVITY>
0.138664

>  <SCORE.RESTR.norm>
0.00266662

>  <SCORE.SYSTEM>
0

>  <SCORE.SYSTEM.CONST>
0

>  <SCORE.SYSTEM.DIHEDRAL>
0

>  <SCORE.SYSTEM.SOLV>
0

>  <SCORE.SYSTEM.norm>
0

>  <SCORE.heavy>
52

>  <SCORE.norm>
-0.447823

>  <RMSD>
9.162

$$$$
2be0_lig
 OpenBabel11021811423D
libRbt.so/2013.1/901 2013/11/27
 52 56  0  0  0  0  0  0  0  0999 V2000
   41.9004    3.7887    0.2504 C   0  0  2  0  0  0  0  0  0  0  0  0
   41.1349    3.8651   -0.9290 O   0  0  0  0  0  0  0  0  0  0  0  0
   42.6142    0.3140   -3.0673 C   0  0  2  0  0  0  0  0  0  0  0  0
   42.6413   -0.8313   -4.0197 N   0  0  0  0  0  0  0  0  0  0  0  0
   43.2878    5.1634   -3.2192 C   0  0  2  0  0  0  0  0  0  0  0  0
   42.6644    6.3964   -2.8053 O   0  0  0  0  0  0  0  0  0  0  0  0
   42.9290    7.2106   -7.5147 C   0  0  1  0  0  0  0  0  0  0  0  0
   48.6844    4.0387   -4.8875 C   0  0  0  0  0  0  0  0  0  0  0  0
   41.0715    4.2836    1.5049 C   0  0  2  0  0  0  0  0  0  0  0  0
   39.8136    3.5389    1.5928 N   0  0  0  0  0  0  0  0  0  0  0  0
   41.3303    0.1823   -2.1279 C   0  0  0  0  0  0  0  0  0  0  0  0
   44.0685    5.4721   -4.5067 C   0  0  2  0  0  0  0  0  0  0  0  0
   45.3802    5.9873   -4.0051 O   0  0  0  0  0  0  0  0  0  0  0  0
   42.8648    5.6510   -7.9671 C   0  0  2  0  0  0  0  0  0  0  0  0
   44.2597    5.1047   -8.0074 N   0  0  0  0  0  0  0  0  0  0  0  0
   49.2574    5.2426   -5.4139 C   0  0  0  0  0  0  0  0  0  0  0  0
   50.6503    5.4781   -5.2740 N   0  0  0  0  0  0  0  0  0  0  0  0
   40.8273    5.8600    1.3998 C   0  0  1  0  0  0  0  0  0  0  0  0
   40.0772    6.2817    2.5283 O   0  0  0  0  0  0  0  0  0  0  0  0
   41.2557    1.4300   -1.0755 C   0  0  2  0  0  0  0  0  0  0  0  0
   40.1057    1.3221   -0.2227 N   0  0  0  0  0  0  0  0  0  0  0  0
   43.0665    6.4404   -5.1633 C   0  0  2  0  0  0  0  0  0  0  0  0
   43.5541    7.2549   -6.2194 O   0  0  0  0  0  0  0  0  0  0  0  0
   42.2017    5.5885   -9.3761 C   0  0  1  0  0  0  0  0  0  0  0  0
   40.8424    6.1303   -9.2144 O   0  0  0  0  0  0  0  0  0  0  0  0
   51.5294    4.5656   -4.6240 C   0  0  0  0  0  0  0  0  0  0  0  0
   42.2095    6.5713    1.3242 C   0  0  2  0  0  0  0  0  0  0  0  0
   42.0472    8.0417    1.2208 O   0  0  0  0  0  0  0  0  0  0  0  0
   41.2010    2.7998   -1.8693 C   0  0  2  0  0  0  0  0  0  0  0  0
   42.5038    7.2401   -3.9642 C   0  0  1  0  0  0  0  0  0  0  0  0
   43.0639    6.4708  -10.4363 C   0  0  2  0  0  0  0  0  0  0  0  0
   44.4240    5.9352  -10.6028 O   0  0  0  0  0  0  0  0  0  0  0  0
   51.0205    3.3583   -4.0850 C   0  0  0  0  0  0  0  0  0  0  0  0
   43.0199    6.0652    0.0693 C   0  0  2  0  0  0  0  0  0  0  0  0
   43.1418    4.6246    0.2266 O   0  0  0  0  0  0  0  0  0  0  0  0
   42.4744    2.8740   -2.7815 C   0  0  2  0  0  0  0  0  0  0  0  0
   42.3278    4.1327   -3.4278 O   0  0  0  0  0  0  0  0  0  0  0  0
   41.0094    7.5257   -4.1039 C   0  0  0  0  0  0  0  0  0  0  0  0
   40.1672    6.4012   -4.0182 O   0  0  0  0  0  0  0  0  0  0  0  0
   43.1423    7.9837   -9.9287 C   0  0  1  0  0  0  0  0  0  0  0  0
   43.7480    7.9938   -8.5402 O   0  0  0  0  0  0  0  0  0  0  0  0
   49.5732    3.0661   -4.2042 C   0  0  0  0  0  0  0  0  0  0  0  0
   44.3205    6.7542    0.0634 C   0  0  0  0  0  0  0  0  0  0  0  0
   44.1251    8.0753   -0.0326 O   0  0  0  0  0  0  0  0  0  0  0  0
   42.4989    1.6662   -3.8101 C   0  0  1  0  0  0  0  0  0  0  0  0
   43.6375    1.7403   -4.6035 O   0  0  0  0  0  0  0  0  0  0  0  0
   46.5593    6.4180   -4.7927 C   0  0  0  0  0  0  0  0  0  0  0  0
   43.9827    8.7719  -10.9698 C   0  0  0  0  0  0  0  0  0  0  0  0
   44.4024   10.0403  -10.4276 N   0  0  0  0  0  0  0  0  0  0  0  0
   46.3304    5.9623   -6.2374 C   0  0  0  0  0  0  0  0  0  0  0  0
   46.5220    4.4785   -6.3288 N   0  0  0  0  0  0  0  0  0  0  0  0
   47.1057    3.7979   -5.0614 C   0  0  0  0  0  0  0  0  0  0  0  0
  1  2  1  6  0  0  0
  1  9  1  0  0  0  0
  1 35  1  0  0  0  0
  3  4  1  6  0  0  0
  3 11  1  0  0  0  0
  3 45  1  0  0  0  0
  5  6  1  0  0  0  0
  5 12  1  0  0  0  0
  5 37  1  6  0  0  0
  6 30  1  0  0  0  0
  7 14  1  0  0  0  0
  7 41  1  0  0  0  0
  7 23  1  1  0  0  0
  8 16  2  0  0  0  0
  8 42  1  0  0  0  0
  9 10  1  6  0  0  0
  9 18  1  0  0  0  0
 11 20  1  0  0  0  0
 12 13  1  1  0  0  0
 12 22  1  0  0  0  0
 13 47  1  0  0  0  0
 14 15  1  6  0  0  0
 14 24  1  0  0  0  0
 16 17  1  0  0  0  0
 17 26  2  0  0  0  0
 18 19  1  1  0  0  0
 18 27  1  0  0  0  0
 20 21  1  6  0  0  0
 20 29  1  0  0  0  0
 22 23  1  6  0  0  0
 22 30  1  0  0  0  0
 24 25  1  1  0  0  0
 24 31  1  0  0  0  0
 26 33  1  0  0  0  0
 27 28  1  6  0  0  0
 27 34  1  0  0  0  0
 29  2  1  1  0  0  0
 29 36  1  0  0  0  0
 30 38  1  6  0  0  0
 31 32  1  1  0  0  0
 31 40  1  0  0  0  0
 33 42  2  0  0  0  0
 34 35  1  0  0  0  0
 34 43  1  1  0  0  0
 36 37  1  6  0  0  0
 36 45  1  0  0  0  0
 38 39  1  0  0  0  0
 40 41  1  0  0  0  0
 40 48  1  6  0  0  0
 43 44  1  0  0  0  0
 45 46  1  6  0  0  0
 47 50  1  0  0  0  0
 48 49  1  0  0  0  0
 50 51  1  0  0  0  0
 51 52  1  0  0  0  0
 52  8  1  0  0  0  0
M  END
>  <CHROM.1>
-138.10468409,-127.12142641,-52.15459108,178.43816222,-12.16059804,122.93116166
39.30539852,-48.23620505,-60.85814231,117.15774779,-164.78048499,-73.75443080
-9.16681104,-76.13060058,29.11256336,43.64688988,5.13280399,-4.01958168,-1.99202370
0.25034128,-1.20049974

>  <Name>
2be0_lig

>  <RI>
0

>  <Rbt.Current_Directory>
/home/itssahil/PROJECTS/Mol_Feturizer/New_Systems/rnas/2be0

>  <Rbt.Executable>
rbdock ($Id: //depot/dev/client3/rdock/2013.1/src/exe/rbdock.cxx#4 $)

>  <Rbt.Library>
libRbt.so (2013.1, Build901 2013/11/27)

>  <Rbt.Parameter_File>
/export/apps/rDock/src/rDock_2013.1_src/data/scripts/dock_solv.prm

>  <Rbt.Receptor>
prm/pocket_docking_2.prm

>  <SCORE>
5.92639

>  <SCORE.INTER>
-9.7521

>  <SCORE.INTER.CONST>
1

>  <SCORE.INTER.POLAR>
0

>  <SCORE.INTER.ROT>
15

>  <SCORE.INTER.SOLV>
15.9232

>  <SCORE.INTER.VDW>
-25.4091

>  <SCORE.INTER.norm>
-0.18754

>  <SCORE.INTRA>
8.00579

>  <SCORE.INTRA.DIHEDRAL>
-7.67628

>  <SCORE.INTRA.DIHEDRAL.0>
47.8724

>  <SCORE.INTRA.POLAR>
0

>  <SCORE.INTRA.POLAR.0>
0

>  <SCORE.INTRA.REPUL>
0.114802

>  <SCORE.INTRA.REPUL.0>
0

>  <SCORE.INTRA.SOLV>
5.21128

>  <SCORE.INTRA.SOLV.lig_0>
-115.677

>  <SCORE.INTRA.VDW>
8.66428

>  <SCORE.INTRA.VDW.0>
-7.4833

>  <SCORE.INTRA.norm>
0.153958

>  <SCORE.RESTR>
7.6727

>  <SCORE.RESTR.CAVITY>
7.6727

>  <SCORE.RESTR.norm>
0.147552

>  <SCORE.SYSTEM>
0

>  <SCORE.SYSTEM.CONST>
0

>  <SCORE.SYSTEM.DIHEDRAL>
0

>  <SCORE.SYSTEM.SOLV>
0

>  <SCORE.SYSTEM.norm>
0

>  <SCORE.heavy>
52

>  <SCORE.norm>
0.113969

>  <RMSD>
9.182

$$$$
2be0_lig
 OpenBabel11021811423D
libRbt.so/2013.1/901 2013/11/27
 52 56  0  0  0  0  0  0  0  0999 V2000
   43.0176   -0.8451   -4.8611 C   0  0  2  0  0  0  0  0  0  0  0  0
   42.6108   -0.1395   -3.7125 O   0  0  0  0  0  0  0  0  0  0  0  0
   38.6702   -1.9334   -2.9222 C   0  0  2  0  0  0  0  0  0  0  0  0
   37.4909   -2.4321   -2.1606 N   0  0  0  0  0  0  0  0  0  0  0  0
   39.2999    2.3993   -3.2116 C   0  0  2  0  0  0  0  0  0  0  0  0
   38.6321    2.6000   -4.4741 O   0  0  0  0  0  0  0  0  0  0  0  0
   41.5070    6.3922   -3.5298 C   0  0  1  0  0  0  0  0  0  0  0  0
   40.3236    7.0016    3.4605 C   0  0  0  0  0  0  0  0  0  0  0  0
   44.2736   -0.1609   -5.5394 C   0  0  2  0  0  0  0  0  0  0  0  0
   45.3466   -0.0080   -4.5546 N   0  0  0  0  0  0  0  0  0  0  0  0
   39.9842   -2.6678   -2.3907 C   0  0  0  0  0  0  0  0  0  0  0  0
   39.7791    3.7812   -2.7393 C   0  0  2  0  0  0  0  0  0  0  0  0
   38.5843    4.3445   -2.0376 O   0  0  0  0  0  0  0  0  0  0  0  0
   42.8017    6.1741   -4.4877 C   0  0  2  0  0  0  0  0  0  0  0  0
   43.0202    4.7031   -4.6725 N   0  0  0  0  0  0  0  0  0  0  0  0
   39.9189    8.3102    3.0377 C   0  0  0  0  0  0  0  0  0  0  0  0
   40.3238    9.4472    3.7848 N   0  0  0  0  0  0  0  0  0  0  0  0
   43.8430    1.2404   -6.1773 C   0  0  1  0  0  0  0  0  0  0  0  0
   44.9831    1.8401   -6.7727 O   0  0  0  0  0  0  0  0  0  0  0  0
   41.3053   -2.1373   -3.1927 C   0  0  2  0  0  0  0  0  0  0  0  0
   42.4944   -2.7922   -2.7253 N   0  0  0  0  0  0  0  0  0  0  0  0
   40.2102    4.3589   -4.1006 C   0  0  2  0  0  0  0  0  0  0  0  0
   40.3852    5.7661   -4.1778 O   0  0  0  0  0  0  0  0  0  0  0  0
   44.0288    6.8360   -3.7913 C   0  0  1  0  0  0  0  0  0  0  0  0
   43.7125    8.2693   -3.6777 O   0  0  0  0  0  0  0  0  0  0  0  0
   41.1260    9.3585    4.9581 C   0  0  0  0  0  0  0  0  0  0  0  0
   42.7132    0.9850   -7.2168 C   0  0  2  0  0  0  0  0  0  0  0  0
   42.2676    2.2537   -7.8421 O   0  0  0  0  0  0  0  0  0  0  0  0
   41.4539   -0.5711   -3.0064 C   0  0  2  0  0  0  0  0  0  0  0  0
   39.1453    3.8056   -5.0772 C   0  0  1  0  0  0  0  0  0  0  0  0
   44.2647    6.1681   -2.3270 C   0  0  2  0  0  0  0  0  0  0  0  0
   44.5809    4.7352   -2.4328 O   0  0  0  0  0  0  0  0  0  0  0  0
   41.5572    8.0919    5.4236 C   0  0  0  0  0  0  0  0  0  0  0  0
   41.4719    0.3030   -6.5228 C   0  0  2  0  0  0  0  0  0  0  0  0
   41.9718   -0.9267   -5.9287 O   0  0  0  0  0  0  0  0  0  0  0  0
   40.1372    0.0991   -3.5319 C   0  0  2  0  0  0  0  0  0  0  0  0
   40.3852    1.4851   -3.3300 O   0  0  0  0  0  0  0  0  0  0  0  0
   39.7420    3.4097   -6.4268 C   0  0  0  0  0  0  0  0  0  0  0  0
   38.9233    2.6007   -7.2371 O   0  0  0  0  0  0  0  0  0  0  0  0
   42.9523    6.3627   -1.4368 C   0  0  1  0  0  0  0  0  0  0  0  0
   41.7784    5.7479   -2.1707 O   0  0  0  0  0  0  0  0  0  0  0  0
   41.1606    6.8740    4.6795 C   0  0  0  0  0  0  0  0  0  0  0  0
   40.4497    0.0678   -7.5552 C   0  0  0  0  0  0  0  0  0  0  0  0
   39.3734   -0.4995   -6.9963 O   0  0  0  0  0  0  0  0  0  0  0  0
   38.8799   -0.4152   -2.7120 C   0  0  1  0  0  0  0  0  0  0  0  0
   37.7209    0.1797   -3.1960 O   0  0  0  0  0  0  0  0  0  0  0  0
   38.5331    5.4593   -1.0624 C   0  0  0  0  0  0  0  0  0  0  0  0
   43.2309    5.6986   -0.0609 C   0  0  0  0  0  0  0  0  0  0  0  0
   43.2922    4.2642   -0.1931 N   0  0  0  0  0  0  0  0  0  0  0  0
   39.3421    5.0258    0.1644 C   0  0  0  0  0  0  0  0  0  0  0  0
   39.3193    6.1196    1.1889 N   0  0  0  0  0  0  0  0  0  0  0  0
   39.8520    5.7332    2.5951 C   0  0  0  0  0  0  0  0  0  0  0  0
  1  2  1  1  0  0  0
  1  9  1  0  0  0  0
  1 35  1  0  0  0  0
  3  4  1  1  0  0  0
  3 11  1  0  0  0  0
  3 45  1  0  0  0  0
  5  6  1  0  0  0  0
  5 12  1  0  0  0  0
  5 37  1  6  0  0  0
  6 30  1  0  0  0  0
  7 14  1  0  0  0  0
  7 41  1  0  0  0  0
  7 23  1  6  0  0  0
  8 16  2  0  0  0  0
  8 42  1  0  0  0  0
  9 10  1  1  0  0  0
  9 18  1  0  0  0  0
 11 20  1  0  0  0  0
 12 13  1  6  0  0  0
 12 22  1  0  0  0  0
 13 47  1  0  0  0  0
 14 15  1  1  0  0  0
 14 24  1  0  0  0  0
 16 17  1  0  0  0  0
 17 26  2  0  0  0  0
 18 19  1  6  0  0  0
 18 27  1  0  0  0  0
 20 21  1  1  0  0  0
 20 29  1  0  0  0  0
 22 23  1  1  0  0  0
 22 30  1  0  0  0  0
 24 25  1  1  0  0  0
 24 31  1  0  0  0  0
 26 33  1  0  0  0  0
 27 28  1  1  0  0  0
 27 34  1  0  0  0  0
 29  2  1  6  0  0  0
 29 36  1  0  0  0  0
 30 38  1  6  0  0  0
 31 32  1  6  0  0  0
 31 40  1  0  0  0  0
 33 42  2  0  0  0  0
 34 35  1  0  0  0  0
 34 43  1  6  0  0  0
 36 37  1  1  0  0  0
 36 45  1  0  0  0  0
 38 39  1  0  0  0  0
 40 41  1  0  0  0  0
 40 48  1  1  0  0  0
 43 44  1  0  0  0  0
 45 46  1  6  0  0  0
 47 50  1  0  0  0  0
 48 49  1  0  0  0  0
 50 51  1  0  0  0  0
 51 52  1  0  0  0  0
 52  8  1  0  0  0  0
M  END
>  <CHROM.1>
176.95601813,-71.41667128,79.37522238,161.30354185,-63.37356793,71.45551278
29.63821526,48.49553062,-179.37202819,-156.89088718,-69.67876875,-179.80729846
168.38705134,158.26136944,15.24795627,41.18740549,3.09966522,-2.84063121
-1.53804028,0.88856038,0.74555338

>  <Name>
2be0_lig

>  <RI>
2.75444e+07

>  <Rbt.Current_Directory>
/home/itssahil/PROJECTS/Mol_Feturizer/New_Systems/rnas/2be0

>  <Rbt.Executable>
rbdock ($Id: //depot/dev/client3/rdock/2013.1/src/exe/rbdock.cxx#4 $)

>  <Rbt.Library>
libRbt.so (2013.1, Build901 2013/11/27)

>  <Rbt.Parameter_File>
/export/apps/rDock/src/rDock_2013.1_src/data/scripts/dock_solv.prm

>  <Rbt.Receptor>
prm/pocket_docking_5.prm

>  <SCORE>
-13.7518

>  <SCORE.INTER>
0.17253

>  <SCORE.INTER.CONST>
1

>  <SCORE.INTER.POLAR>
-0.313507

>  <SCORE.INTER.ROT>
15

>  <SCORE.INTER.SOLV>
10.5888

>  <SCORE.INTER.VDW>
-15.9695

>  <SCORE.INTER.norm>
0.00331789

>  <SCORE.INTRA>
-13.9243

>  <SCORE.INTRA.DIHEDRAL>
-34.9789

>  <SCORE.INTRA.DIHEDRAL.0>
47.8724

>  <SCORE.INTRA.POLAR>
0

>  <SCORE.INTRA.POLAR.0>
0

>  <SCORE.INTRA.REPUL>
0.0156503

>  <SCORE.INTRA.REPUL.0>
0

>  <SCORE.INTRA.SOLV>
3.4477

>  <SCORE.INTRA.SOLV.lig_0>
-115.677

>  <SCORE.INTRA.VDW>
1.76307

>  <SCORE.INTRA.VDW.0>
-7.4833

>  <SCORE.INTRA.norm>
-0.267775

>  <SCORE.RESTR>
0

>  <SCORE.RESTR.CAVITY>
0

>  <SCORE.RESTR.norm>
0

>  <SCORE.SYSTEM>
0

>  <SCORE.SYSTEM.CONST>
0

>  <SCORE.SYSTEM.DIHEDRAL>
0

>  <SCORE.SYSTEM.SOLV>
0

>  <SCORE.SYSTEM.norm>
0

>  <SCORE.heavy>
52

>  <SCORE.norm>
-0.264457

>  <RMSD>
9.204

$$$$
2be0_lig
 OpenBabel11021811423D
libRbt.so/2013.1/901 2013/11/27
 52 56  0  0  0  0  0  0  0  0999 V2000
   40.2006    2.4334   -3.5105 C   0  0  2  0  0  0  0  0  0  0  0  0
   40.8136    2.1912   -2.2662 O   0  0  0  0  0  0  0  0  0  0  0  0
   43.0164    4.9411    0.3714 C   0  0  2  0  0  0  0  0  0  0  0  0
   44.1070    5.8274    0.8658 N   0  0  0  0  0  0  0  0  0  0  0  0
   40.4411    6.3138   -2.9398 C   0  0  2  0  0  0  0  0  0  0  0  0
   39.3087    6.4933   -3.8150 O   0  0  0  0  0  0  0  0  0  0  0  0
   43.4373    7.3675   -6.1750 C   0  0  1  0  0  0  0  0  0  0  0  0
   40.1592    9.2029    1.4745 C   0  0  0  0  0  0  0  0  0  0  0  0
   39.0593    1.3761   -3.8028 C   0  0  2  0  0  0  0  0  0  0  0  0
   38.1055    1.3567   -2.6918 N   0  0  0  0  0  0  0  0  0  0  0  0
   43.6134    3.4891    0.0821 C   0  0  0  0  0  0  0  0  0  0  0  0
   41.6323    7.0205   -3.6062 C   0  0  2  0  0  0  0  0  0  0  0  0
   41.4904    8.4410   -3.1597 O   0  0  0  0  0  0  0  0  0  0  0  0
   43.8279    7.8493   -7.6772 C   0  0  2  0  0  0  0  0  0  0  0  0
   43.1838    6.9213   -8.6620 N   0  0  0  0  0  0  0  0  0  0  0  0
   39.5586    7.9049    1.3782 C   0  0  0  0  0  0  0  0  0  0  0  0
   38.2511    7.6953    1.8898 N   0  0  0  0  0  0  0  0  0  0  0  0
   39.7109   -0.0615   -4.0570 C   0  0  1  0  0  0  0  0  0  0  0  0
   38.6721   -0.9950   -4.3092 O   0  0  0  0  0  0  0  0  0  0  0  0
   42.4492    2.4880   -0.4767 C   0  0  2  0  0  0  0  0  0  0  0  0
   42.9733    1.1773   -0.7388 N   0  0  0  0  0  0  0  0  0  0  0  0
   41.3392    6.6457   -5.0712 C   0  0  2  0  0  0  0  0  0  0  0  0
   42.0021    7.4002   -6.0751 O   0  0  0  0  0  0  0  0  0  0  0  0
   45.3806    7.8058   -7.8048 C   0  0  1  0  0  0  0  0  0  0  0  0
   45.9009    8.7589   -6.8107 O   0  0  0  0  0  0  0  0  0  0  0  0
   37.4865    8.7250    2.5088 C   0  0  0  0  0  0  0  0  0  0  0  0
   40.6966    0.0466   -5.2566 C   0  0  2  0  0  0  0  0  0  0  0  0
   41.3378   -1.2604   -5.5388 O   0  0  0  0  0  0  0  0  0  0  0  0
   41.8203    3.0831   -1.8033 C   0  0  2  0  0  0  0  0  0  0  0  0
   39.7956    6.7116   -5.1551 C   0  0  1  0  0  0  0  0  0  0  0  0
   45.9208    6.2994   -7.5138 C   0  0  2  0  0  0  0  0  0  0  0  0
   45.4044    5.3411   -8.5035 O   0  0  0  0  0  0  0  0  0  0  0  0
   38.0274   10.0286    2.6314 C   0  0  0  0  0  0  0  0  0  0  0  0
   41.8249    1.1041   -4.9469 C   0  0  2  0  0  0  0  0  0  0  0  0
   41.1361    2.3560   -4.6763 O   0  0  0  0  0  0  0  0  0  0  0  0
   41.2600    4.5089   -1.4681 C   0  0  2  0  0  0  0  0  0  0  0  0
   40.7159    4.9355   -2.7112 O   0  0  0  0  0  0  0  0  0  0  0  0
   39.2114    5.6020   -6.0278 C   0  0  0  0  0  0  0  0  0  0  0  0
   39.7491    5.5052   -7.3250 O   0  0  0  0  0  0  0  0  0  0  0  0
   45.4736    5.8486   -6.0476 C   0  0  1  0  0  0  0  0  0  0  0  0
   43.9653    5.9507   -5.9528 O   0  0  0  0  0  0  0  0  0  0  0  0
   39.3889   10.2987    2.1140 C   0  0  0  0  0  0  0  0  0  0  0  0
   42.7098    1.1777   -6.1206 C   0  0  0  0  0  0  0  0  0  0  0  0
   42.0221    1.6473   -7.1691 O   0  0  0  0  0  0  0  0  0  0  0  0
   42.4211    5.4624   -0.9580 C   0  0  1  0  0  0  0  0  0  0  0  0
   41.9072    6.7177   -0.6556 O   0  0  0  0  0  0  0  0  0  0  0  0
   42.5606    9.4298   -2.8891 C   0  0  0  0  0  0  0  0  0  0  0  0
   46.0053    4.4057   -5.8313 C   0  0  0  0  0  0  0  0  0  0  0  0
   45.7608    3.9724   -4.4780 N   0  0  0  0  0  0  0  0  0  0  0  0
   42.8623    9.3718   -1.3881 C   0  0  0  0  0  0  0  0  0  0  0  0
   41.6477    9.7949   -0.6184 N   0  0  0  0  0  0  0  0  0  0  0  0
   41.6392    9.4115    0.8859 C   0  0  0  0  0  0  0  0  0  0  0  0
  1  2  1  1  0  0  0
  1  9  1  0  0  0  0
  1 35  1  0  0  0  0
  3  4  1  6  0  0  0
  3 11  1  0  0  0  0
  3 45  1  0  0  0  0
  5  6  1  0  0  0  0
  5 12  1  0  0  0  0
  5 37  1  6  0  0  0
  6 30  1  0  0  0  0
  7 14  1  0  0  0  0
  7 41  1  0  0  0  0
  7 23  1  6  0  0  0
  8 16  2  0  0  0  0
  8 42  1  0  0  0  0
  9 10  1  1  0  0  0
  9 18  1  0  0  0  0
 11 20  1  0  0  0  0
 12 13  1  6  0  0  0
 12 22  1  0  0  0  0
 13 47  1  0  0  0  0
 14 15  1  6  0  0  0
 14 24  1  0  0  0  0
 16 17  1  0  0  0  0
 17 26  2  0  0  0  0
 18 19  1  6  0  0  0
 18 27  1  0  0  0  0
 20 21  1  6  0  0  0
 20 29  1  0  0  0  0
 22 23  1  6  0  0  0
 22 30  1  0  0  0  0
 24 25  1  1  0  0  0
 24 31  1  0  0  0  0
 26 33  1  0  0  0  0
 27 28  1  1  0  0  0
 27 34  1  0  0  0  0
 29  2  1  1  0  0  0
 29 36  1  0  0  0  0
 30 38  1  6  0  0  0
 31 32  1  6  0  0  0
 31 40  1  0  0  0  0
 33 42  2  0  0  0  0
 34 35  1  0  0  0  0
 34 43  1  6  0  0  0
 36 37  1  6  0  0  0
 36 45  1  0  0  0  0
 38 39  1  0  0  0  0
 40 41  1  0  0  0  0
 40 48  1  6  0  0  0
 43 44  1  0  0  0  0
 45 46  1  1  0  0  0
 47 50  1  0  0  0  0
 48 49  1  0  0  0  0
 50 51  1  0  0  0  0
 51 52  1  0  0  0  0
 52  8  1  0  0  0  0
M  END
>  <CHROM.1>
-176.90881896,-148.14910171,159.61539040,147.33877391,-94.16535244,63.25829420
-173.51940891,-169.59726907,64.35631566,-162.41475273,174.17845107,-63.53135483
163.13124345,-151.43974950,88.07984140,41.76989157,5.27481940,-3.40085172
1.07931035,-0.98667614,-2.64886748

>  <Name>
2be0_lig

>  <RI>
2.75444e+07

>  <Rbt.Current_Directory>
/home/itssahil/PROJECTS/Mol_Feturizer/New_Systems/rnas/2be0

>  <Rbt.Executable>
rbdock ($Id: //depot/dev/client3/rdock/2013.1/src/exe/rbdock.cxx#4 $)

>  <Rbt.Library>
libRbt.so (2013.1, Build901 2013/11/27)

>  <Rbt.Parameter_File>
/export/apps/rDock/src/rDock_2013.1_src/data/scripts/dock_solv.prm

>  <Rbt.Receptor>
prm/pocket_docking_5.prm

>  <SCORE>
-21.8866

>  <SCORE.INTER>
-7.6039

>  <SCORE.INTER.CONST>
1

>  <SCORE.INTER.POLAR>
-0.956017

>  <SCORE.INTER.ROT>
15

>  <SCORE.INTER.SOLV>
17.2709

>  <SCORE.INTER.VDW>
-21.2395

>  <SCORE.INTER.norm>
-0.146229

>  <SCORE.INTRA>
-14.2827

>  <SCORE.INTRA.DIHEDRAL>
-29.7325

>  <SCORE.INTRA.DIHEDRAL.0>
47.8724

>  <SCORE.INTRA.POLAR>
0

>  <SCORE.INTRA.POLAR.0>
0

>  <SCORE.INTRA.REPUL>
0

>  <SCORE.INTRA.REPUL.0>
0

>  <SCORE.INTRA.SOLV>
-2.02235

>  <SCORE.INTRA.SOLV.lig_0>
-115.677

>  <SCORE.INTRA.VDW>
1.59471

>  <SCORE.INTRA.VDW.0>
-7.4833

>  <SCORE.INTRA.norm>
-0.274667

>  <SCORE.RESTR>
0

>  <SCORE.RESTR.CAVITY>
0

>  <SCORE.RESTR.norm>
0

>  <SCORE.SYSTEM>
0

>  <SCORE.SYSTEM.CONST>
0

>  <SCORE.SYSTEM.DIHEDRAL>
0

>  <SCORE.SYSTEM.SOLV>
0

>  <SCORE.SYSTEM.norm>
0

>  <SCORE.heavy>
52

>  <SCORE.norm>
-0.420896

>  <RMSD>
9.205

$$$$
2be0_lig
 OpenBabel11021811423D
libRbt.so/2013.1/901 2013/11/27
 52 56  0  0  0  0  0  0  0  0999 V2000
   42.7201    3.3973   -2.8353 C   0  0  2  0  0  0  0  0  0  0  0  0
   43.7585    4.3176   -3.0756 O   0  0  0  0  0  0  0  0  0  0  0  0
   41.6174    8.0739   -2.2530 C   0  0  2  0  0  0  0  0  0  0  0  0
   41.3675    9.5355   -2.1091 N   0  0  0  0  0  0  0  0  0  0  0  0
   43.5574    6.5677   -5.8931 C   0  0  2  0  0  0  0  0  0  0  0  0
   43.3151    6.4993   -7.3133 O   0  0  0  0  0  0  0  0  0  0  0  0
   46.9951    3.4880   -6.2965 C   0  0  1  0  0  0  0  0  0  0  0  0
   45.0827   10.7926   -9.7411 C   0  0  0  0  0  0  0  0  0  0  0  0
   43.2743    1.9170   -2.7507 C   0  0  2  0  0  0  0  0  0  0  0  0
   44.3428    1.8442   -1.7520 N   0  0  0  0  0  0  0  0  0  0  0  0
   42.8553    7.6622   -1.3331 C   0  0  0  0  0  0  0  0  0  0  0  0
   45.0029    6.0965   -5.6671 C   0  0  2  0  0  0  0  0  0  0  0  0
   45.8122    7.3358   -5.8825 O   0  0  0  0  0  0  0  0  0  0  0  0
   46.8194    3.9138   -4.7379 C   0  0  2  0  0  0  0  0  0  0  0  0
   47.4232    5.2709   -4.5397 N   0  0  0  0  0  0  0  0  0  0  0  0
   46.1282   11.2731  -10.5960 C   0  0  0  0  0  0  0  0  0  0  0  0
   46.0254   11.0958  -12.0006 N   0  0  0  0  0  0  0  0  0  0  0  0
   43.7724    1.4463   -4.1951 C   0  0  1  0  0  0  0  0  0  0  0  0
   44.2716    0.1215   -4.0961 O   0  0  0  0  0  0  0  0  0  0  0  0
   43.1718    6.0653   -1.4735 C   0  0  2  0  0  0  0  0  0  0  0  0
   44.2825    5.6815   -0.6487 N   0  0  0  0  0  0  0  0  0  0  0  0
   45.0468    4.9629   -6.7091 C   0  0  2  0  0  0  0  0  0  0  0  0
   46.3291    4.4865   -7.0903 O   0  0  0  0  0  0  0  0  0  0  0  0
   47.5483    2.8475   -3.8658 C   0  0  1  0  0  0  0  0  0  0  0  0
   46.8670    1.5687   -4.1264 O   0  0  0  0  0  0  0  0  0  0  0  0
   44.9177   10.4514  -12.6217 C   0  0  0  0  0  0  0  0  0  0  0  0
   42.5768    1.5424   -5.1869 C   0  0  2  0  0  0  0  0  0  0  0  0
   42.9802    1.1207   -6.5502 O   0  0  0  0  0  0  0  0  0  0  0  0
   43.4858    5.7107   -2.9851 C   0  0  2  0  0  0  0  0  0  0  0  0
   44.2127    5.5255   -7.8847 C   0  0  1  0  0  0  0  0  0  0  0  0
   49.1198    2.7711   -4.2784 C   0  0  2  0  0  0  0  0  0  0  0  0
   49.8072    4.0461   -4.0210 O   0  0  0  0  0  0  0  0  0  0  0  0
   43.8535    9.9569  -11.8281 C   0  0  0  0  0  0  0  0  0  0  0  0
   42.0388    3.0233   -5.2569 C   0  0  2  0  0  0  0  0  0  0  0  0
   41.6652    3.3776   -3.8968 O   0  0  0  0  0  0  0  0  0  0  0  0
   42.2473    6.1435   -3.8442 C   0  0  2  0  0  0  0  0  0  0  0  0
   42.6307    5.7710   -5.1623 O   0  0  0  0  0  0  0  0  0  0  0  0
   43.3464    4.4565   -8.5487 C   0  0  0  0  0  0  0  0  0  0  0  0
   44.0477    3.4624   -9.2568 O   0  0  0  0  0  0  0  0  0  0  0  0
   49.2449    2.3982   -5.8270 C   0  0  1  0  0  0  0  0  0  0  0  0
   48.4848    3.4313   -6.6329 O   0  0  0  0  0  0  0  0  0  0  0  0
   43.9136   10.1163  -10.3566 C   0  0  0  0  0  0  0  0  0  0  0  0
   40.9006    3.0470   -6.1897 C   0  0  0  0  0  0  0  0  0  0  0  0
   40.6864    4.3032   -6.6005 O   0  0  0  0  0  0  0  0  0  0  0  0
   41.9877    7.7028   -3.7086 C   0  0  1  0  0  0  0  0  0  0  0  0
   40.8818    8.0685   -4.4667 O   0  0  0  0  0  0  0  0  0  0  0  0
   46.5813    7.7328   -7.0856 C   0  0  0  0  0  0  0  0  0  0  0  0
   50.7600    2.3508   -6.1645 C   0  0  0  0  0  0  0  0  0  0  0  0
   51.3449    3.6642   -6.0575 N   0  0  0  0  0  0  0  0  0  0  0  0
   45.6117    8.4583   -8.0242 C   0  0  0  0  0  0  0  0  0  0  0  0
   45.0897    9.6897   -7.3474 N   0  0  0  0  0  0  0  0  0  0  0  0
   45.2249   11.0082   -8.1557 C   0  0  0  0  0  0  0  0  0  0  0  0
  1  2  1  6  0  0  0
  1  9  1  0  0  0  0
  1 35  1  0  0  0  0
  3  4  1  6  0  0  0
  3 11  1  0  0  0  0
  3 45  1  0  0  0  0
  5  6  1  0  0  0  0
  5 12  1  0  0  0  0
  5 37  1  1  0  0  0
  6 30  1  0  0  0  0
  7 14  1  0  0  0  0
  7 41  1  0  0  0  0
  7 23  1  6  0  0  0
  8 16  2  0  0  0  0
  8 42  1  0  0  0  0
  9 10  1  1  0  0  0
  9 18  1  0  0  0  0
 11 20  1  0  0  0  0
 12 13  1  6  0  0  0
 12 22  1  0  0  0  0
 13 47  1  0  0  0  0
 14 15  1  6  0  0  0
 14 24  1  0  0  0  0
 16 17  1  0  0  0  0
 17 26  2  0  0  0  0
 18 19  1  1  0  0  0
 18 27  1  0  0  0  0
 20 21  1  1  0  0  0
 20 29  1  0  0  0  0
 22 23  1  6  0  0  0
 22 30  1  0  0  0  0
 24 25  1  6  0  0  0
 24 31  1  0  0  0  0
 26 33  1  0  0  0  0
 27 28  1  6  0  0  0
 27 34  1  0  0  0  0
 29  2  1  1  0  0  0
 29 36  1  0  0  0  0
 30 38  1  1  0  0  0
 31 32  1  6  0  0  0
 31 40  1  0  0  0  0
 33 42  2  0  0  0  0
 34 35  1  0  0  0  0
 34 43  1  6  0  0  0
 36 37  1  6  0  0  0
 36 45  1  0  0  0  0
 38 39  1  0  0  0  0
 40 41  1  0  0  0  0
 40 48  1  6  0  0  0
 43 44  1  0  0  0  0
 45 46  1  6  0  0  0
 47 50  1  0  0  0  0
 48 49  1  0  0  0  0
 50 51  1  0  0  0  0
 51 52  1  0  0  0  0
 52  8  1  0  0  0  0
M  END
>  <CHROM.1>
-170.69224287,-149.77313800,-44.14488446,-100.70406234,86.55366627,84.21263033
67.41384863,175.34686190,-160.68994551,-76.90255719,-66.53301759,61.80053871
127.88498644,33.13863259,-125.66928956,44.70600082,5.42741693,-5.73300436
1.55563490,-0.49654528,2.44362918

>  <Name>
2be0_lig

>  <RI>
2.10017e+07

>  <Rbt.Current_Directory>
/home/itssahil/PROJECTS/Mol_Feturizer/New_Systems/rnas/2be0

>  <Rbt.Executable>
rbdock ($Id: //depot/dev/client3/rdock/2013.1/src/exe/rbdock.cxx#4 $)

>  <Rbt.Library>
libRbt.so (2013.1, Build901 2013/11/27)

>  <Rbt.Parameter_File>
/export/apps/rDock/src/rDock_2013.1_src/data/scripts/dock_solv.prm

>  <Rbt.Receptor>
prm/pocket_docking_3.prm

>  <SCORE>
-15.5823

>  <SCORE.INTER>
-5.66113

>  <SCORE.INTER.CONST>
1

>  <SCORE.INTER.POLAR>
-0.959166

>  <SCORE.INTER.ROT>
15

>  <SCORE.INTER.SOLV>
19.8198

>  <SCORE.INTER.VDW>
-20.7835

>  <SCORE.INTER.norm>
-0.108868

>  <SCORE.INTRA>
-10.0225

>  <SCORE.INTRA.DIHEDRAL>
-26.3956

>  <SCORE.INTRA.DIHEDRAL.0>
47.8724

>  <SCORE.INTRA.POLAR>
0

>  <SCORE.INTRA.POLAR.0>
0

>  <SCORE.INTRA.REPUL>
0

>  <SCORE.INTRA.REPUL.0>
0

>  <SCORE.INTRA.SOLV>
5.87539

>  <SCORE.INTRA.SOLV.lig_0>
-115.677

>  <SCORE.INTRA.VDW>
0.237597

>  <SCORE.INTRA.VDW.0>
-7.4833

>  <SCORE.INTRA.norm>
-0.192741

>  <SCORE.RESTR>
0.101345

>  <SCORE.RESTR.CAVITY>
0.101345

>  <SCORE.RESTR.norm>
0.00194895

>  <SCORE.SYSTEM>
0

>  <SCORE.SYSTEM.CONST>
0

>  <SCORE.SYSTEM.DIHEDRAL>
0

>  <SCORE.SYSTEM.SOLV>
0

>  <SCORE.SYSTEM.norm>
0

>  <SCORE.heavy>
52

>  <SCORE.norm>
-0.29966

>  <RMSD>
9.211

$$$$
2be0_lig
 OpenBabel11021811423D
libRbt.so/2013.1/901 2013/11/27
 52 56  0  0  0  0  0  0  0  0999 V2000
   43.0432    4.6103    0.0383 C   0  0  2  0  0  0  0  0  0  0  0  0
   43.0923    5.0204   -1.3079 O   0  0  0  0  0  0  0  0  0  0  0  0
   42.2336    9.3143   -0.8652 C   0  0  2  0  0  0  0  0  0  0  0  0
   42.2027   10.7710   -1.1761 N   0  0  0  0  0  0  0  0  0  0  0  0
   41.4570    6.0331   -3.8888 C   0  0  2  0  0  0  0  0  0  0  0  0
   40.4729    5.6272   -4.8620 O   0  0  0  0  0  0  0  0  0  0  0  0
   41.8313    1.2495   -4.2443 C   0  0  1  0  0  0  0  0  0  0  0  0
   44.8331    8.2197   -8.7088 C   0  0  0  0  0  0  0  0  0  0  0  0
   41.9409    3.4957    0.2582 C   0  0  2  0  0  0  0  0  0  0  0  0
   42.1681    2.3845   -0.6682 N   0  0  0  0  0  0  0  0  0  0  0  0
   43.7497    8.8149   -0.8515 C   0  0  0  0  0  0  0  0  0  0  0  0
   42.5769    4.9810   -3.9258 C   0  0  2  0  0  0  0  0  0  0  0  0
   43.4594    5.4490   -5.0392 O   0  0  0  0  0  0  0  0  0  0  0  0
   42.9252    0.1438   -4.7154 C   0  0  2  0  0  0  0  0  0  0  0  0
   43.1628    0.2996   -6.1868 N   0  0  0  0  0  0  0  0  0  0  0  0
   45.8068    9.1518   -9.1968 C   0  0  0  0  0  0  0  0  0  0  0  0
   45.4782   10.0104  -10.2784 N   0  0  0  0  0  0  0  0  0  0  0  0
   40.4867    4.1355    0.0798 C   0  0  1  0  0  0  0  0  0  0  0  0
   39.5146    3.1198    0.2731 O   0  0  0  0  0  0  0  0  0  0  0  0
   43.8267    7.2152   -0.5274 C   0  0  2  0  0  0  0  0  0  0  0  0
   45.1861    6.7537   -0.5100 N   0  0  0  0  0  0  0  0  0  0  0  0
   41.7105    3.7213   -4.1138 C   0  0  2  0  0  0  0  0  0  0  0  0
   42.3699    2.5458   -4.5607 O   0  0  0  0  0  0  0  0  0  0  0  0
   42.3489   -1.2675   -4.3910 C   0  0  1  0  0  0  0  0  0  0  0  0
   42.1724   -1.3130   -2.9302 O   0  0  0  0  0  0  0  0  0  0  0  0
   44.2076    9.9959  -10.9214 C   0  0  0  0  0  0  0  0  0  0  0  0
   40.3261    5.2942    1.1063 C   0  0  2  0  0  0  0  0  0  0  0  0
   38.9927    5.9319    0.9858 O   0  0  0  0  0  0  0  0  0  0  0  0
   43.0057    6.4067   -1.6145 C   0  0  2  0  0  0  0  0  0  0  0  0
   40.5803    4.2018   -5.0550 C   0  0  1  0  0  0  0  0  0  0  0  0
   40.9321   -1.4803   -5.1613 C   0  0  2  0  0  0  0  0  0  0  0  0
   41.1007   -1.4357   -6.6221 O   0  0  0  0  0  0  0  0  0  0  0  0
   43.2048    9.0969  -10.4819 C   0  0  0  0  0  0  0  0  0  0  0  0
   41.4325    6.3934    0.8717 C   0  0  2  0  0  0  0  0  0  0  0  0
   42.7093    5.7088    0.9985 O   0  0  0  0  0  0  0  0  0  0  0  0
   41.5317    6.9415   -1.5945 C   0  0  2  0  0  0  0  0  0  0  0  0
   40.8931    6.1465   -2.5862 O   0  0  0  0  0  0  0  0  0  0  0  0
   39.2240    3.5994   -4.6921 C   0  0  0  0  0  0  0  0  0  0  0  0
   38.8929    3.6329   -3.3245 O   0  0  0  0  0  0  0  0  0  0  0  0
   39.9040   -0.3452   -4.7058 C   0  0  1  0  0  0  0  0  0  0  0  0
   40.5223    1.0071   -4.9951 O   0  0  0  0  0  0  0  0  0  0  0  0
   43.4984    8.1792   -9.3568 C   0  0  0  0  0  0  0  0  0  0  0  0
   41.2435    7.4475    1.8812 C   0  0  0  0  0  0  0  0  0  0  0  0
   41.4046    6.9278    3.1046 O   0  0  0  0  0  0  0  0  0  0  0  0
   41.4914    8.4889   -1.9428 C   0  0  1  0  0  0  0  0  0  0  0  0
   40.1806    8.9495   -1.9108 O   0  0  0  0  0  0  0  0  0  0  0  0
   44.9362    5.5729   -5.0502 C   0  0  0  0  0  0  0  0  0  0  0  0
   38.5797   -0.5917   -5.4783 C   0  0  0  0  0  0  0  0  0  0  0  0
   38.3334    0.4752   -6.4163 N   0  0  0  0  0  0  0  0  0  0  0  0
   45.2671    7.0621   -4.9084 C   0  0  0  0  0  0  0  0  0  0  0  0
   44.7570    7.8028   -6.1075 N   0  0  0  0  0  0  0  0  0  0  0  0
   45.2320    7.2615   -7.4829 C   0  0  0  0  0  0  0  0  0  0  0  0
  1  2  1  6  0  0  0
  1  9  1  0  0  0  0
  1 35  1  0  0  0  0
  3  4  1  6  0  0  0
  3 11  1  0  0  0  0
  3 45  1  0  0  0  0
  5  6  1  0  0  0  0
  5 12  1  0  0  0  0
  5 37  1  1  0  0  0
  6 30  1  0  0  0  0
  7 14  1  0  0  0  0
  7 41  1  0  0  0  0
  7 23  1  6  0  0  0
  8 16  2  0  0  0  0
  8 42  1  0  0  0  0
  9 10  1  6  0  0  0
  9 18  1  0  0  0  0
 11 20  1  0  0  0  0
 12 13  1  6  0  0  0
 12 22  1  0  0  0  0
 13 47  1  0  0  0  0
 14 15  1  6  0  0  0
 14 24  1  0  0  0  0
 16 17  1  0  0  0  0
 17 26  2  0  0  0  0
 18 19  1  1  0  0  0
 18 27  1  0  0  0  0
 20 21  1  6  0  0  0
 20 29  1  0  0  0  0
 22 23  1  6  0  0  0
 22 30  1  0  0  0  0
 24 25  1  1  0  0  0
 24 31  1  0  0  0  0
 26 33  1  0  0  0  0
 27 28  1  6  0  0  0
 27 34  1  0  0  0  0
 29  2  1  1  0  0  0
 29 36  1  0  0  0  0
 30 38  1  1  0  0  0
 31 32  1  6  0  0  0
 31 40  1  0  0  0  0
 33 42  2  0  0  0  0
 34 35  1  0  0  0  0
 34 43  1  1  0  0  0
 36 37  1  6  0  0  0
 36 45  1  0  0  0  0
 38 39  1  0  0  0  0
 40 41  1  0  0  0  0
 40 48  1  6  0  0  0
 43 44  1  0  0  0  0
 45 46  1  1  0  0  0
 47 50  1  0  0  0  0
 48 49  1  0  0  0  0
 50 51  1  0  0  0  0
 51 52  1  0  0  0  0
 52  8  1  0  0  0  0
M  END
>  <CHROM.1>
127.65493723,-158.72345327,-172.13144586,133.38369271,-103.84387422,153.98051797
38.86863662,-69.91015449,61.77503044,-51.56147901,-112.79730876,-64.32181174
-54.09906962,-171.46716306,96.74633393,42.07644862,4.93938059,-3.47013485
3.04431486,-1.18492801,-2.22438477

>  <Name>
2be0_lig

>  <RI>
0

>  <Rbt.Current_Directory>
/home/itssahil/PROJECTS/Mol_Feturizer/New_Systems/rnas/2be0

>  <Rbt.Executable>
rbdock ($Id: //depot/dev/client3/rdock/2013.1/src/exe/rbdock.cxx#4 $)

>  <Rbt.Library>
libRbt.so (2013.1, Build901 2013/11/27)

>  <Rbt.Parameter_File>
/export/apps/rDock/src/rDock_2013.1_src/data/scripts/dock_solv.prm

>  <Rbt.Receptor>
prm/pocket_docking_2.prm

>  <SCORE>
9.44668

>  <SCORE.INTER>
-11.8346

>  <SCORE.INTER.CONST>
1

>  <SCORE.INTER.POLAR>
-1.66705

>  <SCORE.INTER.ROT>
15

>  <SCORE.INTER.SOLV>
16.1377

>  <SCORE.INTER.VDW>
-21.3122

>  <SCORE.INTER.norm>
-0.227589

>  <SCORE.INTRA>
8.08587

>  <SCORE.INTRA.DIHEDRAL>
-15.0563

>  <SCORE.INTRA.DIHEDRAL.0>
47.8724

>  <SCORE.INTRA.POLAR>
0

>  <SCORE.INTRA.POLAR.0>
0

>  <SCORE.INTRA.REPUL>
0

>  <SCORE.INTRA.REPUL.0>
0

>  <SCORE.INTRA.SOLV>
3.31026

>  <SCORE.INTRA.SOLV.lig_0>
-115.677

>  <SCORE.INTRA.VDW>
13.9589

>  <SCORE.INTRA.VDW.0>
-7.4833

>  <SCORE.INTRA.norm>
0.155497

>  <SCORE.RESTR>
13.1955

>  <SCORE.RESTR.CAVITY>
13.1955

>  <SCORE.RESTR.norm>
0.253759

>  <SCORE.SYSTEM>
0

>  <SCORE.SYSTEM.CONST>
0

>  <SCORE.SYSTEM.DIHEDRAL>
0

>  <SCORE.SYSTEM.SOLV>
0

>  <SCORE.SYSTEM.norm>
0

>  <SCORE.heavy>
52

>  <SCORE.norm>
0.181667

>  <RMSD>
9.212

$$$$
2be0_lig
 OpenBabel11021811423D
libRbt.so/2013.1/901 2013/11/27
 52 56  0  0  0  0  0  0  0  0999 V2000
   43.1720    3.7391   -4.8341 C   0  0  2  0  0  0  0  0  0  0  0  0
   41.8037    4.0301   -4.6733 O   0  0  0  0  0  0  0  0  0  0  0  0
   38.2800    1.8448   -6.1496 C   0  0  2  0  0  0  0  0  0  0  0  0
   37.2711    1.3045   -7.1034 N   0  0  0  0  0  0  0  0  0  0  0  0
   42.6961    0.4531   -4.9452 C   0  0  2  0  0  0  0  0  0  0  0  0
   44.0881    0.2830   -5.2828 O   0  0  0  0  0  0  0  0  0  0  0  0
   41.4736   -3.2813   -7.2801 C   0  0  1  0  0  0  0  0  0  0  0  0
   37.6533    1.1319   -2.4777 C   0  0  0  0  0  0  0  0  0  0  0  0
   44.0404    4.4217   -3.7003 C   0  0  2  0  0  0  0  0  0  0  0  0
   43.5269    4.0372   -2.3838 N   0  0  0  0  0  0  0  0  0  0  0  0
   38.3259    3.4349   -6.2824 C   0  0  0  0  0  0  0  0  0  0  0  0
   42.0172   -0.9081   -5.1662 C   0  0  2  0  0  0  0  0  0  0  0  0
   42.2588   -1.6321   -3.8797 O   0  0  0  0  0  0  0  0  0  0  0  0
   40.4107   -3.2641   -6.0508 C   0  0  2  0  0  0  0  0  0  0  0  0
   40.9748   -4.0652   -4.9168 N   0  0  0  0  0  0  0  0  0  0  0  0
   37.0045    0.1384   -3.2818 C   0  0  0  0  0  0  0  0  0  0  0  0
   35.5895    0.0277   -3.2570 N   0  0  0  0  0  0  0  0  0  0  0  0
   44.0385    6.0075   -3.9033 C   0  0  1  0  0  0  0  0  0  0  0  0
   44.8151    6.6001   -2.8738 O   0  0  0  0  0  0  0  0  0  0  0  0
   39.4331    4.0670   -5.2605 C   0  0  2  0  0  0  0  0  0  0  0  0
   39.4826    5.4978   -5.3686 N   0  0  0  0  0  0  0  0  0  0  0  0
   42.7666   -1.3411   -6.4405 C   0  0  2  0  0  0  0  0  0  0  0  0
   42.7028   -2.7158   -6.7905 O   0  0  0  0  0  0  0  0  0  0  0  0
   39.0770   -3.8870   -6.5629 C   0  0  1  0  0  0  0  0  0  0  0  0
   38.6101   -3.0166   -7.6547 O   0  0  0  0  0  0  0  0  0  0  0  0
   34.7601    0.8661   -2.4586 C   0  0  0  0  0  0  0  0  0  0  0  0
   44.6087    6.3266   -5.3158 C   0  0  2  0  0  0  0  0  0  0  0  0
   44.6284    7.7883   -5.5648 O   0  0  0  0  0  0  0  0  0  0  0  0
   40.8625    3.4612   -5.5755 C   0  0  2  0  0  0  0  0  0  0  0  0
   44.2045   -0.8210   -6.2038 C   0  0  1  0  0  0  0  0  0  0  0  0
   39.3376   -5.4034   -7.0906 C   0  0  2  0  0  0  0  0  0  0  0  0
   39.8049   -6.2791   -6.0047 O   0  0  0  0  0  0  0  0  0  0  0  0
   35.3448    1.8670   -1.6441 C   0  0  0  0  0  0  0  0  0  0  0  0
   43.7313    5.6380   -6.4309 C   0  0  2  0  0  0  0  0  0  0  0  0
   43.7481    4.2151   -6.1309 O   0  0  0  0  0  0  0  0  0  0  0  0
   40.7602    1.9021   -5.4421 C   0  0  2  0  0  0  0  0  0  0  0  0
   42.0852    1.4721   -5.7300 O   0  0  0  0  0  0  0  0  0  0  0  0
   44.8432   -0.2725   -7.4787 C   0  0  0  0  0  0  0  0  0  0  0  0
   45.0707   -1.2172   -8.4970 O   0  0  0  0  0  0  0  0  0  0  0  0
   40.4226   -5.3787   -8.2633 C   0  0  1  0  0  0  0  0  0  0  0  0
   41.6835   -4.7243   -7.7374 O   0  0  0  0  0  0  0  0  0  0  0  0
   36.8179    2.0225   -1.6340 C   0  0  0  0  0  0  0  0  0  0  0  0
   44.3294    5.9565   -7.7374 C   0  0  0  0  0  0  0  0  0  0  0  0
   44.0089    7.2102   -8.0811 O   0  0  0  0  0  0  0  0  0  0  0  0
   39.6998    1.3195   -6.4686 C   0  0  1  0  0  0  0  0  0  0  0  0
   39.6134   -0.0607   -6.3309 O   0  0  0  0  0  0  0  0  0  0  0  0
   41.8570   -1.2309   -2.5108 C   0  0  0  0  0  0  0  0  0  0  0  0
   40.6379   -6.8480   -8.7174 C   0  0  0  0  0  0  0  0  0  0  0  0
   39.4622   -7.3507   -9.3834 N   0  0  0  0  0  0  0  0  0  0  0  0
   40.3294   -1.1131   -2.5031 C   0  0  0  0  0  0  0  0  0  0  0  0
   39.9166    0.0750   -3.3184 N   0  0  0  0  0  0  0  0  0  0  0  0
   39.2556    1.2353   -2.5267 C   0  0  0  0  0  0  0  0  0  0  0  0
  1  2  1  1  0  0  0
  1  9  1  0  0  0  0
  1 35  1  0  0  0  0
  3  4  1  6  0  0  0
  3 11  1  0  0  0  0
  3 45  1  0  0  0  0
  5  6  1  0  0  0  0
  5 12  1  0  0  0  0
  5 37  1  6  0  0  0
  6 30  1  0  0  0  0
  7 14  1  0  0  0  0
  7 41  1  0  0  0  0
  7 23  1  1  0  0  0
  8 16  2  0  0  0  0
  8 42  1  0  0  0  0
  9 10  1  1  0  0  0
  9 18  1  0  0  0  0
 11 20  1  0  0  0  0
 12 13  1  1  0  0  0
 12 22  1  0  0  0  0
 13 47  1  0  0  0  0
 14 15  1  1  0  0  0
 14 24  1  0  0  0  0
 16 17  1  0  0  0  0
 17 26  2  0  0  0  0
 18 19  1  1  0  0  0
 18 27  1  0  0  0  0
 20 21  1  6  0  0  0
 20 29  1  0  0  0  0
 22 23  1  1  0  0  0
 22 30  1  0  0  0  0
 24 25  1  6  0  0  0
 24 31  1  0  0  0  0
 26 33  1  0  0  0  0
 27 28  1  6  0  0  0
 27 34  1  0  0  0  0
 29  2  1  1  0  0  0
 29 36  1  0  0  0  0
 30 38  1  6  0  0  0
 31 32  1  1  0  0  0
 31 40  1  0  0  0  0
 33 42  2  0  0  0  0
 34 35  1  0  0  0  0
 34 43  1  6  0  0  0
 36 37  1  6  0  0  0
 36 45  1  0  0  0  0
 38 39  1  0  0  0  0
 40 41  1  0  0  0  0
 40 48  1  1  0  0  0
 43 44  1  0  0  0  0
 45 46  1  1  0  0  0
 47 50  1  0  0  0  0
 48 49  1  0  0  0  0
 50 51  1  0  0  0  0
 51 52  1  0  0  0  0
 52  8  1  0  0  0  0
M  END
>  <CHROM.1>
-177.81071651,-172.54635898,-67.43503756,58.60988231,59.79694971,70.90108158
-174.23967921,178.55441536,-77.35310743,137.25551375,68.79328831,-69.76049525
-113.61945381,-92.59464143,-8.19959343,41.10263297,0.64530227,-5.44930662
-1.22872505,-0.44951209,-2.82139019

>  <Name>
2be0_lig

>  <RI>
0

>  <Rbt.Current_Directory>
/home/itssahil/PROJECTS/Mol_Feturizer/New_Systems/rnas/2be0

>  <Rbt.Executable>
rbdock ($Id: //depot/dev/client3/rdock/2013.1/src/exe/rbdock.cxx#4 $)

>  <Rbt.Library>
libRbt.so (2013.1, Build901 2013/11/27)

>  <Rbt.Parameter_File>
/export/apps/rDock/src/rDock_2013.1_src/data/scripts/dock_solv.prm

>  <Rbt.Receptor>
prm/pocket_docking_7.prm

>  <SCORE>
-18.4021

>  <SCORE.INTER>
-1.67825

>  <SCORE.INTER.CONST>
1

>  <SCORE.INTER.POLAR>
-1.28352

>  <SCORE.INTER.ROT>
15

>  <SCORE.INTER.SOLV>
10.486

>  <SCORE.INTER.VDW>
-13.9358

>  <SCORE.INTER.norm>
-0.032274

>  <SCORE.INTRA>
-16.7239

>  <SCORE.INTRA.DIHEDRAL>
-36.0309

>  <SCORE.INTRA.DIHEDRAL.0>
47.8724

>  <SCORE.INTRA.POLAR>
0

>  <SCORE.INTRA.POLAR.0>
0

>  <SCORE.INTRA.REPUL>
0

>  <SCORE.INTRA.REPUL.0>
0

>  <SCORE.INTRA.SOLV>
2.9757

>  <SCORE.INTRA.SOLV.lig_0>
-115.677

>  <SCORE.INTRA.VDW>
-0.196288

>  <SCORE.INTRA.VDW.0>
-7.4833

>  <SCORE.INTRA.norm>
-0.321613

>  <SCORE.RESTR>
0

>  <SCORE.RESTR.CAVITY>
0

>  <SCORE.RESTR.norm>
0

>  <SCORE.SYSTEM>
0

>  <SCORE.SYSTEM.CONST>
0

>  <SCORE.SYSTEM.DIHEDRAL>
0

>  <SCORE.SYSTEM.SOLV>
0

>  <SCORE.SYSTEM.norm>
0

>  <SCORE.heavy>
52

>  <SCORE.norm>
-0.353887

>  <RMSD>
9.215

$$$$
2be0_lig
 OpenBabel11021811423D
libRbt.so/2013.1/901 2013/11/27
 52 56  0  0  0  0  0  0  0  0999 V2000
   42.2488    1.0832   -3.8845 C   0  0  2  0  0  0  0  0  0  0  0  0
   43.1365    2.1435   -3.6189 O   0  0  0  0  0  0  0  0  0  0  0  0
   41.1038    3.9425   -0.1544 C   0  0  2  0  0  0  0  0  0  0  0  0
   40.8785    4.8070    1.0379 N   0  0  0  0  0  0  0  0  0  0  0  0
   42.5160    5.8443   -3.8009 C   0  0  2  0  0  0  0  0  0  0  0  0
   42.7134    6.4193   -5.1089 O   0  0  0  0  0  0  0  0  0  0  0  0
   46.9304    4.4530   -5.1114 C   0  0  1  0  0  0  0  0  0  0  0  0
   40.2856   10.0730   -0.3949 C   0  0  0  0  0  0  0  0  0  0  0  0
   42.7306    0.2299   -5.1276 C   0  0  2  0  0  0  0  0  0  0  0  0
   44.1081   -0.2197   -4.9160 N   0  0  0  0  0  0  0  0  0  0  0  0
   42.4144    3.0615    0.0790 C   0  0  0  0  0  0  0  0  0  0  0  0
   43.9086    5.6956   -3.1676 C   0  0  2  0  0  0  0  0  0  0  0  0
   44.1607    7.0383   -2.5585 O   0  0  0  0  0  0  0  0  0  0  0  0
   48.4673    4.6890   -4.6387 C   0  0  2  0  0  0  0  0  0  0  0  0
   48.8395    6.1152   -4.9092 N   0  0  0  0  0  0  0  0  0  0  0  0
   40.5377    9.4321    0.8623 C   0  0  0  0  0  0  0  0  0  0  0  0
   39.4737    9.2483    1.7839 N   0  0  0  0  0  0  0  0  0  0  0  0
   42.5823    1.0954   -6.4635 C   0  0  1  0  0  0  0  0  0  0  0  0
   43.0259    0.3162   -7.5636 O   0  0  0  0  0  0  0  0  0  0  0  0
   42.7053    2.1072   -1.2151 C   0  0  2  0  0  0  0  0  0  0  0  0
   43.8811    1.3074   -1.0167 N   0  0  0  0  0  0  0  0  0  0  0  0
   44.6928    5.2646   -4.4215 C   0  0  2  0  0  0  0  0  0  0  0  0
   46.1080    5.3671   -4.3640 O   0  0  0  0  0  0  0  0  0  0  0  0
   49.3724    3.7140   -5.4506 C   0  0  1  0  0  0  0  0  0  0  0  0
   48.9318    2.3544   -5.0972 O   0  0  0  0  0  0  0  0  0  0  0  0
   38.1405    9.6763    1.5242 C   0  0  0  0  0  0  0  0  0  0  0  0
   41.0924    1.5186   -6.6166 C   0  0  2  0  0  0  0  0  0  0  0  0
   40.8923    2.3309   -7.8411 O   0  0  0  0  0  0  0  0  0  0  0  0
   42.8832    2.9998   -2.5117 C   0  0  2  0  0  0  0  0  0  0  0  0
   44.0494    6.1031   -5.5514 C   0  0  1  0  0  0  0  0  0  0  0  0
   49.2005    3.9920   -7.0441 C   0  0  2  0  0  0  0  0  0  0  0  0
   49.6387    5.3493   -7.4047 O   0  0  0  0  0  0  0  0  0  0  0  0
   37.8308   10.3147    0.2981 C   0  0  0  0  0  0  0  0  0  0  0  0
   40.6312    2.3666   -5.3694 C   0  0  2  0  0  0  0  0  0  0  0  0
   40.8545    1.5218   -4.2069 O   0  0  0  0  0  0  0  0  0  0  0  0
   41.5776    3.8502   -2.6886 C   0  0  2  0  0  0  0  0  0  0  0  0
   41.8414    4.5924   -3.8730 O   0  0  0  0  0  0  0  0  0  0  0  0
   43.9129    5.3176   -6.8547 C   0  0  0  0  0  0  0  0  0  0  0  0
   43.0967    4.1728   -6.7893 O   0  0  0  0  0  0  0  0  0  0  0  0
   47.6690    3.7965   -7.4553 C   0  0  1  0  0  0  0  0  0  0  0  0
   46.8224    4.7268   -6.6111 O   0  0  0  0  0  0  0  0  0  0  0  0
   38.9065   10.5309   -0.6971 C   0  0  0  0  0  0  0  0  0  0  0  0
   39.2147    2.7177   -5.5604 C   0  0  0  0  0  0  0  0  0  0  0  0
   38.4720    1.6039   -5.5376 O   0  0  0  0  0  0  0  0  0  0  0  0
   41.3426    4.7861   -1.4291 C   0  0  1  0  0  0  0  0  0  0  0  0
   40.1774    5.5248   -1.5965 O   0  0  0  0  0  0  0  0  0  0  0  0
   43.3259    7.7738   -1.5795 C   0  0  0  0  0  0  0  0  0  0  0  0
   47.5644    4.0845   -8.9776 C   0  0  0  0  0  0  0  0  0  0  0  0
   46.2147    3.8793   -9.4413 N   0  0  0  0  0  0  0  0  0  0  0  0
   43.8616    9.2078   -1.5140 C   0  0  0  0  0  0  0  0  0  0  0  0
   42.8966   10.0666   -0.7538 N   0  0  0  0  0  0  0  0  0  0  0  0
   41.5081   10.2663   -1.4188 C   0  0  0  0  0  0  0  0  0  0  0  0
  1  2  1  6  0  0  0
  1  9  1  0  0  0  0
  1 35  1  0  0  0  0
  3  4  1  1  0  0  0
  3 11  1  0  0  0  0
  3 45  1  0  0  0  0
  5  6  1  0  0  0  0
  5 12  1  0  0  0  0
  5 37  1  6  0  0  0
  6 30  1  0  0  0  0
  7 14  1  0  0  0  0
  7 41  1  0  0  0  0
  7 23  1  1  0  0  0
  8 16  2  0  0  0  0
  8 42  1  0  0  0  0
  9 10  1  1  0  0  0
  9 18  1  0  0  0  0
 11 20  1  0  0  0  0
 12 13  1  6  0  0  0
 12 22  1  0  0  0  0
 13 47  1  0  0  0  0
 14 15  1  6  0  0  0
 14 24  1  0  0  0  0
 16 17  1  0  0  0  0
 17 26  2  0  0  0  0
 18 19  1  6  0  0  0
 18 27  1  0  0  0  0
 20 21  1  1  0  0  0
 20 29  1  0  0  0  0
 22 23  1  1  0  0  0
 22 30  1  0  0  0  0
 24 25  1  6  0  0  0
 24 31  1  0  0  0  0
 26 33  1  0  0  0  0
 27 28  1  6  0  0  0
 27 34  1  0  0  0  0
 29  2  1  6  0  0  0
 29 36  1  0  0  0  0
 30 38  1  6  0  0  0
 31 32  1  1  0  0  0
 31 40  1  0  0  0  0
 33 42  2  0  0  0  0
 34 35  1  0  0  0  0
 34 43  1  6  0  0  0
 36 37  1  6  0  0  0
 36 45  1  0  0  0  0
 38 39  1  0  0  0  0
 40 41  1  0  0  0  0
 40 48  1  6  0  0  0
 43 44  1  0  0  0  0
 45 46  1  6  0  0  0
 47 50  1  0  0  0  0
 48 49  1  0  0  0  0
 50 51  1  0  0  0  0
 51 52  1  0  0  0  0
 52  8  1  0  0  0  0
M  END
>  <CHROM.1>
-178.36649651,178.63481115,-171.02122264,55.61786191,-167.90818681,149.43847900
53.19765429,-54.72983437,65.37479615,-87.57112231,177.81185507,168.79133442
-65.36200196,133.86174213,-15.44340650,43.28198249,4.73424165,-3.85397288
0.86327972,-0.42708125,-2.58144852

>  <Name>
2be0_lig

>  <RI>
0

>  <Rbt.Current_Directory>
/home/itssahil/PROJECTS/Mol_Feturizer/New_Systems/rnas/2be0

>  <Rbt.Executable>
rbdock ($Id: //depot/dev/client3/rdock/2013.1/src/exe/rbdock.cxx#4 $)

>  <Rbt.Library>
libRbt.so (2013.1, Build901 2013/11/27)

>  <Rbt.Parameter_File>
/export/apps/rDock/src/rDock_2013.1_src/data/scripts/dock_solv.prm

>  <Rbt.Receptor>
prm/pocket_docking_4.prm

>  <SCORE>
-17.576

>  <SCORE.INTER>
-0.538891

>  <SCORE.INTER.CONST>
1

>  <SCORE.INTER.POLAR>
-0.894427

>  <SCORE.INTER.ROT>
15

>  <SCORE.INTER.SOLV>
13.1535

>  <SCORE.INTER.VDW>
-15.3623

>  <SCORE.INTER.norm>
-0.0103633

>  <SCORE.INTRA>
-17.0371

>  <SCORE.INTRA.DIHEDRAL>
-36.6463

>  <SCORE.INTRA.DIHEDRAL.0>
47.8724

>  <SCORE.INTRA.POLAR>
0

>  <SCORE.INTRA.POLAR.0>
0

>  <SCORE.INTRA.REPUL>
0

>  <SCORE.INTRA.REPUL.0>
0

>  <SCORE.INTRA.SOLV>
-1.18087

>  <SCORE.INTRA.SOLV.lig_0>
-115.677

>  <SCORE.INTRA.VDW>
1.87645

>  <SCORE.INTRA.VDW.0>
-7.4833

>  <SCORE.INTRA.norm>
-0.327637

>  <SCORE.RESTR>
0

>  <SCORE.RESTR.CAVITY>
0

>  <SCORE.RESTR.norm>
0

>  <SCORE.SYSTEM>
0

>  <SCORE.SYSTEM.CONST>
0

>  <SCORE.SYSTEM.DIHEDRAL>
0

>  <SCORE.SYSTEM.SOLV>
0

>  <SCORE.SYSTEM.norm>
0

>  <SCORE.heavy>
52

>  <SCORE.norm>
-0.338001

>  <RMSD>
9.228

$$$$
2be0_lig
 OpenBabel11021811423D
libRbt.so/2013.1/901 2013/11/27
 52 56  0  0  0  0  0  0  0  0999 V2000
   39.1818    0.4481   -7.5188 C   0  0  2  0  0  0  0  0  0  0  0  0
   39.6532   -0.1896   -6.3552 O   0  0  0  0  0  0  0  0  0  0  0  0
   43.6400   -0.4166   -4.5045 C   0  0  2  0  0  0  0  0  0  0  0  0
   45.0905   -0.7173   -4.3465 N   0  0  0  0  0  0  0  0  0  0  0  0
   40.9059    2.9908   -6.6947 C   0  0  2  0  0  0  0  0  0  0  0  0
   40.6995    3.7104   -7.9275 O   0  0  0  0  0  0  0  0  0  0  0  0
   44.3502    6.2604   -7.3622 C   0  0  1  0  0  0  0  0  0  0  0  0
   42.8307    6.4153   -1.5780 C   0  0  0  0  0  0  0  0  0  0  0  0
   37.6552    0.8422   -7.3781 C   0  0  2  0  0  0  0  0  0  0  0  0
   37.4603    1.6455   -6.1692 N   0  0  0  0  0  0  0  0  0  0  0  0
   42.8612   -1.7662   -4.8513 C   0  0  0  0  0  0  0  0  0  0  0  0
   41.7278    3.9103   -5.7774 C   0  0  2  0  0  0  0  0  0  0  0  0
   40.6917    4.7684   -5.1234 O   0  0  0  0  0  0  0  0  0  0  0  0
   45.5137    6.9206   -6.4393 C   0  0  2  0  0  0  0  0  0  0  0  0
   44.8966    7.9712   -5.5668 N   0  0  0  0  0  0  0  0  0  0  0  0
   43.5290    5.4137   -0.8271 C   0  0  0  0  0  0  0  0  0  0  0  0
   44.1805    5.7688    0.3831 N   0  0  0  0  0  0  0  0  0  0  0  0
   36.7574   -0.4805   -7.3686 C   0  0  1  0  0  0  0  0  0  0  0  0
   35.3950   -0.1062   -7.2342 O   0  0  0  0  0  0  0  0  0  0  0  0
   41.2650   -1.4766   -5.0470 C   0  0  2  0  0  0  0  0  0  0  0  0
   40.5523   -2.6837   -5.3573 N   0  0  0  0  0  0  0  0  0  0  0  0
   42.6687    4.5181   -6.8348 C   0  0  2  0  0  0  0  0  0  0  0  0
   43.3655    5.7017   -6.4741 O   0  0  0  0  0  0  0  0  0  0  0  0
   46.5818    7.5425   -7.3887 C   0  0  1  0  0  0  0  0  0  0  0  0
   47.1277    6.4270   -8.1792 O   0  0  0  0  0  0  0  0  0  0  0  0
   44.1806    7.0944    0.9035 C   0  0  0  0  0  0  0  0  0  0  0  0
   37.0155   -1.2638   -8.6884 C   0  0  2  0  0  0  0  0  0  0  0  0
   36.2100   -2.5080   -8.7359 O   0  0  0  0  0  0  0  0  0  0  0  0
   41.0491   -0.4197   -6.2072 C   0  0  2  0  0  0  0  0  0  0  0  0
   41.7562    4.6813   -8.0737 C   0  0  1  0  0  0  0  0  0  0  0  0
   45.8906    8.6598   -8.3478 C   0  0  2  0  0  0  0  0  0  0  0  0
   45.3424    9.7779   -7.5643 O   0  0  0  0  0  0  0  0  0  0  0  0
   43.5060    8.1262    0.2056 C   0  0  0  0  0  0  0  0  0  0  0  0
   38.5406   -1.6467   -8.8107 C   0  0  2  0  0  0  0  0  0  0  0  0
   39.2736   -0.3920   -8.7541 O   0  0  0  0  0  0  0  0  0  0  0  0
   41.8406    0.8785   -5.8236 C   0  0  2  0  0  0  0  0  0  0  0  0
   41.5679    1.7495   -6.9146 O   0  0  0  0  0  0  0  0  0  0  0  0
   42.4817    4.3575   -9.3786 C   0  0  0  0  0  0  0  0  0  0  0  0
   43.5678    5.1962   -9.6921 O   0  0  0  0  0  0  0  0  0  0  0  0
   44.7228    7.9793   -9.1998 C   0  0  1  0  0  0  0  0  0  0  0  0
   43.7340    7.3481   -8.2414 O   0  0  0  0  0  0  0  0  0  0  0  0
   42.8111    7.8072   -1.0632 C   0  0  0  0  0  0  0  0  0  0  0  0
   38.7260   -2.3633  -10.0828 C   0  0  0  0  0  0  0  0  0  0  0  0
   38.6082   -1.5021  -11.1012 O   0  0  0  0  0  0  0  0  0  0  0  0
   43.3890    0.5673   -5.6717 C   0  0  1  0  0  0  0  0  0  0  0  0
   44.0745    1.7246   -5.3218 O   0  0  0  0  0  0  0  0  0  0  0  0
   40.1968    6.0980   -5.5518 C   0  0  0  0  0  0  0  0  0  0  0  0
   44.0952    9.0910  -10.0841 C   0  0  0  0  0  0  0  0  0  0  0  0
   43.0439    8.5499  -10.9092 N   0  0  0  0  0  0  0  0  0  0  0  0
   41.2201    7.1360   -5.0798 C   0  0  0  0  0  0  0  0  0  0  0  0
   41.2774    7.1348   -3.5820 N   0  0  0  0  0  0  0  0  0  0  0  0
   42.1014    5.9847   -2.9429 C   0  0  0  0  0  0  0  0  0  0  0  0
  1  2  1  1  0  0  0
  1  9  1  0  0  0  0
  1 35  1  0  0  0  0
  3  4  1  6  0  0  0
  3 11  1  0  0  0  0
  3 45  1  0  0  0  0
  5  6  1  0  0  0  0
  5 12  1  0  0  0  0
  5 37  1  6  0  0  0
  6 30  1  0  0  0  0
  7 14  1  0  0  0  0
  7 41  1  0  0  0  0
  7 23  1  1  0  0  0
  8 16  2  0  0  0  0
  8 42  1  0  0  0  0
  9 10  1  1  0  0  0
  9 18  1  0  0  0  0
 11 20  1  0  0  0  0
 12 13  1  6  0  0  0
 12 22  1  0  0  0  0
 13 47  1  0  0  0  0
 14 15  1  1  0  0  0
 14 24  1  0  0  0  0
 16 17  1  0  0  0  0
 17 26  2  0  0  0  0
 18 19  1  6  0  0  0
 18 27  1  0  0  0  0
 20 21  1  6  0  0  0
 20 29  1  0  0  0  0
 22 23  1  1  0  0  0
 22 30  1  0  0  0  0
 24 25  1  6  0  0  0
 24 31  1  0  0  0  0
 26 33  1  0  0  0  0
 27 28  1  1  0  0  0
 27 34  1  0  0  0  0
 29  2  1  1  0  0  0
 29 36  1  0  0  0  0
 30 38  1  6  0  0  0
 31 32  1  1  0  0  0
 31 40  1  0  0  0  0
 33 42  2  0  0  0  0
 34 35  1  0  0  0  0
 34 43  1  6  0  0  0
 36 37  1  6  0  0  0
 36 45  1  0  0  0  0
 38 39  1  0  0  0  0
 40 41  1  0  0  0  0
 40 48  1  1  0  0  0
 43 44  1  0  0  0  0
 45 46  1  1  0  0  0
 47 50  1  0  0  0  0
 48 49  1  0  0  0  0
 50 51  1  0  0  0  0
 51 52  1  0  0  0  0
 52  8  1  0  0  0  0
M  END
>  <CHROM.1>
-169.77426828,-178.78790803,-146.05100590,-93.06902210,-80.58878006,174.45796138
-164.57320801,-179.32144550,71.50522319,119.35006693,178.84423824,-63.58253551
78.84618048,147.13039025,174.68745023,41.87119202,3.49861911,-6.36222932
-3.07700555,1.00794416,1.76633097

>  <Name>
2be0_lig

>  <RI>
0

>  <Rbt.Current_Directory>
/home/itssahil/PROJECTS/Mol_Feturizer/New_Systems/rnas/2be0

>  <Rbt.Executable>
rbdock ($Id: //depot/dev/client3/rdock/2013.1/src/exe/rbdock.cxx#4 $)

>  <Rbt.Library>
libRbt.so (2013.1, Build901 2013/11/27)

>  <Rbt.Parameter_File>
/export/apps/rDock/src/rDock_2013.1_src/data/scripts/dock_solv.prm

>  <Rbt.Receptor>
prm/pocket_docking_4.prm

>  <SCORE>
-20.3802

>  <SCORE.INTER>
-9.01384

>  <SCORE.INTER.CONST>
1

>  <SCORE.INTER.POLAR>
-1.37647

>  <SCORE.INTER.ROT>
15

>  <SCORE.INTER.SOLV>
20.7754

>  <SCORE.INTER.VDW>
-21.9462

>  <SCORE.INTER.norm>
-0.173343

>  <SCORE.INTRA>
-11.3726

>  <SCORE.INTRA.DIHEDRAL>
-26.3102

>  <SCORE.INTRA.DIHEDRAL.0>
47.8724

>  <SCORE.INTRA.POLAR>
0

>  <SCORE.INTRA.POLAR.0>
0

>  <SCORE.INTRA.REPUL>
0

>  <SCORE.INTRA.REPUL.0>
0

>  <SCORE.INTRA.SOLV>
-0.142809

>  <SCORE.INTRA.SOLV.lig_0>
-115.677

>  <SCORE.INTRA.VDW>
1.85395

>  <SCORE.INTRA.VDW.0>
-7.4833

>  <SCORE.INTRA.norm>
-0.218703

>  <SCORE.RESTR>
0.00619915

>  <SCORE.RESTR.CAVITY>
0.00619915

>  <SCORE.RESTR.norm>
0.000119214

>  <SCORE.SYSTEM>
0

>  <SCORE.SYSTEM.CONST>
0

>  <SCORE.SYSTEM.DIHEDRAL>
0

>  <SCORE.SYSTEM.SOLV>
0

>  <SCORE.SYSTEM.norm>
0

>  <SCORE.heavy>
52

>  <SCORE.norm>
-0.391927

>  <RMSD>
9.228

$$$$
2be0_lig
 OpenBabel11021811423D
libRbt.so/2013.1/901 2013/11/27
 52 56  0  0  0  0  0  0  0  0999 V2000
   40.1944    1.6748   -5.7828 C   0  0  2  0  0  0  0  0  0  0  0  0
   39.7658    1.6733   -4.4414 O   0  0  0  0  0  0  0  0  0  0  0  0
   41.5020    2.0010   -0.4104 C   0  0  2  0  0  0  0  0  0  0  0  0
   42.5254    2.0097    0.6723 N   0  0  0  0  0  0  0  0  0  0  0  0
   40.7777    5.4484   -3.3057 C   0  0  2  0  0  0  0  0  0  0  0  0
   39.5705    5.9967   -3.8736 O   0  0  0  0  0  0  0  0  0  0  0  0
   43.0679    7.1282   -7.0423 C   0  0  1  0  0  0  0  0  0  0  0  0
   40.7594    8.0458    0.1956 C   0  0  0  0  0  0  0  0  0  0  0  0
   39.0738    1.1024   -6.7432 C   0  0  2  0  0  0  0  0  0  0  0  0
   37.8251    1.8408   -6.5431 N   0  0  0  0  0  0  0  0  0  0  0  0
   41.5635    0.6020   -1.1766 C   0  0  0  0  0  0  0  0  0  0  0  0
   41.9471    6.2663   -3.8766 C   0  0  2  0  0  0  0  0  0  0  0  0
   42.0300    7.4449   -2.9594 O   0  0  0  0  0  0  0  0  0  0  0  0
   42.3381    6.4793   -8.3415 C   0  0  2  0  0  0  0  0  0  0  0  0
   41.5694    5.2689   -7.9060 N   0  0  0  0  0  0  0  0  0  0  0  0
   39.7953    7.9488   -0.8607 C   0  0  0  0  0  0  0  0  0  0  0  0
   38.4220    8.1767   -0.5825 N   0  0  0  0  0  0  0  0  0  0  0  0
   38.8909   -0.4642   -6.4818 C   0  0  1  0  0  0  0  0  0  0  0  0
   37.8781   -0.9556   -7.3460 O   0  0  0  0  0  0  0  0  0  0  0  0
   40.4635    0.5572   -2.3840 C   0  0  2  0  0  0  0  0  0  0  0  0
   40.5071   -0.6978   -3.0801 N   0  0  0  0  0  0  0  0  0  0  0  0
   41.4258    6.4506   -5.3144 C   0  0  2  0  0  0  0  0  0  0  0  0
   42.0370    7.4658   -6.0969 O   0  0  0  0  0  0  0  0  0  0  0  0
   43.4447    6.0957   -9.3698 C   0  0  1  0  0  0  0  0  0  0  0  0
   44.1181    7.3526   -9.7361 O   0  0  0  0  0  0  0  0  0  0  0  0
   37.9377    8.5018    0.7166 C   0  0  0  0  0  0  0  0  0  0  0  0
   40.2558   -1.1701   -6.7283 C   0  0  2  0  0  0  0  0  0  0  0  0
   40.1497   -2.6310   -6.4966 O   0  0  0  0  0  0  0  0  0  0  0  0
   40.7357    1.7391   -3.4030 C   0  0  2  0  0  0  0  0  0  0  0  0
   39.9025    6.6408   -5.1208 C   0  0  1  0  0  0  0  0  0  0  0  0
   44.4880    5.0440   -8.6979 C   0  0  2  0  0  0  0  0  0  0  0  0
   43.8218    3.7853   -8.3288 O   0  0  0  0  0  0  0  0  0  0  0  0
   38.8439    8.6127    1.7999 C   0  0  0  0  0  0  0  0  0  0  0  0
   41.3584   -0.5864   -5.7634 C   0  0  2  0  0  0  0  0  0  0  0  0
   41.4118    0.8413   -6.0347 O   0  0  0  0  0  0  0  0  0  0  0  0
   40.6750    3.0849   -2.6004 C   0  0  2  0  0  0  0  0  0  0  0  0
   40.9175    4.0632   -3.6041 O   0  0  0  0  0  0  0  0  0  0  0  0
   39.0856    5.9491   -6.2109 C   0  0  0  0  0  0  0  0  0  0  0  0
   39.2860    4.5609   -6.3291 O   0  0  0  0  0  0  0  0  0  0  0  0
   45.1447    5.7035   -7.3992 C   0  0  1  0  0  0  0  0  0  0  0  0
   44.0342    6.1032   -6.4496 O   0  0  0  0  0  0  0  0  0  0  0  0
   40.2879    8.3834    1.5618 C   0  0  0  0  0  0  0  0  0  0  0  0
   42.6259   -1.2744   -6.0569 C   0  0  0  0  0  0  0  0  0  0  0  0
   43.5130   -1.0070   -5.0904 O   0  0  0  0  0  0  0  0  0  0  0  0
   41.7751    3.1067   -1.4574 C   0  0  1  0  0  0  0  0  0  0  0  0
   41.7016    4.3003   -0.7493 O   0  0  0  0  0  0  0  0  0  0  0  0
   42.8032    8.6963   -3.1399 C   0  0  0  0  0  0  0  0  0  0  0  0
   46.1184    4.6544   -6.7968 C   0  0  0  0  0  0  0  0  0  0  0  0
   46.8206    5.2052   -5.6645 N   0  0  0  0  0  0  0  0  0  0  0  0
   42.4593    9.6152   -1.9631 C   0  0  0  0  0  0  0  0  0  0  0  0
   43.0288    9.0428   -0.7003 N   0  0  0  0  0  0  0  0  0  0  0  0
   42.3066    7.7842   -0.1484 C   0  0  0  0  0  0  0  0  0  0  0  0
  1  2  1  1  0  0  0
  1  9  1  0  0  0  0
  1 35  1  0  0  0  0
  3  4  1  1  0  0  0
  3 11  1  0  0  0  0
  3 45  1  0  0  0  0
  5  6  1  0  0  0  0
  5 12  1  0  0  0  0
  5 37  1  6  0  0  0
  6 30  1  0  0  0  0
  7 14  1  0  0  0  0
  7 41  1  0  0  0  0
  7 23  1  1  0  0  0
  8 16  2  0  0  0  0
  8 42  1  0  0  0  0
  9 10  1  1  0  0  0
  9 18  1  0  0  0  0
 11 20  1  0  0  0  0
 12 13  1  1  0  0  0
 12 22  1  0  0  0  0
 13 47  1  0  0  0  0
 14 15  1  1  0  0  0
 14 24  1  0  0  0  0
 16 17  1  0  0  0  0
 17 26  2  0  0  0  0
 18 19  1  6  0  0  0
 18 27  1  0  0  0  0
 20 21  1  6  0  0  0
 20 29  1  0  0  0  0
 22 23  1  1  0  0  0
 22 30  1  0  0  0  0
 24 25  1  1  0  0  0
 24 31  1  0  0  0  0
 26 33  1  0  0  0  0
 27 28  1  1  0  0  0
 27 34  1  0  0  0  0
 29  2  1  6  0  0  0
 29 36  1  0  0  0  0
 30 38  1  6  0  0  0
 31 32  1  1  0  0  0
 31 40  1  0  0  0  0
 33 42  2  0  0  0  0
 34 35  1  0  0  0  0
 34 43  1  6  0  0  0
 36 37  1  6  0  0  0
 36 45  1  0  0  0  0
 38 39  1  0  0  0  0
 40 41  1  0  0  0  0
 40 48  1  1  0  0  0
 43 44  1  0  0  0  0
 45 46  1  1  0  0  0
 47 50  1  0  0  0  0
 48 49  1  0  0  0  0
 50 51  1  0  0  0  0
 51 52  1  0  0  0  0
 52  8  1  0  0  0  0
M  END
>  <CHROM.1>
160.21487381,-105.18982389,76.86297107,-168.06535437,175.87543835,98.54548154
-128.10610877,-57.76337662,-167.62216889,172.07689372,176.28717247,68.83275412
-72.71534630,-59.80258132,84.17393927,41.41777698,4.25946633,-4.36273152
1.59101856,-1.09046780,-2.53735901

>  <Name>
2be0_lig

>  <RI>
2.10017e+07

>  <Rbt.Current_Directory>
/home/itssahil/PROJECTS/Mol_Feturizer/New_Systems/rnas/2be0

>  <Rbt.Executable>
rbdock ($Id: //depot/dev/client3/rdock/2013.1/src/exe/rbdock.cxx#4 $)

>  <Rbt.Library>
libRbt.so (2013.1, Build901 2013/11/27)

>  <Rbt.Parameter_File>
/export/apps/rDock/src/rDock_2013.1_src/data/scripts/dock_solv.prm

>  <Rbt.Receptor>
prm/pocket_docking_3.prm

>  <SCORE>
-9.74637

>  <SCORE.INTER>
-1.94254

>  <SCORE.INTER.CONST>
1

>  <SCORE.INTER.POLAR>
0

>  <SCORE.INTER.ROT>
15

>  <SCORE.INTER.SOLV>
12.1445

>  <SCORE.INTER.VDW>
-18.9432

>  <SCORE.INTER.norm>
-0.0373565

>  <SCORE.INTRA>
-9.94953

>  <SCORE.INTRA.DIHEDRAL>
-23.3899

>  <SCORE.INTRA.DIHEDRAL.0>
47.8724

>  <SCORE.INTRA.POLAR>
0

>  <SCORE.INTRA.POLAR.0>
0

>  <SCORE.INTRA.REPUL>
0

>  <SCORE.INTRA.REPUL.0>
0

>  <SCORE.INTRA.SOLV>
4.90126

>  <SCORE.INTRA.SOLV.lig_0>
-115.677

>  <SCORE.INTRA.VDW>
-0.705225

>  <SCORE.INTRA.VDW.0>
-7.4833

>  <SCORE.INTRA.norm>
-0.191337

>  <SCORE.RESTR>
2.1457

>  <SCORE.RESTR.CAVITY>
2.1457

>  <SCORE.RESTR.norm>
0.0412634

>  <SCORE.SYSTEM>
0

>  <SCORE.SYSTEM.CONST>
0

>  <SCORE.SYSTEM.DIHEDRAL>
0

>  <SCORE.SYSTEM.SOLV>
0

>  <SCORE.SYSTEM.norm>
0

>  <SCORE.heavy>
52

>  <SCORE.norm>
-0.18743

>  <RMSD>
9.252

$$$$
2be0_lig
 OpenBabel11021811423D
libRbt.so/2013.1/901 2013/11/27
 52 56  0  0  0  0  0  0  0  0999 V2000
   40.5541    1.7235   -0.4757 C   0  0  2  0  0  0  0  0  0  0  0  0
   40.3706    1.6928   -1.8715 O   0  0  0  0  0  0  0  0  0  0  0  0
   40.9625   -2.6094   -2.5866 C   0  0  2  0  0  0  0  0  0  0  0  0
   41.0506   -3.9035   -3.3194 N   0  0  0  0  0  0  0  0  0  0  0  0
   43.2096    0.7640   -4.1575 C   0  0  2  0  0  0  0  0  0  0  0  0
   44.2634   -0.1845   -4.4227 O   0  0  0  0  0  0  0  0  0  0  0  0
   47.5355    2.7893   -4.2700 C   0  0  1  0  0  0  0  0  0  0  0  0
   37.1548    1.7028   -6.7175 C   0  0  0  0  0  0  0  0  0  0  0  0
   40.1654    3.1364    0.1227 C   0  0  2  0  0  0  0  0  0  0  0  0
   38.8020    3.4872   -0.2806 N   0  0  0  0  0  0  0  0  0  0  0  0
   39.5216   -1.9674   -2.8311 C   0  0  0  0  0  0  0  0  0  0  0  0
   43.7396    2.1441   -4.5781 C   0  0  2  0  0  0  0  0  0  0  0  0
   43.4449    2.2000   -6.0435 O   0  0  0  0  0  0  0  0  0  0  0  0
   48.3000    4.0941   -4.8655 C   0  0  2  0  0  0  0  0  0  0  0  0
   48.0969    4.1341   -6.3497 N   0  0  0  0  0  0  0  0  0  0  0  0
   36.7501    0.4308   -6.1948 C   0  0  0  0  0  0  0  0  0  0  0  0
   35.6091   -0.2198   -6.7330 N   0  0  0  0  0  0  0  0  0  0  0  0
   41.2296    4.2316   -0.3503 C   0  0  1  0  0  0  0  0  0  0  0  0
   40.8593    5.4907    0.1899 O   0  0  0  0  0  0  0  0  0  0  0  0
   39.3889   -0.5362   -2.0538 C   0  0  2  0  0  0  0  0  0  0  0  0
   38.0957    0.0510   -2.2640 N   0  0  0  0  0  0  0  0  0  0  0  0
   45.1947    1.9948   -4.0951 C   0  0  2  0  0  0  0  0  0  0  0  0
   46.1436    2.9161   -4.6121 O   0  0  0  0  0  0  0  0  0  0  0  0
   49.8128    3.9638   -4.5140 C   0  0  1  0  0  0  0  0  0  0  0  0
   49.8930    3.9508   -3.0441 O   0  0  0  0  0  0  0  0  0  0  0  0
   34.8254    0.3335   -7.7855 C   0  0  0  0  0  0  0  0  0  0  0  0
   42.6425    3.7885    0.1290 C   0  0  2  0  0  0  0  0  0  0  0  0
   43.6769    4.7671   -0.2853 O   0  0  0  0  0  0  0  0  0  0  0  0
   40.5122    0.4579   -2.5630 C   0  0  2  0  0  0  0  0  0  0  0  0
   45.5245    0.5153   -4.4058 C   0  0  1  0  0  0  0  0  0  0  0  0
   50.4151    2.5921   -5.1478 C   0  0  2  0  0  0  0  0  0  0  0  0
   50.3378    2.5979   -6.6170 O   0  0  0  0  0  0  0  0  0  0  0  0
   35.1775    1.5875   -8.3428 C   0  0  0  0  0  0  0  0  0  0  0  0
   43.0113    2.3798   -0.4767 C   0  0  2  0  0  0  0  0  0  0  0  0
   41.9637    1.4704   -0.0405 O   0  0  0  0  0  0  0  0  0  0  0  0
   41.9022   -0.2228   -2.3105 C   0  0  2  0  0  0  0  0  0  0  0  0
   42.8229    0.7511   -2.7872 O   0  0  0  0  0  0  0  0  0  0  0  0
   46.3791   -0.1322   -3.3174 C   0  0  0  0  0  0  0  0  0  0  0  0
   46.7830   -1.4563   -3.5722 O   0  0  0  0  0  0  0  0  0  0  0  0
   49.6043    1.3408   -4.5736 C   0  0  1  0  0  0  0  0  0  0  0  0
   48.1363    1.5309   -4.8954 O   0  0  0  0  0  0  0  0  0  0  0  0
   36.3597    2.3075   -7.8153 C   0  0  0  0  0  0  0  0  0  0  0  0
   44.3427    2.0058    0.0269 C   0  0  0  0  0  0  0  0  0  0  0  0
   44.8526    1.0333   -0.7392 O   0  0  0  0  0  0  0  0  0  0  0  0
   42.0081   -1.5931   -3.1034 C   0  0  1  0  0  0  0  0  0  0  0  0
   43.2404   -2.1885   -2.8613 O   0  0  0  0  0  0  0  0  0  0  0  0
   42.2301    1.7357   -6.7542 C   0  0  0  0  0  0  0  0  0  0  0  0
   50.2134    0.0666   -5.2193 C   0  0  0  0  0  0  0  0  0  0  0  0
   51.0593   -0.6243   -4.2781 N   0  0  0  0  0  0  0  0  0  0  0  0
   41.0327    2.4496   -6.1187 C   0  0  0  0  0  0  0  0  0  0  0  0
   39.7713    2.0092   -6.7983 N   0  0  0  0  0  0  0  0  0  0  0  0
   38.4506    2.4154   -6.0904 C   0  0  0  0  0  0  0  0  0  0  0  0
  1  2  1  6  0  0  0
  1  9  1  0  0  0  0
  1 35  1  0  0  0  0
  3  4  1  6  0  0  0
  3 11  1  0  0  0  0
  3 45  1  0  0  0  0
  5  6  1  0  0  0  0
  5 12  1  0  0  0  0
  5 37  1  1  0  0  0
  6 30  1  0  0  0  0
  7 14  1  0  0  0  0
  7 41  1  0  0  0  0
  7 23  1  6  0  0  0
  8 16  2  0  0  0  0
  8 42  1  0  0  0  0
  9 10  1  6  0  0  0
  9 18  1  0  0  0  0
 11 20  1  0  0  0  0
 12 13  1  6  0  0  0
 12 22  1  0  0  0  0
 13 47  1  0  0  0  0
 14 15  1  6  0  0  0
 14 24  1  0  0  0  0
 16 17  1  0  0  0  0
 17 26  2  0  0  0  0
 18 19  1  1  0  0  0
 18 27  1  0  0  0  0
 20 21  1  6  0  0  0
 20 29  1  0  0  0  0
 22 23  1  6  0  0  0
 22 30  1  0  0  0  0
 24 25  1  1  0  0  0
 24 31  1  0  0  0  0
 26 33  1  0  0  0  0
 27 28  1  6  0  0  0
 27 34  1  0  0  0  0
 29  2  1  1  0  0  0
 29 36  1  0  0  0  0
 30 38  1  1  0  0  0
 31 32  1  6  0  0  0
 31 40  1  0  0  0  0
 33 42  2  0  0  0  0
 34 35  1  0  0  0  0
 34 43  1  1  0  0  0
 36 37  1  6  0  0  0
 36 45  1  0  0  0  0
 38 39  1  0  0  0  0
 40 41  1  0  0  0  0
 40 48  1  6  0  0  0
 43 44  1  0  0  0  0
 45 46  1  1  0  0  0
 47 50  1  0  0  0  0
 48 49  1  0  0  0  0
 50 51  1  0  0  0  0
 51 52  1  0  0  0  0
 52  8  1  0  0  0  0
M  END
>  <CHROM.1>
-172.39384662,-82.68797390,-172.95193472,40.82495124,56.09932709,-176.25709958
63.62902809,67.30572619,-162.39126361,-87.93102351,103.48434399,-179.71088484
168.08883860,-169.90596282,89.03732963,43.12449201,1.41941855,-3.67768564
3.09566469,-0.09341247,-1.81235879

>  <Name>
2be0_lig

>  <RI>
0

>  <Rbt.Current_Directory>
/home/itssahil/PROJECTS/Mol_Feturizer/New_Systems/rnas/2be0

>  <Rbt.Executable>
rbdock ($Id: //depot/dev/client3/rdock/2013.1/src/exe/rbdock.cxx#4 $)

>  <Rbt.Library>
libRbt.so (2013.1, Build901 2013/11/27)

>  <Rbt.Parameter_File>
/export/apps/rDock/src/rDock_2013.1_src/data/scripts/dock_solv.prm

>  <Rbt.Receptor>
prm/pocket_docking_6.prm

>  <SCORE>
-23.7061

>  <SCORE.INTER>
-8.03031

>  <SCORE.INTER.CONST>
1

>  <SCORE.INTER.POLAR>
-0.894427

>  <SCORE.INTER.ROT>
15

>  <SCORE.INTER.SOLV>
15.8626

>  <SCORE.INTER.VDW>
-21.2596

>  <SCORE.INTER.norm>
-0.154429

>  <SCORE.INTRA>
-15.6758

>  <SCORE.INTRA.DIHEDRAL>
-33.2305

>  <SCORE.INTRA.DIHEDRAL.0>
47.8724

>  <SCORE.INTRA.POLAR>
0

>  <SCORE.INTRA.POLAR.0>
0

>  <SCORE.INTRA.REPUL>
0

>  <SCORE.INTRA.REPUL.0>
0

>  <SCORE.INTRA.SOLV>
-2.03806

>  <SCORE.INTRA.SOLV.lig_0>
-115.677

>  <SCORE.INTRA.VDW>
1.95846

>  <SCORE.INTRA.VDW.0>
-7.4833

>  <SCORE.INTRA.norm>
-0.301458

>  <SCORE.RESTR>
0

>  <SCORE.RESTR.CAVITY>
0

>  <SCORE.RESTR.norm>
0

>  <SCORE.SYSTEM>
0

>  <SCORE.SYSTEM.CONST>
0

>  <SCORE.SYSTEM.DIHEDRAL>
0

>  <SCORE.SYSTEM.SOLV>
0

>  <SCORE.SYSTEM.norm>
0

>  <SCORE.heavy>
52

>  <SCORE.norm>
-0.455887

>  <RMSD>
9.261

$$$$
2be0_lig
 OpenBabel11021811423D
libRbt.so/2013.1/901 2013/11/27
 52 56  0  0  0  0  0  0  0  0999 V2000
   42.2968    4.0555   -3.7368 C   0  0  2  0  0  0  0  0  0  0  0  0
   42.6695    3.1368   -2.7368 O   0  0  0  0  0  0  0  0  0  0  0  0
   40.4361    0.4682   -0.0422 C   0  0  2  0  0  0  0  0  0  0  0  0
   39.4403    0.0248    0.9734 N   0  0  0  0  0  0  0  0  0  0  0  0
   40.8573    1.9787   -4.7946 C   0  0  2  0  0  0  0  0  0  0  0  0
   40.0046    2.4446   -5.8605 O   0  0  0  0  0  0  0  0  0  0  0  0
   40.5065   -2.3158   -5.9517 C   0  0  1  0  0  0  0  0  0  0  0  0
   44.9673    2.9622  -10.0070 C   0  0  0  0  0  0  0  0  0  0  0  0
   43.5655    4.6289   -4.4900 C   0  0  2  0  0  0  0  0  0  0  0  0
   44.3773    3.5242   -5.0050 N   0  0  0  0  0  0  0  0  0  0  0  0
   41.3319    1.6345    0.5787 C   0  0  0  0  0  0  0  0  0  0  0  0
   41.2197    0.5213   -5.1221 C   0  0  2  0  0  0  0  0  0  0  0  0
   42.3992    0.6506   -6.0329 O   0  0  0  0  0  0  0  0  0  0  0  0
   40.0450   -3.5577   -6.8931 C   0  0  2  0  0  0  0  0  0  0  0  0
   38.5530   -3.6816   -6.8276 N   0  0  0  0  0  0  0  0  0  0  0  0
   43.8373    3.2788  -10.8303 C   0  0  0  0  0  0  0  0  0  0  0  0
   44.0406    3.7182  -12.1647 N   0  0  0  0  0  0  0  0  0  0  0  0
   44.3964    5.5719   -3.5020 C   0  0  1  0  0  0  0  0  0  0  0  0
   45.5319    6.0689   -4.1931 O   0  0  0  0  0  0  0  0  0  0  0  0
   42.4302    2.1598   -0.5111 C   0  0  2  0  0  0  0  0  0  0  0  0
   43.2444    3.2081    0.0361 N   0  0  0  0  0  0  0  0  0  0  0  0
   39.8624    0.0626   -5.6880 C   0  0  2  0  0  0  0  0  0  0  0  0
   39.8533   -1.1349   -6.4511 O   0  0  0  0  0  0  0  0  0  0  0  0
   40.7348   -4.8476   -6.3552 C   0  0  1  0  0  0  0  0  0  0  0  0
   42.1840   -4.6213   -6.4815 O   0  0  0  0  0  0  0  0  0  0  0  0
   45.3332    3.8671  -12.7436 C   0  0  0  0  0  0  0  0  0  0  0  0
   43.4662    6.7205   -3.0146 C   0  0  2  0  0  0  0  0  0  0  0  0
   44.1829    7.6297   -2.0879 O   0  0  0  0  0  0  0  0  0  0  0  0
   41.6901    2.6855   -1.8093 C   0  0  2  0  0  0  0  0  0  0  0  0
   39.3607    1.3036   -6.4640 C   0  0  1  0  0  0  0  0  0  0  0  0
   40.3120   -5.0994   -4.8047 C   0  0  2  0  0  0  0  0  0  0  0  0
   38.8646   -5.3260   -4.6708 O   0  0  0  0  0  0  0  0  0  0  0  0
   46.4874    3.5679  -11.9786 C   0  0  0  0  0  0  0  0  0  0  0  0
   42.2089    6.1298   -2.2678 C   0  0  2  0  0  0  0  0  0  0  0  0
   41.5545    5.2489   -3.2221 O   0  0  0  0  0  0  0  0  0  0  0  0
   40.8188    1.5090   -2.3713 C   0  0  2  0  0  0  0  0  0  0  0  0
   40.2188    2.0832   -3.5262 O   0  0  0  0  0  0  0  0  0  0  0  0
   37.8544    1.5128   -6.3176 C   0  0  0  0  0  0  0  0  0  0  0  0
   37.3464    2.6880   -6.9027 O   0  0  0  0  0  0  0  0  0  0  0  0
   40.7400   -3.8358   -3.9255 C   0  0  1  0  0  0  0  0  0  0  0  0
   40.0867   -2.6004   -4.5100 O   0  0  0  0  0  0  0  0  0  0  0  0
   46.3289    3.1063  -10.5800 C   0  0  0  0  0  0  0  0  0  0  0  0
   41.3597    7.2573   -1.8512 C   0  0  0  0  0  0  0  0  0  0  0  0
   40.3490    6.8013   -1.1007 O   0  0  0  0  0  0  0  0  0  0  0  0
   39.7444    1.0450   -1.3000 C   0  0  1  0  0  0  0  0  0  0  0  0
   38.9879   -0.0039   -1.8089 O   0  0  0  0  0  0  0  0  0  0  0  0
   43.2124   -0.4289   -6.6410 C   0  0  0  0  0  0  0  0  0  0  0  0
   40.3032   -4.1271   -2.4641 C   0  0  0  0  0  0  0  0  0  0  0  0
   41.0537   -5.2317   -1.9208 N   0  0  0  0  0  0  0  0  0  0  0  0
   44.4614    0.2268   -7.2390 C   0  0  0  0  0  0  0  0  0  0  0  0
   44.0709    1.0520   -8.4278 N   0  0  0  0  0  0  0  0  0  0  0  0
   44.7075    2.4660   -8.5015 C   0  0  0  0  0  0  0  0  0  0  0  0
  1  2  1  1  0  0  0
  1  9  1  0  0  0  0
  1 35  1  0  0  0  0
  3  4  1  1  0  0  0
  3 11  1  0  0  0  0
  3 45  1  0  0  0  0
  5  6  1  0  0  0  0
  5 12  1  0  0  0  0
  5 37  1  1  0  0  0
  6 30  1  0  0  0  0
  7 14  1  0  0  0  0
  7 41  1  0  0  0  0
  7 23  1  6  0  0  0
  8 16  2  0  0  0  0
  8 42  1  0  0  0  0
  9 10  1  1  0  0  0
  9 18  1  0  0  0  0
 11 20  1  0  0  0  0
 12 13  1  6  0  0  0
 12 22  1  0  0  0  0
 13 47  1  0  0  0  0
 14 15  1  1  0  0  0
 14 24  1  0  0  0  0
 16 17  1  0  0  0  0
 17 26  2  0  0  0  0
 18 19  1  6  0  0  0
 18 27  1  0  0  0  0
 20 21  1  1  0  0  0
 20 29  1  0  0  0  0
 22 23  1  6  0  0  0
 22 30  1  0  0  0  0
 24 25  1  1  0  0  0
 24 31  1  0  0  0  0
 26 33  1  0  0  0  0
 27 28  1  1  0  0  0
 27 34  1  0  0  0  0
 29  2  1  6  0  0  0
 29 36  1  0  0  0  0
 30 38  1  1  0  0  0
 31 32  1  6  0  0  0
 31 40  1  0  0  0  0
 33 42  2  0  0  0  0
 34 35  1  0  0  0  0
 34 43  1  6  0  0  0
 36 37  1  6  0  0  0
 36 45  1  0  0  0  0
 38 39  1  0  0  0  0
 40 41  1  0  0  0  0
 40 48  1  1  0  0  0
 43 44  1  0  0  0  0
 45 46  1  6  0  0  0
 47 50  1  0  0  0  0
 48 49  1  0  0  0  0
 50 51  1  0  0  0  0
 51 52  1  0  0  0  0
 52  8  1  0  0  0  0
M  END
>  <CHROM.1>
169.63814996,171.41640050,168.23800947,177.77778486,-168.28351061,48.39746970
-157.93057754,58.51669295,-174.02336224,90.88151097,66.08843025,-69.40074529
134.75427876,147.77716952,69.51717384,41.75991508,1.35404317,-4.84774695
0.54635145,1.07097169,0.81542092

>  <Name>
2be0_lig

>  <RI>
0

>  <Rbt.Current_Directory>
/home/itssahil/PROJECTS/Mol_Feturizer/New_Systems/rnas/2be0

>  <Rbt.Executable>
rbdock ($Id: //depot/dev/client3/rdock/2013.1/src/exe/rbdock.cxx#4 $)

>  <Rbt.Library>
libRbt.so (2013.1, Build901 2013/11/27)

>  <Rbt.Parameter_File>
/export/apps/rDock/src/rDock_2013.1_src/data/scripts/dock_solv.prm

>  <Rbt.Receptor>
prm/pocket_docking_6.prm

>  <SCORE>
-15.5871

>  <SCORE.INTER>
-0.150335

>  <SCORE.INTER.CONST>
1

>  <SCORE.INTER.POLAR>
-0.832908

>  <SCORE.INTER.ROT>
15

>  <SCORE.INTER.SOLV>
12.3358

>  <SCORE.INTER.VDW>
-15.0358

>  <SCORE.INTER.norm>
-0.00289105

>  <SCORE.INTRA>
-15.4368

>  <SCORE.INTRA.DIHEDRAL>
-35.6102

>  <SCORE.INTRA.DIHEDRAL.0>
47.8724

>  <SCORE.INTRA.POLAR>
0

>  <SCORE.INTRA.POLAR.0>
0

>  <SCORE.INTRA.REPUL>
0.136265

>  <SCORE.INTRA.REPUL.0>
0

>  <SCORE.INTRA.SOLV>
-1.27111

>  <SCORE.INTRA.SOLV.lig_0>
-115.677

>  <SCORE.INTRA.VDW>
2.32259

>  <SCORE.INTRA.VDW.0>
-7.4833

>  <SCORE.INTRA.norm>
-0.296861

>  <SCORE.RESTR>
0

>  <SCORE.RESTR.CAVITY>
0

>  <SCORE.RESTR.norm>
0

>  <SCORE.SYSTEM>
0

>  <SCORE.SYSTEM.CONST>
0

>  <SCORE.SYSTEM.DIHEDRAL>
0

>  <SCORE.SYSTEM.SOLV>
0

>  <SCORE.SYSTEM.norm>
0

>  <SCORE.heavy>
52

>  <SCORE.norm>
-0.299752

>  <RMSD>
9.264

$$$$
2be0_lig
 OpenBabel11021811423D
libRbt.so/2013.1/901 2013/11/27
 52 56  0  0  0  0  0  0  0  0999 V2000
   43.2469    6.4910    1.0402 C   0  0  2  0  0  0  0  0  0  0  0  0
   43.4565    6.7518   -0.3276 O   0  0  0  0  0  0  0  0  0  0  0  0
   40.2840    9.7137   -1.0576 C   0  0  2  0  0  0  0  0  0  0  0  0
   39.5398   10.8321   -1.7017 N   0  0  0  0  0  0  0  0  0  0  0  0
   42.4916    6.2780   -3.1714 C   0  0  2  0  0  0  0  0  0  0  0  0
   41.9861    6.6827   -4.4602 O   0  0  0  0  0  0  0  0  0  0  0  0
   42.7303    1.8924   -4.4091 C   0  0  1  0  0  0  0  0  0  0  0  0
   44.4310    8.2809   -8.9588 C   0  0  0  0  0  0  0  0  0  0  0  0
   42.9449    4.9576    1.2918 C   0  0  2  0  0  0  0  0  0  0  0  0
   44.0138    4.1407    0.7132 N   0  0  0  0  0  0  0  0  0  0  0  0
   41.7479   10.2164   -0.6671 C   0  0  0  0  0  0  0  0  0  0  0  0
   43.1445    4.9000   -3.3644 C   0  0  2  0  0  0  0  0  0  0  0  0
   44.5293    5.2306   -3.8232 O   0  0  0  0  0  0  0  0  0  0  0  0
   42.4154    0.7162   -5.4856 C   0  0  2  0  0  0  0  0  0  0  0  0
   41.0099    0.8803   -5.9790 N   0  0  0  0  0  0  0  0  0  0  0  0
   43.2059    8.3872   -9.6955 C   0  0  0  0  0  0  0  0  0  0  0  0
   43.1131    9.3013  -10.7776 N   0  0  0  0  0  0  0  0  0  0  0  0
   41.5130    4.5855    0.6860 C   0  0  1  0  0  0  0  0  0  0  0  0
   41.2651    3.2070    0.9150 O   0  0  0  0  0  0  0  0  0  0  0  0
   42.6037    9.0123    0.0310 C   0  0  2  0  0  0  0  0  0  0  0  0
   43.9225    9.4525    0.3893 N   0  0  0  0  0  0  0  0  0  0  0  0
   42.1329    4.2969   -4.3571 C   0  0  2  0  0  0  0  0  0  0  0  0
   42.5481    3.1500   -5.0842 O   0  0  0  0  0  0  0  0  0  0  0  0
   42.5957   -0.6534   -4.7640 C   0  0  1  0  0  0  0  0  0  0  0  0
   44.0044   -0.7118   -4.3404 O   0  0  0  0  0  0  0  0  0  0  0  0
   44.1925   10.1385  -11.1801 C   0  0  0  0  0  0  0  0  0  0  0  0
   40.4397    5.4873    1.3621 C   0  0  2  0  0  0  0  0  0  0  0  0
   39.0856    5.1898    0.8358 O   0  0  0  0  0  0  0  0  0  0  0  0
   42.7063    7.7812   -0.9607 C   0  0  2  0  0  0  0  0  0  0  0  0
   41.7484    5.4999   -5.2509 C   0  0  1  0  0  0  0  0  0  0  0  0
   41.5932   -0.7452   -3.4863 C   0  0  2  0  0  0  0  0  0  0  0  0
   40.1832   -0.6870   -3.9022 O   0  0  0  0  0  0  0  0  0  0  0  0
   45.4283   10.0767  -10.4902 C   0  0  0  0  0  0  0  0  0  0  0  0
   40.7578    7.0098    1.1009 C   0  0  2  0  0  0  0  0  0  0  0  0
   42.0922    7.2364    1.6329 O   0  0  0  0  0  0  0  0  0  0  0  0
   41.2466    7.3347   -1.3199 C   0  0  2  0  0  0  0  0  0  0  0  0
   41.4588    6.2314   -2.1922 O   0  0  0  0  0  0  0  0  0  0  0  0
   40.2659    5.5013   -5.6204 C   0  0  0  0  0  0  0  0  0  0  0  0
   39.3773    5.7530   -4.5582 O   0  0  0  0  0  0  0  0  0  0  0  0
   41.9047    0.4556   -2.4793 C   0  0  1  0  0  0  0  0  0  0  0  0
   41.7642    1.7626   -3.2321 O   0  0  0  0  0  0  0  0  0  0  0  0
   45.5759    9.1393   -9.3527 C   0  0  0  0  0  0  0  0  0  0  0  0
   39.7256    7.8100    1.7795 C   0  0  0  0  0  0  0  0  0  0  0  0
   40.0510    9.1070    1.7127 O   0  0  0  0  0  0  0  0  0  0  0  0
   40.4553    8.5168   -2.0227 C   0  0  1  0  0  0  0  0  0  0  0  0
   39.1615    8.1091   -2.3251 O   0  0  0  0  0  0  0  0  0  0  0  0
   44.9590    5.7587   -5.1395 C   0  0  0  0  0  0  0  0  0  0  0  0
   40.9144    0.3233   -1.2905 C   0  0  0  0  0  0  0  0  0  0  0  0
   40.7918   -1.0543   -0.8831 N   0  0  0  0  0  0  0  0  0  0  0  0
   44.6215    7.2531   -5.1602 C   0  0  0  0  0  0  0  0  0  0  0  0
   45.1023    7.8553   -6.4459 N   0  0  0  0  0  0  0  0  0  0  0  0
   44.5079    7.2373   -7.7401 C   0  0  0  0  0  0  0  0  0  0  0  0
  1  2  1  6  0  0  0
  1  9  1  0  0  0  0
  1 35  1  0  0  0  0
  3  4  1  6  0  0  0
  3 11  1  0  0  0  0
  3 45  1  0  0  0  0
  5  6  1  0  0  0  0
  5 12  1  0  0  0  0
  5 37  1  1  0  0  0
  6 30  1  0  0  0  0
  7 14  1  0  0  0  0
  7 41  1  0  0  0  0
  7 23  1  6  0  0  0
  8 16  2  0  0  0  0
  8 42  1  0  0  0  0
  9 10  1  6  0  0  0
  9 18  1  0  0  0  0
 11 20  1  0  0  0  0
 12 13  1  6  0  0  0
 12 22  1  0  0  0  0
 13 47  1  0  0  0  0
 14 15  1  1  0  0  0
 14 24  1  0  0  0  0
 16 17  1  0  0  0  0
 17 26  2  0  0  0  0
 18 19  1  1  0  0  0
 18 27  1  0  0  0  0
 20 21  1  6  0  0  0
 20 29  1  0  0  0  0
 22 23  1  6  0  0  0
 22 30  1  0  0  0  0
 24 25  1  1  0  0  0
 24 31  1  0  0  0  0
 26 33  1  0  0  0  0
 27 28  1  6  0  0  0
 27 34  1  0  0  0  0
 29  2  1  1  0  0  0
 29 36  1  0  0  0  0
 30 38  1  1  0  0  0
 31 32  1  6  0  0  0
 31 40  1  0  0  0  0
 33 42  2  0  0  0  0
 34 35  1  0  0  0  0
 34 43  1  1  0  0  0
 36 37  1  6  0  0  0
 36 45  1  0  0  0  0
 38 39  1  0  0  0  0
 40 41  1  0  0  0  0
 40 48  1  1  0  0  0
 43 44  1  0  0  0  0
 45 46  1  1  0  0  0
 47 50  1  0  0  0  0
 48 49  1  0  0  0  0
 50 51  1  0  0  0  0
 51 52  1  0  0  0  0
 52  8  1  0  0  0  0
M  END
>  <CHROM.1>
127.42557190,-96.56539788,150.38759998,-72.49012434,77.09396519,69.34619641
40.54555706,-47.63729898,172.75062856,-40.59498081,42.45055743,177.03154582
59.11428873,151.19604913,-131.80528793,42.17197533,5.57518333,-3.09006293
2.92166736,-1.27883458,-2.94614418

>  <Name>
2be0_lig

>  <RI>
0

>  <Rbt.Current_Directory>
/home/itssahil/PROJECTS/Mol_Feturizer/New_Systems/rnas/2be0

>  <Rbt.Executable>
rbdock ($Id: //depot/dev/client3/rdock/2013.1/src/exe/rbdock.cxx#4 $)

>  <Rbt.Library>
libRbt.so (2013.1, Build901 2013/11/27)

>  <Rbt.Parameter_File>
/export/apps/rDock/src/rDock_2013.1_src/data/scripts/dock_solv.prm

>  <Rbt.Receptor>
prm/pocket_docking_2.prm

>  <SCORE>
9.25862

>  <SCORE.INTER>
-5.35117

>  <SCORE.INTER.CONST>
1

>  <SCORE.INTER.POLAR>
-1.07419

>  <SCORE.INTER.ROT>
15

>  <SCORE.INTER.SOLV>
24.3379

>  <SCORE.INTER.VDW>
-21.6994

>  <SCORE.INTER.norm>
-0.102907

>  <SCORE.INTRA>
4.59929

>  <SCORE.INTRA.DIHEDRAL>
-23.1923

>  <SCORE.INTRA.DIHEDRAL.0>
47.8724

>  <SCORE.INTRA.POLAR>
0

>  <SCORE.INTRA.POLAR.0>
0

>  <SCORE.INTRA.REPUL>
0

>  <SCORE.INTRA.REPUL.0>
0

>  <SCORE.INTRA.SOLV>
2.04235

>  <SCORE.INTRA.SOLV.lig_0>
-115.677

>  <SCORE.INTRA.VDW>
15.1742

>  <SCORE.INTRA.VDW.0>
-7.4833

>  <SCORE.INTRA.norm>
0.0884479

>  <SCORE.RESTR>
10.0105

>  <SCORE.RESTR.CAVITY>
10.0105

>  <SCORE.RESTR.norm>
0.19251

>  <SCORE.SYSTEM>
0

>  <SCORE.SYSTEM.CONST>
0

>  <SCORE.SYSTEM.DIHEDRAL>
0

>  <SCORE.SYSTEM.SOLV>
0

>  <SCORE.SYSTEM.norm>
0

>  <SCORE.heavy>
52

>  <SCORE.norm>
0.17805

>  <RMSD>
9.266

$$$$
2be0_lig
 OpenBabel11021811423D
libRbt.so/2013.1/901 2013/11/27
 52 56  0  0  0  0  0  0  0  0999 V2000
   38.3365    1.0151   -8.3949 C   0  0  2  0  0  0  0  0  0  0  0  0
   37.6044    0.0073   -7.7383 O   0  0  0  0  0  0  0  0  0  0  0  0
   37.0612   -0.5462   -3.4059 C   0  0  2  0  0  0  0  0  0  0  0  0
   37.3694   -0.9189   -1.9968 N   0  0  0  0  0  0  0  0  0  0  0  0
   38.5078    3.2580   -5.5037 C   0  0  2  0  0  0  0  0  0  0  0  0
   39.0985    4.1654   -6.4565 O   0  0  0  0  0  0  0  0  0  0  0  0
   42.8984    4.7009   -4.4212 C   0  0  1  0  0  0  0  0  0  0  0  0
   40.7096    5.3672    2.1030 C   0  0  0  0  0  0  0  0  0  0  0  0
   38.1173    0.9547   -9.9615 C   0  0  2  0  0  0  0  0  0  0  0  0
   36.6851    1.0020  -10.2635 N   0  0  0  0  0  0  0  0  0  0  0  0
   37.2542   -1.8267   -4.3394 C   0  0  0  0  0  0  0  0  0  0  0  0
   39.2689    3.4465   -4.1817 C   0  0  2  0  0  0  0  0  0  0  0  0
   38.5716    4.6032   -3.5388 O   0  0  0  0  0  0  0  0  0  0  0  0
   43.8546    5.0721   -3.1605 C   0  0  2  0  0  0  0  0  0  0  0  0
   43.1580    6.0934   -2.3135 N   0  0  0  0  0  0  0  0  0  0  0  0
   39.6210    5.3904    3.0353 C   0  0  0  0  0  0  0  0  0  0  0  0
   39.8013    5.9835    4.3123 N   0  0  0  0  0  0  0  0  0  0  0  0
   38.8098   -0.3603  -10.5507 C   0  0  1  0  0  0  0  0  0  0  0  0
   38.5955   -0.3993  -11.9531 O   0  0  0  0  0  0  0  0  0  0  0  0
   36.9389   -1.4557   -5.8991 C   0  0  2  0  0  0  0  0  0  0  0  0
   37.1068   -2.6003   -6.7494 N   0  0  0  0  0  0  0  0  0  0  0  0
   40.6885    3.6290   -4.7511 C   0  0  2  0  0  0  0  0  0  0  0  0
   41.6629    4.1933   -3.8859 O   0  0  0  0  0  0  0  0  0  0  0  0
   45.1929    5.6367   -3.7254 C   0  0  1  0  0  0  0  0  0  0  0  0
   45.7928    4.5525   -4.5204 O   0  0  0  0  0  0  0  0  0  0  0  0
   41.0312    6.5683    4.7289 C   0  0  0  0  0  0  0  0  0  0  0  0
   40.3250   -0.3229  -10.1970 C   0  0  2  0  0  0  0  0  0  0  0  0
   41.0231   -1.5239  -10.7160 O   0  0  0  0  0  0  0  0  0  0  0  0
   37.9005   -0.2921   -6.3796 C   0  0  2  0  0  0  0  0  0  0  0  0
   40.4527    4.4441   -6.0450 C   0  0  1  0  0  0  0  0  0  0  0  0
   44.9004    6.9467   -4.6442 C   0  0  2  0  0  0  0  0  0  0  0  0
   44.3003    8.0346   -3.8562 O   0  0  0  0  0  0  0  0  0  0  0  0
   42.1421    6.5760    3.8498 C   0  0  0  0  0  0  0  0  0  0  0  0
   40.5227   -0.2624   -8.6334 C   0  0  2  0  0  0  0  0  0  0  0  0
   39.8161    0.9276   -8.1868 O   0  0  0  0  0  0  0  0  0  0  0  0
   37.6800    0.9335   -5.4265 C   0  0  2  0  0  0  0  0  0  0  0  0
   38.5723    1.9083   -5.9528 O   0  0  0  0  0  0  0  0  0  0  0  0
   41.3656    4.0014   -7.1873 C   0  0  0  0  0  0  0  0  0  0  0  0
   41.2318    4.7274   -8.3857 O   0  0  0  0  0  0  0  0  0  0  0  0
   43.9196    6.5480   -5.8408 C   0  0  1  0  0  0  0  0  0  0  0  0
   42.6541    5.9617   -5.2498 O   0  0  0  0  0  0  0  0  0  0  0  0
   42.0054    5.9686    2.5057 C   0  0  0  0  0  0  0  0  0  0  0  0
   41.9683   -0.2074   -8.3626 C   0  0  0  0  0  0  0  0  0  0  0  0
   42.1791   -0.3022   -7.0437 O   0  0  0  0  0  0  0  0  0  0  0  0
   38.0242    0.5469   -3.9266 C   0  0  1  0  0  0  0  0  0  0  0  0
   37.8141    1.6395   -3.0938 O   0  0  0  0  0  0  0  0  0  0  0  0
   38.8672    5.2446   -2.2359 C   0  0  0  0  0  0  0  0  0  0  0  0
   43.6684    7.8346   -6.6735 C   0  0  0  0  0  0  0  0  0  0  0  0
   44.8999    8.5567   -6.8755 N   0  0  0  0  0  0  0  0  0  0  0  0
   38.7230    4.1665   -1.1569 C   0  0  0  0  0  0  0  0  0  0  0  0
   39.0011    4.7666    0.1882 N   0  0  0  0  0  0  0  0  0  0  0  0
   40.4766    4.6908    0.6648 C   0  0  0  0  0  0  0  0  0  0  0  0
  1  2  1  1  0  0  0
  1  9  1  0  0  0  0
  1 35  1  0  0  0  0
  3  4  1  1  0  0  0
  3 11  1  0  0  0  0
  3 45  1  0  0  0  0
  5  6  1  0  0  0  0
  5 12  1  0  0  0  0
  5 37  1  6  0  0  0
  6 30  1  0  0  0  0
  7 14  1  0  0  0  0
  7 41  1  0  0  0  0
  7 23  1  1  0  0  0
  8 16  2  0  0  0  0
  8 42  1  0  0  0  0
  9 10  1  1  0  0  0
  9 18  1  0  0  0  0
 11 20  1  0  0  0  0
 12 13  1  6  0  0  0
 12 22  1  0  0  0  0
 13 47  1  0  0  0  0
 14 15  1  1  0  0  0
 14 24  1  0  0  0  0
 16 17  1  0  0  0  0
 17 26  2  0  0  0  0
 18 19  1  6  0  0  0
 18 27  1  0  0  0  0
 20 21  1  6  0  0  0
 20 29  1  0  0  0  0
 22 23  1  1  0  0  0
 22 30  1  0  0  0  0
 24 25  1  6  0  0  0
 24 31  1  0  0  0  0
 26 33  1  0  0  0  0
 27 28  1  1  0  0  0
 27 34  1  0  0  0  0
 29  2  1  6  0  0  0
 29 36  1  0  0  0  0
 30 38  1  6  0  0  0
 31 32  1  1  0  0  0
 31 40  1  0  0  0  0
 33 42  2  0  0  0  0
 34 35  1  0  0  0  0
 34 43  1  6  0  0  0
 36 37  1  6  0  0  0
 36 45  1  0  0  0  0
 38 39  1  0  0  0  0
 40 41  1  0  0  0  0
 40 48  1  1  0  0  0
 43 44  1  0  0  0  0
 45 46  1  1  0  0  0
 47 50  1  0  0  0  0
 48 49  1  0  0  0  0
 50 51  1  0  0  0  0
 51 52  1  0  0  0  0
 52  8  1  0  0  0  0
M  END
>  <CHROM.1>
165.97152422,-158.42305362,-172.16396537,-179.93501677,-59.47301010,-164.52692250
-179.84221283,65.49814946,-173.31380989,169.10856022,43.59980940,-179.52991094
-91.16243740,179.26993732,28.33633873,40.35919339,3.04318010,-4.75720652
1.93535654,-0.76139170,-1.91722341

>  <Name>
2be0_lig

>  <RI>
2.75444e+07

>  <Rbt.Current_Directory>
/home/itssahil/PROJECTS/Mol_Feturizer/New_Systems/rnas/2be0

>  <Rbt.Executable>
rbdock ($Id: //depot/dev/client3/rdock/2013.1/src/exe/rbdock.cxx#4 $)

>  <Rbt.Library>
libRbt.so (2013.1, Build901 2013/11/27)

>  <Rbt.Parameter_File>
/export/apps/rDock/src/rDock_2013.1_src/data/scripts/dock_solv.prm

>  <Rbt.Receptor>
prm/pocket_docking_5.prm

>  <SCORE>
-23.2533

>  <SCORE.INTER>
-6.08275

>  <SCORE.INTER.CONST>
1

>  <SCORE.INTER.POLAR>
-0.991718

>  <SCORE.INTER.ROT>
15

>  <SCORE.INTER.SOLV>
14.2863

>  <SCORE.INTER.VDW>
-19.1115

>  <SCORE.INTER.norm>
-0.116976

>  <SCORE.INTRA>
-17.1828

>  <SCORE.INTRA.DIHEDRAL>
-39.8707

>  <SCORE.INTRA.DIHEDRAL.0>
47.8724

>  <SCORE.INTRA.POLAR>
0

>  <SCORE.INTRA.POLAR.0>
0

>  <SCORE.INTRA.REPUL>
0

>  <SCORE.INTRA.REPUL.0>
0

>  <SCORE.INTRA.SOLV>
-2.63994

>  <SCORE.INTRA.SOLV.lig_0>
-115.677

>  <SCORE.INTRA.VDW>
4.07248

>  <SCORE.INTRA.VDW.0>
-7.4833

>  <SCORE.INTRA.norm>
-0.330439

>  <SCORE.RESTR>
0.012233

>  <SCORE.RESTR.CAVITY>
0.012233

>  <SCORE.RESTR.norm>
0.00023525

>  <SCORE.SYSTEM>
0

>  <SCORE.SYSTEM.CONST>
0

>  <SCORE.SYSTEM.DIHEDRAL>
0

>  <SCORE.SYSTEM.SOLV>
0

>  <SCORE.SYSTEM.norm>
0

>  <SCORE.heavy>
52

>  <SCORE.norm>
-0.44718

>  <RMSD>
9.281

$$$$
2be0_lig
 OpenBabel11021811423D
libRbt.so/2013.1/901 2013/11/27
 52 56  0  0  0  0  0  0  0  0999 V2000
   41.3647   -0.2591   -7.0247 C   0  0  2  0  0  0  0  0  0  0  0  0
   41.3376    0.5661   -5.8840 O   0  0  0  0  0  0  0  0  0  0  0  0
   43.8240    1.1051   -2.2926 C   0  0  2  0  0  0  0  0  0  0  0  0
   45.0311    1.1178   -1.4195 N   0  0  0  0  0  0  0  0  0  0  0  0
   42.8912    4.3142   -5.3695 C   0  0  2  0  0  0  0  0  0  0  0  0
   42.3603    5.0192   -6.5103 O   0  0  0  0  0  0  0  0  0  0  0  0
   47.1341    5.3566   -6.2912 C   0  0  1  0  0  0  0  0  0  0  0  0
   40.5740    8.1262   -1.3221 C   0  0  0  0  0  0  0  0  0  0  0  0
   40.2884    0.2008   -8.0905 C   0  0  2  0  0  0  0  0  0  0  0  0
   40.4790    1.6177   -8.4075 N   0  0  0  0  0  0  0  0  0  0  0  0
   43.6320   -0.3595   -2.8978 C   0  0  0  0  0  0  0  0  0  0  0  0
   44.3486    4.7736   -5.2038 C   0  0  2  0  0  0  0  0  0  0  0  0
   44.2304    6.0271   -4.3963 O   0  0  0  0  0  0  0  0  0  0  0  0
   48.3490    5.9408   -7.1989 C   0  0  2  0  0  0  0  0  0  0  0  0
   48.3407    5.2381   -8.5224 N   0  0  0  0  0  0  0  0  0  0  0  0
   39.6681    7.3424   -2.1095 C   0  0  0  0  0  0  0  0  0  0  0  0
   38.9511    6.2771   -1.5045 N   0  0  0  0  0  0  0  0  0  0  0  0
   38.8196   -0.0952   -7.5331 C   0  0  1  0  0  0  0  0  0  0  0  0
   37.8708    0.3306   -8.4988 O   0  0  0  0  0  0  0  0  0  0  0  0
   42.3235   -0.4124   -3.8750 C   0  0  2  0  0  0  0  0  0  0  0  0
   42.1383   -1.7259   -4.4243 N   0  0  0  0  0  0  0  0  0  0  0  0
   44.7403    4.8555   -6.6914 C   0  0  2  0  0  0  0  0  0  0  0  0
   45.9106    5.5938   -7.0105 O   0  0  0  0  0  0  0  0  0  0  0  0
   49.6835    5.6784   -6.4378 C   0  0  1  0  0  0  0  0  0  0  0  0
   49.5873    6.4235   -5.1716 O   0  0  0  0  0  0  0  0  0  0  0  0
   39.0859    5.9346   -0.1288 C   0  0  0  0  0  0  0  0  0  0  0  0
   38.7002   -1.6183   -7.2359 C   0  0  2  0  0  0  0  0  0  0  0  0
   37.3551   -1.9548   -6.7102 O   0  0  0  0  0  0  0  0  0  0  0  0
   42.4884    0.6363   -5.0508 C   0  0  2  0  0  0  0  0  0  0  0  0
   43.4572    5.3913   -7.3700 C   0  0  1  0  0  0  0  0  0  0  0  0
   49.8669    4.0846   -6.1695 C   0  0  2  0  0  0  0  0  0  0  0  0
   49.9635    3.3334   -7.4308 O   0  0  0  0  0  0  0  0  0  0  0  0
   39.9656    6.6743    0.6994 C   0  0  0  0  0  0  0  0  0  0  0  0
   39.7800   -2.0569   -6.1733 C   0  0  2  0  0  0  0  0  0  0  0  0
   41.0695   -1.6990   -6.7425 O   0  0  0  0  0  0  0  0  0  0  0  0
   42.6839    2.0515   -4.4043 C   0  0  2  0  0  0  0  0  0  0  0  0
   42.8069    2.9028   -5.5373 O   0  0  0  0  0  0  0  0  0  0  0  0
   43.2003    4.7397   -8.7277 C   0  0  0  0  0  0  0  0  0  0  0  0
   44.1957    4.9527   -9.6998 O   0  0  0  0  0  0  0  0  0  0  0  0
   48.6286    3.5434   -5.3171 C   0  0  1  0  0  0  0  0  0  0  0  0
   47.3525    3.8604   -6.0692 O   0  0  0  0  0  0  0  0  0  0  0  0
   40.7376    7.7957    0.1156 C   0  0  0  0  0  0  0  0  0  0  0  0
   39.6326   -3.5042   -5.9503 C   0  0  0  0  0  0  0  0  0  0  0  0
   38.5240   -3.7350   -5.2359 O   0  0  0  0  0  0  0  0  0  0  0  0
   43.9786    2.0755   -3.4875 C   0  0  1  0  0  0  0  0  0  0  0  0
   44.1321    3.3323   -2.9143 O   0  0  0  0  0  0  0  0  0  0  0  0
   43.3092    7.1694   -4.6034 C   0  0  0  0  0  0  0  0  0  0  0  0
   48.8519    2.0217   -5.1026 C   0  0  0  0  0  0  0  0  0  0  0  0
   47.9621    1.5165   -4.0869 N   0  0  0  0  0  0  0  0  0  0  0  0
   43.0998    7.8357   -3.2398 C   0  0  0  0  0  0  0  0  0  0  0  0
   42.0532    8.9018   -3.3609 N   0  0  0  0  0  0  0  0  0  0  0  0
   41.3708    9.3264   -2.0327 C   0  0  0  0  0  0  0  0  0  0  0  0
  1  2  1  1  0  0  0
  1  9  1  0  0  0  0
  1 35  1  0  0  0  0
  3  4  1  1  0  0  0
  3 11  1  0  0  0  0
  3 45  1  0  0  0  0
  5  6  1  0  0  0  0
  5 12  1  0  0  0  0
  5 37  1  6  0  0  0
  6 30  1  0  0  0  0
  7 14  1  0  0  0  0
  7 41  1  0  0  0  0
  7 23  1  6  0  0  0
  8 16  2  0  0  0  0
  8 42  1  0  0  0  0
  9 10  1  1  0  0  0
  9 18  1  0  0  0  0
 11 20  1  0  0  0  0
 12 13  1  6  0  0  0
 12 22  1  0  0  0  0
 13 47  1  0  0  0  0
 14 15  1  6  0  0  0
 14 24  1  0  0  0  0
 16 17  1  0  0  0  0
 17 26  2  0  0  0  0
 18 19  1  6  0  0  0
 18 27  1  0  0  0  0
 20 21  1  6  0  0  0
 20 29  1  0  0  0  0
 22 23  1  1  0  0  0
 22 30  1  0  0  0  0
 24 25  1  1  0  0  0
 24 31  1  0  0  0  0
 26 33  1  0  0  0  0
 27 28  1  1  0  0  0
 27 34  1  0  0  0  0
 29  2  1  6  0  0  0
 29 36  1  0  0  0  0
 30 38  1  6  0  0  0
 31 32  1  6  0  0  0
 31 40  1  0  0  0  0
 33 42  2  0  0  0  0
 34 35  1  0  0  0  0
 34 43  1  6  0  0  0
 36 37  1  6  0  0  0
 36 45  1  0  0  0  0
 38 39  1  0  0  0  0
 40 41  1  0  0  0  0
 40 48  1  6  0  0  0
 43 44  1  0  0  0  0
 45 46  1  1  0  0  0
 47 50  1  0  0  0  0
 48 49  1  0  0  0  0
 50 51  1  0  0  0  0
 51 52  1  0  0  0  0
 52  8  1  0  0  0  0
M  END
>  <CHROM.1>
-157.81240015,-151.37650213,160.71326435,-47.16504921,153.75696195,49.16454962
-94.17570567,-177.97580070,-73.03850684,174.80792398,166.34355522,-173.55769667
159.53147494,-61.92946912,-49.02096749,43.24654387,3.16340389,-5.17756011
-2.44608334,0.35461543,0.50344960

>  <Name>
2be0_lig

>  <RI>
2.10017e+07

>  <Rbt.Current_Directory>
/home/itssahil/PROJECTS/Mol_Feturizer/New_Systems/rnas/2be0

>  <Rbt.Executable>
rbdock ($Id: //depot/dev/client3/rdock/2013.1/src/exe/rbdock.cxx#4 $)

>  <Rbt.Library>
libRbt.so (2013.1, Build901 2013/11/27)

>  <Rbt.Parameter_File>
/export/apps/rDock/src/rDock_2013.1_src/data/scripts/dock_solv.prm

>  <Rbt.Receptor>
prm/pocket_docking_3.prm

>  <SCORE>
-4.94733

>  <SCORE.INTER>
6.27426

>  <SCORE.INTER.CONST>
1

>  <SCORE.INTER.POLAR>
0

>  <SCORE.INTER.ROT>
15

>  <SCORE.INTER.SOLV>
11.2958

>  <SCORE.INTER.VDW>
-13.1824

>  <SCORE.INTER.norm>
0.120659

>  <SCORE.INTRA>
-11.248

>  <SCORE.INTRA.DIHEDRAL>
-29.0793

>  <SCORE.INTRA.DIHEDRAL.0>
47.8724

>  <SCORE.INTRA.POLAR>
0

>  <SCORE.INTRA.POLAR.0>
0

>  <SCORE.INTRA.REPUL>
0

>  <SCORE.INTRA.REPUL.0>
0

>  <SCORE.INTRA.SOLV>
0.214265

>  <SCORE.INTRA.SOLV.lig_0>
-115.677

>  <SCORE.INTRA.VDW>
3.18451

>  <SCORE.INTRA.VDW.0>
-7.4833

>  <SCORE.INTRA.norm>
-0.216307

>  <SCORE.RESTR>
0.0263951

>  <SCORE.RESTR.CAVITY>
0.0263951

>  <SCORE.RESTR.norm>
0.000507598

>  <SCORE.SYSTEM>
0

>  <SCORE.SYSTEM.CONST>
0

>  <SCORE.SYSTEM.DIHEDRAL>
0

>  <SCORE.SYSTEM.SOLV>
0

>  <SCORE.SYSTEM.norm>
0

>  <SCORE.heavy>
52

>  <SCORE.norm>
-0.095141

>  <RMSD>
9.285

$$$$
2be0_lig
 OpenBabel11021811423D
libRbt.so/2013.1/901 2013/11/27
 52 56  0  0  0  0  0  0  0  0999 V2000
   42.5100    0.5702  -10.0303 C   0  0  2  0  0  0  0  0  0  0  0  0
   42.1004    0.8386   -8.7100 O   0  0  0  0  0  0  0  0  0  0  0  0
   46.0352    1.2981   -6.7923 C   0  0  2  0  0  0  0  0  0  0  0  0
   47.0506    1.5128   -5.7236 N   0  0  0  0  0  0  0  0  0  0  0  0
   42.5933   -1.4673   -6.2204 C   0  0  2  0  0  0  0  0  0  0  0  0
   42.3091   -2.8496   -5.9223 O   0  0  0  0  0  0  0  0  0  0  0  0
   38.3222   -0.6108   -7.5067 C   0  0  1  0  0  0  0  0  0  0  0  0
   39.4710    4.0660   -4.4867 C   0  0  0  0  0  0  0  0  0  0  0  0
   41.3521    0.8808  -11.0640 C   0  0  2  0  0  0  0  0  0  0  0  0
   40.8807    2.2552  -10.8818 N   0  0  0  0  0  0  0  0  0  0  0  0
   45.0246    2.5337   -6.8089 C   0  0  0  0  0  0  0  0  0  0  0  0
   41.2414   -0.7375   -6.2688 C   0  0  2  0  0  0  0  0  0  0  0  0
   40.9788   -0.3930   -4.8371 O   0  0  0  0  0  0  0  0  0  0  0  0
   37.1002   -0.1673   -6.5313 C   0  0  2  0  0  0  0  0  0  0  0  0
   36.1839   -1.3386   -6.3463 N   0  0  0  0  0  0  0  0  0  0  0  0
   40.6650    4.6740   -3.9773 C   0  0  0  0  0  0  0  0  0  0  0  0
   41.0838    5.9327   -4.4825 N   0  0  0  0  0  0  0  0  0  0  0  0
   40.1733   -0.1845  -10.8865 C   0  0  1  0  0  0  0  0  0  0  0  0
   39.1435    0.1157  -11.8158 O   0  0  0  0  0  0  0  0  0  0  0  0
   43.8838    2.3299   -7.9608 C   0  0  2  0  0  0  0  0  0  0  0  0
   42.9692    3.4363   -7.9875 N   0  0  0  0  0  0  0  0  0  0  0  0
   40.4066   -1.8335   -6.9578 C   0  0  2  0  0  0  0  0  0  0  0  0
   38.9939   -1.7157   -6.8755 O   0  0  0  0  0  0  0  0  0  0  0  0
   36.3542    1.0213   -7.2093 C   0  0  1  0  0  0  0  0  0  0  0  0
   37.3375    2.1108   -7.3246 O   0  0  0  0  0  0  0  0  0  0  0  0
   40.3692    6.6401   -5.4909 C   0  0  0  0  0  0  0  0  0  0  0  0
   40.7565   -1.6102  -11.1085 C   0  0  2  0  0  0  0  0  0  0  0  0
   39.7066   -2.6457  -10.9522 O   0  0  0  0  0  0  0  0  0  0  0  0
   43.0854    0.9878   -7.6947 C   0  0  2  0  0  0  0  0  0  0  0  0
   40.9625   -3.1426   -6.3484 C   0  0  1  0  0  0  0  0  0  0  0  0
   35.8022    0.5703   -8.6714 C   0  0  2  0  0  0  0  0  0  0  0  0
   34.8191   -0.5188   -8.5640 O   0  0  0  0  0  0  0  0  0  0  0  0
   39.1812    6.0893   -6.0316 C   0  0  0  0  0  0  0  0  0  0  0  0
   41.9080   -1.9005  -10.0705 C   0  0  2  0  0  0  0  0  0  0  0  0
   42.8990   -0.8550  -10.2700 O   0  0  0  0  0  0  0  0  0  0  0  0
   44.1220   -0.1888   -7.6775 C   0  0  2  0  0  0  0  0  0  0  0  0
   43.3030   -1.3288   -7.4471 O   0  0  0  0  0  0  0  0  0  0  0  0
   41.0554   -4.2701   -7.3753 C   0  0  0  0  0  0  0  0  0  0  0  0
   41.6758   -5.4503   -6.9244 O   0  0  0  0  0  0  0  0  0  0  0  0
   37.0288    0.0971   -9.5795 C   0  0  1  0  0  0  0  0  0  0  0  0
   37.7523   -1.0245   -8.8631 O   0  0  0  0  0  0  0  0  0  0  0  0
   38.7022    4.7772   -5.5384 C   0  0  0  0  0  0  0  0  0  0  0  0
   42.4325   -3.2484  -10.3426 C   0  0  0  0  0  0  0  0  0  0  0  0
   43.0931   -3.2434  -11.5072 O   0  0  0  0  0  0  0  0  0  0  0  0
   45.1954    0.0258   -6.5290 C   0  0  1  0  0  0  0  0  0  0  0  0
   46.1120   -1.0189   -6.5336 O   0  0  0  0  0  0  0  0  0  0  0  0
   39.6779   -0.3404   -4.1291 C   0  0  0  0  0  0  0  0  0  0  0  0
   36.4425   -0.3301  -10.9525 C   0  0  0  0  0  0  0  0  0  0  0  0
   35.7746    0.7794  -11.5864 N   0  0  0  0  0  0  0  0  0  0  0  0
   39.8965    0.4552   -2.8381 C   0  0  0  0  0  0  0  0  0  0  0  0
   40.1717    1.8892   -3.1763 N   0  0  0  0  0  0  0  0  0  0  0  0
   39.0202    2.6420   -3.8956 C   0  0  0  0  0  0  0  0  0  0  0  0
  1  2  1  1  0  0  0
  1  9  1  0  0  0  0
  1 35  1  0  0  0  0
  3  4  1  1  0  0  0
  3 11  1  0  0  0  0
  3 45  1  0  0  0  0
  5  6  1  0  0  0  0
  5 12  1  0  0  0  0
  5 37  1  6  0  0  0
  6 30  1  0  0  0  0
  7 14  1  0  0  0  0
  7 41  1  0  0  0  0
  7 23  1  1  0  0  0
  8 16  2  0  0  0  0
  8 42  1  0  0  0  0
  9 10  1  1  0  0  0
  9 18  1  0  0  0  0
 11 20  1  0  0  0  0
 12 13  1  1  0  0  0
 12 22  1  0  0  0  0
 13 47  1  0  0  0  0
 14 15  1  6  0  0  0
 14 24  1  0  0  0  0
 16 17  1  0  0  0  0
 17 26  2  0  0  0  0
 18 19  1  6  0  0  0
 18 27  1  0  0  0  0
 20 21  1  1  0  0  0
 20 29  1  0  0  0  0
 22 23  1  1  0  0  0
 22 30  1  0  0  0  0
 24 25  1  6  0  0  0
 24 31  1  0  0  0  0
 26 33  1  0  0  0  0
 27 28  1  1  0  0  0
 27 34  1  0  0  0  0
 29  2  1  6  0  0  0
 29 36  1  0  0  0  0
 30 38  1  6  0  0  0
 31 32  1  1  0  0  0
 31 40  1  0  0  0  0
 33 42  2  0  0  0  0
 34 35  1  0  0  0  0
 34 43  1  6  0  0  0
 36 37  1  1  0  0  0
 36 45  1  0  0  0  0
 38 39  1  0  0  0  0
 40 41  1  0  0  0  0
 40 48  1  6  0  0  0
 43 44  1  0  0  0  0
 45 46  1  6  0  0  0
 47 50  1  0  0  0  0
 48 49  1  0  0  0  0
 50 51  1  0  0  0  0
 51 52  1  0  0  0  0
 52  8  1  0  0  0  0
M  END
>  <CHROM.1>
-162.35836448,-155.24320572,-142.63748309,-145.51260086,-163.20334631,65.00033590
68.91925218,57.70764516,69.43077906,-64.73233385,60.74784768,68.27197794
62.82680071,-168.61245324,-18.74223015,40.67754354,0.22390332,-7.60553351
-0.79174106,0.17885154,-2.46468466

>  <Name>
2be0_lig

>  <RI>
0

>  <Rbt.Current_Directory>
/home/itssahil/PROJECTS/Mol_Feturizer/New_Systems/rnas/2be0

>  <Rbt.Executable>
rbdock ($Id: //depot/dev/client3/rdock/2013.1/src/exe/rbdock.cxx#4 $)

>  <Rbt.Library>
libRbt.so (2013.1, Build901 2013/11/27)

>  <Rbt.Parameter_File>
/export/apps/rDock/src/rDock_2013.1_src/data/scripts/dock_solv.prm

>  <Rbt.Receptor>
prm/pocket_docking_6.prm

>  <SCORE>
-7.46135

>  <SCORE.INTER>
7.62225

>  <SCORE.INTER.CONST>
1

>  <SCORE.INTER.POLAR>
0

>  <SCORE.INTER.ROT>
15

>  <SCORE.INTER.SOLV>
3.90839

>  <SCORE.INTER.VDW>
-9.8213

>  <SCORE.INTER.norm>
0.146582

>  <SCORE.INTRA>
-15.0836

>  <SCORE.INTRA.DIHEDRAL>
-31.1297

>  <SCORE.INTRA.DIHEDRAL.0>
47.8724

>  <SCORE.INTRA.POLAR>
0

>  <SCORE.INTRA.POLAR.0>
0

>  <SCORE.INTRA.REPUL>
0

>  <SCORE.INTRA.REPUL.0>
0

>  <SCORE.INTRA.SOLV>
0.808368

>  <SCORE.INTRA.SOLV.lig_0>
-115.677

>  <SCORE.INTRA.VDW>
0.0770508

>  <SCORE.INTRA.VDW.0>
-7.4833

>  <SCORE.INTRA.norm>
-0.290069

>  <SCORE.RESTR>
0

>  <SCORE.RESTR.CAVITY>
0

>  <SCORE.RESTR.norm>
0

>  <SCORE.SYSTEM>
0

>  <SCORE.SYSTEM.CONST>
0

>  <SCORE.SYSTEM.DIHEDRAL>
0

>  <SCORE.SYSTEM.SOLV>
0

>  <SCORE.SYSTEM.norm>
0

>  <SCORE.heavy>
52

>  <SCORE.norm>
-0.143487

>  <RMSD>
9.291

$$$$
2be0_lig
 OpenBabel11021811423D
libRbt.so/2013.1/901 2013/11/27
 52 56  0  0  0  0  0  0  0  0999 V2000
   41.8087   -0.3248   -3.7168 C   0  0  2  0  0  0  0  0  0  0  0  0
   40.9115    0.4815   -4.4432 O   0  0  0  0  0  0  0  0  0  0  0  0
   40.4144   -2.0024   -8.0424 C   0  0  2  0  0  0  0  0  0  0  0  0
   39.8244   -2.5271   -9.3058 N   0  0  0  0  0  0  0  0  0  0  0  0
   40.8103    2.3865   -7.1313 C   0  0  2  0  0  0  0  0  0  0  0  0
   40.3708    2.4028   -8.5050 O   0  0  0  0  0  0  0  0  0  0  0  0
   43.7149    5.8739   -8.5180 C   0  0  1  0  0  0  0  0  0  0  0  0
   38.6456    7.2624   -1.5674 C   0  0  0  0  0  0  0  0  0  0  0  0
   42.2512    0.3798   -2.3701 C   0  0  2  0  0  0  0  0  0  0  0  0
   41.0668    0.7555   -1.5951 N   0  0  0  0  0  0  0  0  0  0  0  0
   39.3192   -2.0775   -6.8834 C   0  0  0  0  0  0  0  0  0  0  0  0
   41.3355    3.7966   -6.8176 C   0  0  2  0  0  0  0  0  0  0  0  0
   40.1027    4.5511   -6.4325 O   0  0  0  0  0  0  0  0  0  0  0  0
   44.4112    5.5265   -7.0911 C   0  0  2  0  0  0  0  0  0  0  0  0
   43.6725    6.2510   -6.0071 N   0  0  0  0  0  0  0  0  0  0  0  0
   39.6998    8.2091   -1.7849 C   0  0  0  0  0  0  0  0  0  0  0  0
   39.8426    9.3164   -0.9082 N   0  0  0  0  0  0  0  0  0  0  0  0
   43.1739    1.6424   -2.7023 C   0  0  1  0  0  0  0  0  0  0  0  0
   43.5531    2.2635   -1.4838 O   0  0  0  0  0  0  0  0  0  0  0  0
   39.9235   -1.4966   -5.4808 C   0  0  2  0  0  0  0  0  0  0  0  0
   38.9484   -1.5608   -4.4290 N   0  0  0  0  0  0  0  0  0  0  0  0
   42.0269    4.0948   -8.1614 C   0  0  2  0  0  0  0  0  0  0  0  0
   42.3416    5.4517   -8.4377 O   0  0  0  0  0  0  0  0  0  0  0  0
   45.8973    5.9912   -7.1585 C   0  0  1  0  0  0  0  0  0  0  0  0
   46.5235    5.2088   -8.2370 O   0  0  0  0  0  0  0  0  0  0  0  0
   38.9766    9.5455    0.1988 C   0  0  0  0  0  0  0  0  0  0  0  0
   44.4096    1.1533   -3.5123 C   0  0  2  0  0  0  0  0  0  0  0  0
   45.3044    2.2853   -3.8546 O   0  0  0  0  0  0  0  0  0  0  0  0
   40.3930    0.0034   -5.6785 C   0  0  2  0  0  0  0  0  0  0  0  0
   41.0821    3.4467   -9.2012 C   0  0  1  0  0  0  0  0  0  0  0  0
   45.9680    7.5858   -7.4718 C   0  0  2  0  0  0  0  0  0  0  0  0
   45.3435    8.3742   -6.3980 O   0  0  0  0  0  0  0  0  0  0  0  0
   37.9173    8.6431    0.4643 C   0  0  0  0  0  0  0  0  0  0  0  0
   43.9487    0.4543   -4.8489 C   0  0  2  0  0  0  0  0  0  0  0  0
   43.0763   -0.6380   -4.4485 O   0  0  0  0  0  0  0  0  0  0  0  0
   41.4563    0.0229   -6.8309 C   0  0  2  0  0  0  0  0  0  0  0  0
   41.8112    1.3980   -6.9109 O   0  0  0  0  0  0  0  0  0  0  0  0
   41.8441    2.7802  -10.3455 C   0  0  0  0  0  0  0  0  0  0  0  0
   42.8732    1.9020   -9.9572 O   0  0  0  0  0  0  0  0  0  0  0  0
   45.2308    7.8882   -8.8566 C   0  0  1  0  0  0  0  0  0  0  0  0
   43.8070    7.3794   -8.7641 O   0  0  0  0  0  0  0  0  0  0  0  0
   37.7253    7.4717   -0.4219 C   0  0  0  0  0  0  0  0  0  0  0  0
   45.1542   -0.0040   -5.5581 C   0  0  0  0  0  0  0  0  0  0  0  0
   44.8115   -0.4686   -6.7661 O   0  0  0  0  0  0  0  0  0  0  0  0
   40.8277   -0.5183   -8.1835 C   0  0  1  0  0  0  0  0  0  0  0  0
   41.7845   -0.5044   -9.1914 O   0  0  0  0  0  0  0  0  0  0  0  0
   39.1696    4.2762   -5.3144 C   0  0  0  0  0  0  0  0  0  0  0  0
   45.3200    9.4199   -9.0966 C   0  0  0  0  0  0  0  0  0  0  0  0
   44.6998    9.7742  -10.3490 N   0  0  0  0  0  0  0  0  0  0  0  0
   39.9611    4.4403   -4.0129 C   0  0  0  0  0  0  0  0  0  0  0  0
   39.7575    5.8250   -3.4764 N   0  0  0  0  0  0  0  0  0  0  0  0
   38.5088    6.0184   -2.5743 C   0  0  0  0  0  0  0  0  0  0  0  0
  1  2  1  6  0  0  0
  1  9  1  0  0  0  0
  1 35  1  0  0  0  0
  3  4  1  6  0  0  0
  3 11  1  0  0  0  0
  3 45  1  0  0  0  0
  5  6  1  0  0  0  0
  5 12  1  0  0  0  0
  5 37  1  6  0  0  0
  6 30  1  0  0  0  0
  7 14  1  0  0  0  0
  7 41  1  0  0  0  0
  7 23  1  1  0  0  0
  8 16  2  0  0  0  0
  8 42  1  0  0  0  0
  9 10  1  6  0  0  0
  9 18  1  0  0  0  0
 11 20  1  0  0  0  0
 12 13  1  6  0  0  0
 12 22  1  0  0  0  0
 13 47  1  0  0  0  0
 14 15  1  1  0  0  0
 14 24  1  0  0  0  0
 16 17  1  0  0  0  0
 17 26  2  0  0  0  0
 18 19  1  1  0  0  0
 18 27  1  0  0  0  0
 20 21  1  1  0  0  0
 20 29  1  0  0  0  0
 22 23  1  6  0  0  0
 22 30  1  0  0  0  0
 24 25  1  6  0  0  0
 24 31  1  0  0  0  0
 26 33  1  0  0  0  0
 27 28  1  6  0  0  0
 27 34  1  0  0  0  0
 29  2  1  1  0  0  0
 29 36  1  0  0  0  0
 30 38  1  6  0  0  0
 31 32  1  1  0  0  0
 31 40  1  0  0  0  0
 33 42  2  0  0  0  0
 34 35  1  0  0  0  0
 34 43  1  1  0  0  0
 36 37  1  6  0  0  0
 36 45  1  0  0  0  0
 38 39  1  0  0  0  0
 40 41  1  0  0  0  0
 40 48  1  1  0  0  0
 43 44  1  0  0  0  0
 45 46  1  6  0  0  0
 47 50  1  0  0  0  0
 48 49  1  0  0  0  0
 50 51  1  0  0  0  0
 51 52  1  0  0  0  0
 52  8  1  0  0  0  0
M  END
>  <CHROM.1>
-179.31781054,-75.71301188,-58.64266433,60.47568694,63.35149821,113.37215824
46.20286760,-66.10675655,-173.15259223,-56.34812742,178.73114798,95.46502275
86.46605625,156.16127334,13.47814547,42.00930858,3.42453924,-5.80166447,1.62329212
-0.98146499,-2.84162193

>  <Name>
2be0_lig

>  <RI>
2.75444e+07

>  <Rbt.Current_Directory>
/home/itssahil/PROJECTS/Mol_Feturizer/New_Systems/rnas/2be0

>  <Rbt.Executable>
rbdock ($Id: //depot/dev/client3/rdock/2013.1/src/exe/rbdock.cxx#4 $)

>  <Rbt.Library>
libRbt.so (2013.1, Build901 2013/11/27)

>  <Rbt.Parameter_File>
/export/apps/rDock/src/rDock_2013.1_src/data/scripts/dock_solv.prm

>  <Rbt.Receptor>
prm/pocket_docking_5.prm

>  <SCORE>
-20.2289

>  <SCORE.INTER>
-5.4623

>  <SCORE.INTER.CONST>
1

>  <SCORE.INTER.POLAR>
-0.936947

>  <SCORE.INTER.ROT>
15

>  <SCORE.INTER.SOLV>
7.47515

>  <SCORE.INTER.VDW>
-16.6101

>  <SCORE.INTER.norm>
-0.105044

>  <SCORE.INTRA>
-14.7666

>  <SCORE.INTRA.DIHEDRAL>
-32.7708

>  <SCORE.INTRA.DIHEDRAL.0>
47.8724

>  <SCORE.INTRA.POLAR>
0

>  <SCORE.INTRA.POLAR.0>
0

>  <SCORE.INTRA.REPUL>
0

>  <SCORE.INTRA.REPUL.0>
0

>  <SCORE.INTRA.SOLV>
-0.951043

>  <SCORE.INTRA.SOLV.lig_0>
-115.677

>  <SCORE.INTRA.VDW>
2.09434

>  <SCORE.INTRA.VDW.0>
-7.4833

>  <SCORE.INTRA.norm>
-0.283972

>  <SCORE.RESTR>
0

>  <SCORE.RESTR.CAVITY>
0

>  <SCORE.RESTR.norm>
0

>  <SCORE.SYSTEM>
0

>  <SCORE.SYSTEM.CONST>
0

>  <SCORE.SYSTEM.DIHEDRAL>
0

>  <SCORE.SYSTEM.SOLV>
0

>  <SCORE.SYSTEM.norm>
0

>  <SCORE.heavy>
52

>  <SCORE.norm>
-0.389016

>  <RMSD>
9.299

$$$$
2be0_lig
 OpenBabel11021811423D
libRbt.so/2013.1/901 2013/11/27
 52 56  0  0  0  0  0  0  0  0999 V2000
   39.9333   -2.5310   -7.9896 C   0  0  2  0  0  0  0  0  0  0  0  0
   39.6122   -1.4242   -7.1806 O   0  0  0  0  0  0  0  0  0  0  0  0
   40.2143    1.8465  -10.0635 C   0  0  2  0  0  0  0  0  0  0  0  0
   40.0982    3.1922  -10.6922 N   0  0  0  0  0  0  0  0  0  0  0  0
   42.6909    1.3127   -6.4316 C   0  0  2  0  0  0  0  0  0  0  0  0
   43.8441    0.4837   -6.1801 O   0  0  0  0  0  0  0  0  0  0  0  0
   42.1192    2.1630   -1.9647 C   0  0  1  0  0  0  0  0  0  0  0  0
   46.1786    6.9763   -8.0045 C   0  0  0  0  0  0  0  0  0  0  0  0
   40.0239   -3.8596   -7.1338 C   0  0  2  0  0  0  0  0  0  0  0  0
   38.7840   -4.0472   -6.3773 N   0  0  0  0  0  0  0  0  0  0  0  0
   38.7539    1.2304   -9.8742 C   0  0  0  0  0  0  0  0  0  0  0  0
   42.5013    2.1967   -5.1886 C   0  0  2  0  0  0  0  0  0  0  0  0
   43.4117    3.3561   -5.4420 O   0  0  0  0  0  0  0  0  0  0  0  0
   42.8250    2.7827   -0.6383 C   0  0  2  0  0  0  0  0  0  0  0  0
   43.6121    1.7009    0.0369 N   0  0  0  0  0  0  0  0  0  0  0  0
   46.6196    8.2097   -7.4222 C   0  0  0  0  0  0  0  0  0  0  0  0
   45.8044    9.3672   -7.5253 N   0  0  0  0  0  0  0  0  0  0  0  0
   41.3040   -3.7970   -6.1782 C   0  0  1  0  0  0  0  0  0  0  0  0
   41.3626   -4.9922   -5.4152 O   0  0  0  0  0  0  0  0  0  0  0  0
   38.8364   -0.2431   -9.1729 C   0  0  2  0  0  0  0  0  0  0  0  0
   37.5287   -0.8096   -8.9989 N   0  0  0  0  0  0  0  0  0  0  0  0
   42.8628    1.1619   -4.1063 C   0  0  2  0  0  0  0  0  0  0  0  0
   43.1681    1.6616   -2.8126 O   0  0  0  0  0  0  0  0  0  0  0  0
   41.6989    3.3180    0.2967 C   0  0  1  0  0  0  0  0  0  0  0  0
   41.0083    4.3773   -0.4572 O   0  0  0  0  0  0  0  0  0  0  0  0
   44.5457    9.3722   -8.1913 C   0  0  0  0  0  0  0  0  0  0  0  0
   42.5722   -3.6103   -7.0608 C   0  0  2  0  0  0  0  0  0  0  0  0
   43.7964   -3.5409   -6.2267 O   0  0  0  0  0  0  0  0  0  0  0  0
   39.5568   -0.1292   -7.7666 C   0  0  2  0  0  0  0  0  0  0  0  0
   44.0132    0.3546   -4.7535 C   0  0  1  0  0  0  0  0  0  0  0  0
   40.6785    2.1124    0.6854 C   0  0  2  0  0  0  0  0  0  0  0  0
   41.3620    1.0497    1.4389 O   0  0  0  0  0  0  0  0  0  0  0  0
   44.0571    8.1823   -8.7851 C   0  0  0  0  0  0  0  0  0  0  0  0
   42.4631   -2.2829   -7.9055 C   0  0  2  0  0  0  0  0  0  0  0  0
   41.2481   -2.4099   -8.6945 O   0  0  0  0  0  0  0  0  0  0  0  0
   40.9776    0.4893   -8.0068 C   0  0  2  0  0  0  0  0  0  0  0  0
   41.5298    0.5322   -6.6966 O   0  0  0  0  0  0  0  0  0  0  0  0
   43.9339   -1.1361   -4.4283 C   0  0  0  0  0  0  0  0  0  0  0  0
   42.6637   -1.7227   -4.5816 O   0  0  0  0  0  0  0  0  0  0  0  0
   40.0457    1.5013   -0.6484 C   0  0  1  0  0  0  0  0  0  0  0  0
   41.1738    1.0374   -1.5466 O   0  0  0  0  0  0  0  0  0  0  0  0
   44.8709    6.9471   -8.7059 C   0  0  0  0  0  0  0  0  0  0  0  0
   43.6757   -2.1723   -8.7323 C   0  0  0  0  0  0  0  0  0  0  0  0
   43.6201   -1.0485   -9.4579 O   0  0  0  0  0  0  0  0  0  0  0  0
   40.8592    1.9304   -8.6598 C   0  0  1  0  0  0  0  0  0  0  0  0
   42.1258    2.4602   -8.8756 O   0  0  0  0  0  0  0  0  0  0  0  0
   44.8672    3.3370   -5.7202 C   0  0  0  0  0  0  0  0  0  0  0  0
   39.0933    0.3528   -0.2176 C   0  0  0  0  0  0  0  0  0  0  0  0
   38.5143   -0.2865   -1.3729 N   0  0  0  0  0  0  0  0  0  0  0  0
   45.1657    4.5146   -6.6537 C   0  0  0  0  0  0  0  0  0  0  0  0
   46.6491    4.6964   -6.7687 N   0  0  0  0  0  0  0  0  0  0  0  0
   47.1209    5.6822   -7.8714 C   0  0  0  0  0  0  0  0  0  0  0  0
  1  2  1  1  0  0  0
  1  9  1  0  0  0  0
  1 35  1  0  0  0  0
  3  4  1  1  0  0  0
  3 11  1  0  0  0  0
  3 45  1  0  0  0  0
  5  6  1  0  0  0  0
  5 12  1  0  0  0  0
  5 37  1  1  0  0  0
  6 30  1  0  0  0  0
  7 14  1  0  0  0  0
  7 41  1  0  0  0  0
  7 23  1  6  0  0  0
  8 16  2  0  0  0  0
  8 42  1  0  0  0  0
  9 10  1  1  0  0  0
  9 18  1  0  0  0  0
 11 20  1  0  0  0  0
 12 13  1  6  0  0  0
 12 22  1  0  0  0  0
 13 47  1  0  0  0  0
 14 15  1  1  0  0  0
 14 24  1  0  0  0  0
 16 17  1  0  0  0  0
 17 26  2  0  0  0  0
 18 19  1  6  0  0  0
 18 27  1  0  0  0  0
 20 21  1  1  0  0  0
 20 29  1  0  0  0  0
 22 23  1  1  0  0  0
 22 30  1  0  0  0  0
 24 25  1  6  0  0  0
 24 31  1  0  0  0  0
 26 33  1  0  0  0  0
 27 28  1  1  0  0  0
 27 34  1  0  0  0  0
 29  2  1  6  0  0  0
 29 36  1  0  0  0  0
 30 38  1  6  0  0  0
 31 32  1  6  0  0  0
 31 40  1  0  0  0  0
 33 42  2  0  0  0  0
 34 35  1  0  0  0  0
 34 43  1  6  0  0  0
 36 37  1  1  0  0  0
 36 45  1  0  0  0  0
 38 39  1  0  0  0  0
 40 41  1  0  0  0  0
 40 48  1  1  0  0  0
 43 44  1  0  0  0  0
 45 46  1  6  0  0  0
 47 50  1  0  0  0  0
 48 49  1  0  0  0  0
 50 51  1  0  0  0  0
 51 52  1  0  0  0  0
 52  8  1  0  0  0  0
M  END
>  <CHROM.1>
176.72295526,-109.45326315,-174.51981031,-56.14717223,147.78206610,73.44577942
41.69754649,-69.54588732,-179.58619466,-165.31379070,-177.95445718,169.73397725
169.52289460,38.85301735,101.67873740,42.22298422,1.26735095,-5.75693583
-3.10782052,1.11343023,1.39742614

>  <Name>
2be0_lig

>  <RI>
2.75444e+07

>  <Rbt.Current_Directory>
/home/itssahil/PROJECTS/Mol_Feturizer/New_Systems/rnas/2be0

>  <Rbt.Executable>
rbdock ($Id: //depot/dev/client3/rdock/2013.1/src/exe/rbdock.cxx#4 $)

>  <Rbt.Library>
libRbt.so (2013.1, Build901 2013/11/27)

>  <Rbt.Parameter_File>
/export/apps/rDock/src/rDock_2013.1_src/data/scripts/dock_solv.prm

>  <Rbt.Receptor>
prm/pocket_docking_5.prm

>  <SCORE>
-16.8091

>  <SCORE.INTER>
-2.16331

>  <SCORE.INTER.CONST>
1

>  <SCORE.INTER.POLAR>
-0.959166

>  <SCORE.INTER.ROT>
15

>  <SCORE.INTER.SOLV>
13.1366

>  <SCORE.INTER.VDW>
-16.2239

>  <SCORE.INTER.norm>
-0.0416021

>  <SCORE.INTRA>
-14.6458

>  <SCORE.INTRA.DIHEDRAL>
-31.1919

>  <SCORE.INTRA.DIHEDRAL.0>
47.8724

>  <SCORE.INTRA.POLAR>
0

>  <SCORE.INTRA.POLAR.0>
0

>  <SCORE.INTRA.REPUL>
0

>  <SCORE.INTRA.REPUL.0>
0

>  <SCORE.INTRA.SOLV>
-1.4259

>  <SCORE.INTRA.SOLV.lig_0>
-115.677

>  <SCORE.INTRA.VDW>
1.66312

>  <SCORE.INTRA.VDW.0>
-7.4833

>  <SCORE.INTRA.norm>
-0.281649

>  <SCORE.RESTR>
0

>  <SCORE.RESTR.CAVITY>
0

>  <SCORE.RESTR.norm>
0

>  <SCORE.SYSTEM>
0

>  <SCORE.SYSTEM.CONST>
0

>  <SCORE.SYSTEM.DIHEDRAL>
0

>  <SCORE.SYSTEM.SOLV>
0

>  <SCORE.SYSTEM.norm>
0

>  <SCORE.heavy>
52

>  <SCORE.norm>
-0.323251

>  <RMSD>
9.305

$$$$
2be0_lig
 OpenBabel11021811423D
libRbt.so/2013.1/901 2013/11/27
 52 56  0  0  0  0  0  0  0  0999 V2000
   40.0537   -1.0595   -4.6517 C   0  0  2  0  0  0  0  0  0  0  0  0
   41.1987   -0.2402   -4.6313 O   0  0  0  0  0  0  0  0  0  0  0  0
   40.4575    2.0204   -0.9284 C   0  0  2  0  0  0  0  0  0  0  0  0
   40.7281    2.8576    0.2738 N   0  0  0  0  0  0  0  0  0  0  0  0
   41.9703    3.3954   -4.7780 C   0  0  2  0  0  0  0  0  0  0  0  0
   41.6121    4.7417   -4.4045 O   0  0  0  0  0  0  0  0  0  0  0  0
   42.8588    6.3331   -7.9356 C   0  0  1  0  0  0  0  0  0  0  0  0
   49.4719    4.1769   -4.7894 C   0  0  0  0  0  0  0  0  0  0  0  0
   40.1925   -2.2118   -5.7282 C   0  0  2  0  0  0  0  0  0  0  0  0
   41.4271   -2.9635   -5.4930 N   0  0  0  0  0  0  0  0  0  0  0  0
   41.3819    0.7200   -0.8785 C   0  0  0  0  0  0  0  0  0  0  0  0
   42.5543    3.4700   -6.1978 C   0  0  2  0  0  0  0  0  0  0  0  0
   43.9931    3.8073   -5.9666 O   0  0  0  0  0  0  0  0  0  0  0  0
   43.6106    6.4503   -9.3716 C   0  0  2  0  0  0  0  0  0  0  0  0
   44.4073    5.2018   -9.6001 N   0  0  0  0  0  0  0  0  0  0  0  0
   50.7856    4.7409   -4.6839 C   0  0  0  0  0  0  0  0  0  0  0  0
   51.8897    3.9004   -4.3847 N   0  0  0  0  0  0  0  0  0  0  0  0
   40.1456   -1.5832   -7.1974 C   0  0  1  0  0  0  0  0  0  0  0  0
   40.2790   -2.6302   -8.1460 O   0  0  0  0  0  0  0  0  0  0  0  0
   41.1253   -0.2203   -2.1900 C   0  0  2  0  0  0  0  0  0  0  0  0
   41.9496   -1.3953   -2.1560 N   0  0  0  0  0  0  0  0  0  0  0  0
   41.6049    4.5300   -6.7876 C   0  0  2  0  0  0  0  0  0  0  0  0
   42.0162    5.1678   -7.9878 O   0  0  0  0  0  0  0  0  0  0  0  0
   44.5382    7.7019   -9.3251 C   0  0  1  0  0  0  0  0  0  0  0  0
   43.6544    8.8603   -9.1146 O   0  0  0  0  0  0  0  0  0  0  0  0
   51.7622    2.4973   -4.1770 C   0  0  0  0  0  0  0  0  0  0  0  0
   38.8015   -0.8168   -7.3655 C   0  0  2  0  0  0  0  0  0  0  0  0
   38.7014   -0.2058   -8.7130 O   0  0  0  0  0  0  0  0  0  0  0  0
   41.4287    0.6030   -3.5089 C   0  0  2  0  0  0  0  0  0  0  0  0
   41.3782    5.5037   -5.6067 C   0  0  1  0  0  0  0  0  0  0  0  0
   45.6120    7.5537   -8.1122 C   0  0  2  0  0  0  0  0  0  0  0  0
   46.4987    6.3975   -8.3157 O   0  0  0  0  0  0  0  0  0  0  0  0
   50.4889    1.8834   -4.2696 C   0  0  0  0  0  0  0  0  0  0  0  0
   38.6816    0.3257   -6.2848 C   0  0  2  0  0  0  0  0  0  0  0  0
   38.7903   -0.3331   -4.9929 O   0  0  0  0  0  0  0  0  0  0  0  0
   40.5057    1.8707   -3.5033 C   0  0  2  0  0  0  0  0  0  0  0  0
   40.8500    2.5182   -4.7221 O   0  0  0  0  0  0  0  0  0  0  0  0
   39.9393    6.0127   -5.5390 C   0  0  0  0  0  0  0  0  0  0  0  0
   38.9455    5.0166   -5.5043 O   0  0  0  0  0  0  0  0  0  0  0  0
   44.8308    7.3926   -6.7278 C   0  0  1  0  0  0  0  0  0  0  0  0
   43.9083    6.1958   -6.8332 O   0  0  0  0  0  0  0  0  0  0  0  0
   49.3043    2.7173   -4.5789 C   0  0  0  0  0  0  0  0  0  0  0  0
   37.3868    0.9977   -6.4794 C   0  0  0  0  0  0  0  0  0  0  0  0
   37.3751    1.6070   -7.6716 O   0  0  0  0  0  0  0  0  0  0  0  0
   40.8025    2.7752   -2.2340 C   0  0  1  0  0  0  0  0  0  0  0  0
   39.9702    3.8882   -2.2382 O   0  0  0  0  0  0  0  0  0  0  0  0
   45.1619    2.8962   -5.9701 C   0  0  0  0  0  0  0  0  0  0  0  0
   45.9021    7.2447   -5.6133 C   0  0  0  0  0  0  0  0  0  0  0  0
   45.2759    7.0178   -4.3346 N   0  0  0  0  0  0  0  0  0  0  0  0
   46.2328    3.5293   -5.0758 C   0  0  0  0  0  0  0  0  0  0  0  0
   47.0951    4.4390   -5.8977 N   0  0  0  0  0  0  0  0  0  0  0  0
   48.2413    5.1514   -5.1304 C   0  0  0  0  0  0  0  0  0  0  0  0
  1  2  1  6  0  0  0
  1  9  1  0  0  0  0
  1 35  1  0  0  0  0
  3  4  1  1  0  0  0
  3 11  1  0  0  0  0
  3 45  1  0  0  0  0
  5  6  1  0  0  0  0
  5 12  1  0  0  0  0
  5 37  1  6  0  0  0
  6 30  1  0  0  0  0
  7 14  1  0  0  0  0
  7 41  1  0  0  0  0
  7 23  1  6  0  0  0
  8 16  2  0  0  0  0
  8 42  1  0  0  0  0
  9 10  1  1  0  0  0
  9 18  1  0  0  0  0
 11 20  1  0  0  0  0
 12 13  1  1  0  0  0
 12 22  1  0  0  0  0
 13 47  1  0  0  0  0
 14 15  1  1  0  0  0
 14 24  1  0  0  0  0
 16 17  1  0  0  0  0
 17 26  2  0  0  0  0
 18 19  1  6  0  0  0
 18 27  1  0  0  0  0
 20 21  1  1  0  0  0
 20 29  1  0  0  0  0
 22 23  1  6  0  0  0
 22 30  1  0  0  0  0
 24 25  1  1  0  0  0
 24 31  1  0  0  0  0
 26 33  1  0  0  0  0
 27 28  1  6  0  0  0
 27 34  1  0  0  0  0
 29  2  1  6  0  0  0
 29 36  1  0  0  0  0
 30 38  1  1  0  0  0
 31 32  1  6  0  0  0
 31 40  1  0  0  0  0
 33 42  2  0  0  0  0
 34 35  1  0  0  0  0
 34 43  1  1  0  0  0
 36 37  1  6  0  0  0
 36 45  1  0  0  0  0
 38 39  1  0  0  0  0
 40 41  1  0  0  0  0
 40 48  1  1  0  0  0
 43 44  1  0  0  0  0
 45 46  1  6  0  0  0
 47 50  1  0  0  0  0
 48 49  1  0  0  0  0
 50 51  1  0  0  0  0
 51 52  1  0  0  0  0
 52  8  1  0  0  0  0
M  END
>  <CHROM.1>
-162.77070859,-86.90144614,157.72546322,99.59829961,-153.74632146,-86.58628050
43.42038072,-61.99109939,-64.79399056,-84.71821083,-176.74649937,-88.94682097
-179.54620222,75.09088450,150.91913030,42.94445578,3.09397045,-5.54434397
-2.61105667,-0.26088838,-0.59522823

>  <Name>
2be0_lig

>  <RI>
2.10017e+07

>  <Rbt.Current_Directory>
/home/itssahil/PROJECTS/Mol_Feturizer/New_Systems/rnas/2be0

>  <Rbt.Executable>
rbdock ($Id: //depot/dev/client3/rdock/2013.1/src/exe/rbdock.cxx#4 $)

>  <Rbt.Library>
libRbt.so (2013.1, Build901 2013/11/27)

>  <Rbt.Parameter_File>
/export/apps/rDock/src/rDock_2013.1_src/data/scripts/dock_solv.prm

>  <Rbt.Receptor>
prm/pocket_docking_3.prm

>  <SCORE>
-2.40975

>  <SCORE.INTER>
-0.919204

>  <SCORE.INTER.CONST>
1

>  <SCORE.INTER.POLAR>
-0.623275

>  <SCORE.INTER.ROT>
15

>  <SCORE.INTER.SOLV>
15.6047

>  <SCORE.INTER.VDW>
-17.3368

>  <SCORE.INTER.norm>
-0.017677

>  <SCORE.INTRA>
-2.38973

>  <SCORE.INTRA.DIHEDRAL>
-22.7115

>  <SCORE.INTRA.DIHEDRAL.0>
47.8724

>  <SCORE.INTRA.POLAR>
0

>  <SCORE.INTRA.POLAR.0>
0

>  <SCORE.INTRA.REPUL>
0.885833

>  <SCORE.INTRA.REPUL.0>
0

>  <SCORE.INTRA.SOLV>
4.37719

>  <SCORE.INTRA.SOLV.lig_0>
-115.677

>  <SCORE.INTRA.VDW>
2.34828

>  <SCORE.INTRA.VDW.0>
-7.4833

>  <SCORE.INTRA.norm>
-0.0459564

>  <SCORE.RESTR>
0.899185

>  <SCORE.RESTR.CAVITY>
0.899185

>  <SCORE.RESTR.norm>
0.017292

>  <SCORE.SYSTEM>
0

>  <SCORE.SYSTEM.CONST>
0

>  <SCORE.SYSTEM.DIHEDRAL>
0

>  <SCORE.SYSTEM.SOLV>
0

>  <SCORE.SYSTEM.norm>
0

>  <SCORE.heavy>
52

>  <SCORE.norm>
-0.0463413

>  <RMSD>
9.323

$$$$
2be0_lig
 OpenBabel11021811423D
libRbt.so/2013.1/901 2013/11/27
 52 56  0  0  0  0  0  0  0  0999 V2000
   41.3171    0.1529   -4.8959 C   0  0  2  0  0  0  0  0  0  0  0  0
   41.4588   -1.0820   -5.5575 O   0  0  0  0  0  0  0  0  0  0  0  0
   41.8365   -1.8407   -9.8764 C   0  0  2  0  0  0  0  0  0  0  0  0
   41.4478   -1.9882  -11.3070 N   0  0  0  0  0  0  0  0  0  0  0  0
   42.4719    2.1642   -7.8374 C   0  0  2  0  0  0  0  0  0  0  0  0
   43.8973    1.9446   -7.8159 O   0  0  0  0  0  0  0  0  0  0  0  0
   42.6595    4.7847   -4.0771 C   0  0  1  0  0  0  0  0  0  0  0  0
   44.1109    9.0718   -9.2995 C   0  0  0  0  0  0  0  0  0  0  0  0
   41.6311    0.0147   -3.3505 C   0  0  2  0  0  0  0  0  0  0  0  0
   42.9554   -0.5823   -3.1655 N   0  0  0  0  0  0  0  0  0  0  0  0
   40.9374   -2.8150   -8.9873 C   0  0  0  0  0  0  0  0  0  0  0  0
   42.2051    3.4241   -6.9983 C   0  0  2  0  0  0  0  0  0  0  0  0
   42.4096    4.5417   -7.9712 O   0  0  0  0  0  0  0  0  0  0  0  0
   41.3467    5.3331   -4.8627 C   0  0  2  0  0  0  0  0  0  0  0  0
   41.7690    6.4209   -5.8029 N   0  0  0  0  0  0  0  0  0  0  0  0
   43.5158    9.2515  -10.5912 C   0  0  0  0  0  0  0  0  0  0  0  0
   43.8236   10.4094  -11.3523 N   0  0  0  0  0  0  0  0  0  0  0  0
   40.4833   -0.8449   -2.6438 C   0  0  1  0  0  0  0  0  0  0  0  0
   40.7871   -0.9633   -1.2625 O   0  0  0  0  0  0  0  0  0  0  0  0
   41.3236   -2.6728   -7.4060 C   0  0  2  0  0  0  0  0  0  0  0  0
   40.5230   -3.5462   -6.5952 N   0  0  0  0  0  0  0  0  0  0  0  0
   43.2366    3.1848   -5.8796 C   0  0  2  0  0  0  0  0  0  0  0  0
   43.5808    4.2999   -5.0705 O   0  0  0  0  0  0  0  0  0  0  0  0
   40.3443    5.8746   -3.7992 C   0  0  1  0  0  0  0  0  0  0  0  0
   39.9888    4.7269   -2.9484 O   0  0  0  0  0  0  0  0  0  0  0  0
   44.7088   11.4262  -10.8934 C   0  0  0  0  0  0  0  0  0  0  0  0
   39.1180   -0.1355   -2.8780 C   0  0  2  0  0  0  0  0  0  0  0  0
   38.0095   -0.8913   -2.2463 O   0  0  0  0  0  0  0  0  0  0  0  0
   41.1173   -1.1743   -6.9352 C   0  0  2  0  0  0  0  0  0  0  0  0
   44.4377    2.5597   -6.6283 C   0  0  1  0  0  0  0  0  0  0  0  0
   41.0425    7.0579   -2.9284 C   0  0  2  0  0  0  0  0  0  0  0  0
   41.4010    8.2083   -3.7724 O   0  0  0  0  0  0  0  0  0  0  0  0
   45.3278   11.3029   -9.6250 C   0  0  0  0  0  0  0  0  0  0  0  0
   38.8235   -0.0068   -4.4220 C   0  0  2  0  0  0  0  0  0  0  0  0
   39.9414    0.7361   -4.9817 O   0  0  0  0  0  0  0  0  0  0  0  0
   42.0109   -0.2610   -7.8443 C   0  0  2  0  0  0  0  0  0  0  0  0
   41.7589    1.0410   -7.3299 O   0  0  0  0  0  0  0  0  0  0  0  0
   45.1151    1.4529   -5.8220 C   0  0  0  0  0  0  0  0  0  0  0  0
   44.2931    0.3625   -5.4805 O   0  0  0  0  0  0  0  0  0  0  0  0
   42.3533    6.4887   -2.2136 C   0  0  1  0  0  0  0  0  0  0  0  0
   43.2768    5.9313   -3.2771 O   0  0  0  0  0  0  0  0  0  0  0  0
   45.0386   10.1130   -8.7914 C   0  0  0  0  0  0  0  0  0  0  0  0
   37.5357    0.6880   -4.5801 C   0  0  0  0  0  0  0  0  0  0  0  0
   37.2467    0.8013   -5.8825 O   0  0  0  0  0  0  0  0  0  0  0  0
   41.5890   -0.4009   -9.3674 C   0  0  1  0  0  0  0  0  0  0  0  0
   42.3963    0.4060  -10.1604 O   0  0  0  0  0  0  0  0  0  0  0  0
   41.5781    4.9020   -9.1439 C   0  0  0  0  0  0  0  0  0  0  0  0
   42.9804    7.6602   -1.4099 C   0  0  0  0  0  0  0  0  0  0  0  0
   44.3158    7.3244   -0.9823 N   0  0  0  0  0  0  0  0  0  0  0  0
   42.2010    6.1518   -9.7742 C   0  0  0  0  0  0  0  0  0  0  0  0
   42.3097    7.2309   -8.7396 N   0  0  0  0  0  0  0  0  0  0  0  0
   43.7456    7.7513   -8.4609 C   0  0  0  0  0  0  0  0  0  0  0  0
  1  2  1  6  0  0  0
  1  9  1  0  0  0  0
  1 35  1  0  0  0  0
  3  4  1  6  0  0  0
  3 11  1  0  0  0  0
  3 45  1  0  0  0  0
  5  6  1  0  0  0  0
  5 12  1  0  0  0  0
  5 37  1  1  0  0  0
  6 30  1  0  0  0  0
  7 14  1  0  0  0  0
  7 41  1  0  0  0  0
  7 23  1  6  0  0  0
  8 16  2  0  0  0  0
  8 42  1  0  0  0  0
  9 10  1  6  0  0  0
  9 18  1  0  0  0  0
 11 20  1  0  0  0  0
 12 13  1  6  0  0  0
 12 22  1  0  0  0  0
 13 47  1  0  0  0  0
 14 15  1  6  0  0  0
 14 24  1  0  0  0  0
 16 17  1  0  0  0  0
 17 26  2  0  0  0  0
 18 19  1  1  0  0  0
 18 27  1  0  0  0  0
 20 21  1  1  0  0  0
 20 29  1  0  0  0  0
 22 23  1  6  0  0  0
 22 30  1  0  0  0  0
 24 25  1  1  0  0  0
 24 31  1  0  0  0  0
 26 33  1  0  0  0  0
 27 28  1  1  0  0  0
 27 34  1  0  0  0  0
 29  2  1  1  0  0  0
 29 36  1  0  0  0  0
 30 38  1  1  0  0  0
 31 32  1  6  0  0  0
 31 40  1  0  0  0  0
 33 42  2  0  0  0  0
 34 35  1  0  0  0  0
 34 43  1  1  0  0  0
 36 37  1  1  0  0  0
 36 45  1  0  0  0  0
 38 39  1  0  0  0  0
 40 41  1  0  0  0  0
 40 48  1  6  0  0  0
 43 44  1  0  0  0  0
 45 46  1  6  0  0  0
 47 50  1  0  0  0  0
 48 49  1  0  0  0  0
 50 51  1  0  0  0  0
 51 52  1  0  0  0  0
 52  8  1  0  0  0  0
M  END
>  <CHROM.1>
175.21431401,-51.86764498,-64.47452616,68.46846333,178.19019258,74.32972180
-178.08162717,-56.62868832,-179.31639379,175.43744613,-167.06235812,-55.49395168
120.51056699,95.42955802,-31.08707243,41.96594672,3.13313528,-6.18243438
2.63386998,-1.23910965,-2.32841016

>  <Name>
2be0_lig

>  <RI>
0

>  <Rbt.Current_Directory>
/home/itssahil/PROJECTS/Mol_Feturizer/New_Systems/rnas/2be0

>  <Rbt.Executable>
rbdock ($Id: //depot/dev/client3/rdock/2013.1/src/exe/rbdock.cxx#4 $)

>  <Rbt.Library>
libRbt.so (2013.1, Build901 2013/11/27)

>  <Rbt.Parameter_File>
/export/apps/rDock/src/rDock_2013.1_src/data/scripts/dock_solv.prm

>  <Rbt.Receptor>
prm/pocket_docking_6.prm

>  <SCORE>
-25.3842

>  <SCORE.INTER>
-6.32243

>  <SCORE.INTER.CONST>
1

>  <SCORE.INTER.POLAR>
-0.842668

>  <SCORE.INTER.ROT>
15

>  <SCORE.INTER.SOLV>
14.6058

>  <SCORE.INTER.VDW>
-19.8747

>  <SCORE.INTER.norm>
-0.121585

>  <SCORE.INTRA>
-19.0618

>  <SCORE.INTRA.DIHEDRAL>
-42.0475

>  <SCORE.INTRA.DIHEDRAL.0>
47.8724

>  <SCORE.INTRA.POLAR>
0

>  <SCORE.INTRA.POLAR.0>
0

>  <SCORE.INTRA.REPUL>
0

>  <SCORE.INTRA.REPUL.0>
0

>  <SCORE.INTRA.SOLV>
2.26043

>  <SCORE.INTRA.SOLV.lig_0>
-115.677

>  <SCORE.INTRA.VDW>
0.831717

>  <SCORE.INTRA.VDW.0>
-7.4833

>  <SCORE.INTRA.norm>
-0.366573

>  <SCORE.RESTR>
0

>  <SCORE.RESTR.CAVITY>
0

>  <SCORE.RESTR.norm>
0

>  <SCORE.SYSTEM>
0

>  <SCORE.SYSTEM.CONST>
0

>  <SCORE.SYSTEM.DIHEDRAL>
0

>  <SCORE.SYSTEM.SOLV>
0

>  <SCORE.SYSTEM.norm>
0

>  <SCORE.heavy>
52

>  <SCORE.norm>
-0.488158

>  <RMSD>
9.342

$$$$
2be0_lig
 OpenBabel11021811423D
libRbt.so/2013.1/901 2013/11/27
 52 56  0  0  0  0  0  0  0  0999 V2000
   39.9077    0.7780   -6.4955 C   0  0  2  0  0  0  0  0  0  0  0  0
   40.2773    1.0613   -5.1666 O   0  0  0  0  0  0  0  0  0  0  0  0
   44.0197    2.3589   -3.2479 C   0  0  2  0  0  0  0  0  0  0  0  0
   45.4576    2.3703   -2.8582 N   0  0  0  0  0  0  0  0  0  0  0  0
   41.1305    3.4890   -7.1056 C   0  0  2  0  0  0  0  0  0  0  0  0
   40.8430    3.2043   -8.4901 O   0  0  0  0  0  0  0  0  0  0  0  0
   43.7299    7.0924   -8.1927 C   0  0  1  0  0  0  0  0  0  0  0  0
   39.2773    7.3598   -1.9186 C   0  0  0  0  0  0  0  0  0  0  0  0
   38.3337    0.7674   -6.6629 C   0  0  2  0  0  0  0  0  0  0  0  0
   37.7747    2.0291   -6.1725 N   0  0  0  0  0  0  0  0  0  0  0  0
   43.3792    0.9543   -2.8416 C   0  0  0  0  0  0  0  0  0  0  0  0
   41.6023    4.9505   -7.0427 C   0  0  2  0  0  0  0  0  0  0  0  0
   40.3265    5.7263   -6.9554 O   0  0  0  0  0  0  0  0  0  0  0  0
   43.6576    8.5670   -8.8720 C   0  0  2  0  0  0  0  0  0  0  0  0
   43.9560    8.4372  -10.3348 N   0  0  0  0  0  0  0  0  0  0  0  0
   40.7079    7.4150   -1.9895 C   0  0  0  0  0  0  0  0  0  0  0  0
   41.3875    8.5917   -1.5788 N   0  0  0  0  0  0  0  0  0  0  0  0
   37.7204   -0.4957   -5.8986 C   0  0  1  0  0  0  0  0  0  0  0  0
   36.3099   -0.4825   -6.0543 O   0  0  0  0  0  0  0  0  0  0  0  0
   41.8023    0.8956   -3.2659 C   0  0  2  0  0  0  0  0  0  0  0  0
   41.2135   -0.3627   -2.9037 N   0  0  0  0  0  0  0  0  0  0  0  0
   42.4326    4.9860   -8.3397 C   0  0  2  0  0  0  0  0  0  0  0  0
   42.7601    6.2657   -8.8610 O   0  0  0  0  0  0  0  0  0  0  0  0
   44.7134    9.4708   -8.1667 C   0  0  1  0  0  0  0  0  0  0  0  0
   44.3146    9.5399   -6.7512 O   0  0  0  0  0  0  0  0  0  0  0  0
   40.7122    9.7468   -1.0911 C   0  0  0  0  0  0  0  0  0  0  0  0
   38.3564   -1.7881   -6.4882 C   0  0  2  0  0  0  0  0  0  0  0  0
   37.8274   -2.9980   -5.8134 O   0  0  0  0  0  0  0  0  0  0  0  0
   41.6575    1.1194   -4.8275 C   0  0  2  0  0  0  0  0  0  0  0  0
   41.6140    4.1042   -9.3125 C   0  0  1  0  0  0  0  0  0  0  0  0
   46.1969    8.8235   -8.3285 C   0  0  2  0  0  0  0  0  0  0  0  0
   46.6021    8.7510   -9.7409 O   0  0  0  0  0  0  0  0  0  0  0  0
   39.2987    9.7505   -0.9974 C   0  0  0  0  0  0  0  0  0  0  0  0
   39.9235   -1.7586   -6.3125 C   0  0  2  0  0  0  0  0  0  0  0  0
   40.3790   -0.5543   -6.9885 O   0  0  0  0  0  0  0  0  0  0  0  0
   42.3096    2.5027   -5.1740 C   0  0  2  0  0  0  0  0  0  0  0  0
   42.1125    2.6025   -6.5792 O   0  0  0  0  0  0  0  0  0  0  0  0
   42.5036    3.2406  -10.2052 C   0  0  0  0  0  0  0  0  0  0  0  0
   43.4456    2.4417   -9.5302 O   0  0  0  0  0  0  0  0  0  0  0  0
   46.2095    7.3582   -7.6916 C   0  0  1  0  0  0  0  0  0  0  0  0
   45.1394    6.5295   -8.3719 O   0  0  0  0  0  0  0  0  0  0  0  0
   38.5426    8.5469   -1.4145 C   0  0  0  0  0  0  0  0  0  0  0  0
   40.4679   -2.9907   -6.9055 C   0  0  0  0  0  0  0  0  0  0  0  0
   40.2641   -4.0163   -6.0693 O   0  0  0  0  0  0  0  0  0  0  0  0
   43.8458    2.5140   -4.7773 C   0  0  1  0  0  0  0  0  0  0  0  0
   44.4063    3.7490   -5.0809 O   0  0  0  0  0  0  0  0  0  0  0  0
   39.2602    5.6279   -5.9309 C   0  0  0  0  0  0  0  0  0  0  0  0
   47.6412    6.7885   -7.8847 C   0  0  0  0  0  0  0  0  0  0  0  0
   47.7995    5.5558   -7.1538 N   0  0  0  0  0  0  0  0  0  0  0  0
   39.8681    6.0802   -4.5992 C   0  0  0  0  0  0  0  0  0  0  0  0
   39.3131    5.2422   -3.4873 N   0  0  0  0  0  0  0  0  0  0  0  0
   38.5349    6.0150   -2.3886 C   0  0  0  0  0  0  0  0  0  0  0  0
  1  2  1  1  0  0  0
  1  9  1  0  0  0  0
  1 35  1  0  0  0  0
  3  4  1  6  0  0  0
  3 11  1  0  0  0  0
  3 45  1  0  0  0  0
  5  6  1  0  0  0  0
  5 12  1  0  0  0  0
  5 37  1  6  0  0  0
  6 30  1  0  0  0  0
  7 14  1  0  0  0  0
  7 41  1  0  0  0  0
  7 23  1  6  0  0  0
  8 16  2  0  0  0  0
  8 42  1  0  0  0  0
  9 10  1  1  0  0  0
  9 18  1  0  0  0  0
 11 20  1  0  0  0  0
 12 13  1  6  0  0  0
 12 22  1  0  0  0  0
 13 47  1  0  0  0  0
 14 15  1  6  0  0  0
 14 24  1  0  0  0  0
 16 17  1  0  0  0  0
 17 26  2  0  0  0  0
 18 19  1  6  0  0  0
 18 27  1  0  0  0  0
 20 21  1  6  0  0  0
 20 29  1  0  0  0  0
 22 23  1  6  0  0  0
 22 30  1  0  0  0  0
 24 25  1  1  0  0  0
 24 31  1  0  0  0  0
 26 33  1  0  0  0  0
 27 28  1  1  0  0  0
 27 34  1  0  0  0  0
 29  2  1  1  0  0  0
 29 36  1  0  0  0  0
 30 38  1  6  0  0  0
 31 32  1  6  0  0  0
 31 40  1  0  0  0  0
 33 42  2  0  0  0  0
 34 35  1  0  0  0  0
 34 43  1  6  0  0  0
 36 37  1  6  0  0  0
 36 45  1  0  0  0  0
 38 39  1  0  0  0  0
 40 41  1  0  0  0  0
 40 48  1  6  0  0  0
 43 44  1  0  0  0  0
 45 46  1  1  0  0  0
 47 50  1  0  0  0  0
 48 49  1  0  0  0  0
 50 51  1  0  0  0  0
 51 52  1  0  0  0  0
 52  8  1  0  0  0  0
M  END
>  <CHROM.1>
-179.68888330,-165.16852273,-169.44939482,58.34836171,64.91583931,71.62081931
-158.63702476,-62.74990397,-77.23124074,105.99017556,170.95365808,-142.84279219
-119.54843667,-44.50098905,-29.33136564,41.76567961,3.93884007,-6.01295315
-2.30818631,0.80216705,0.43977464

>  <Name>
2be0_lig

>  <RI>
0

>  <Rbt.Current_Directory>
/home/itssahil/PROJECTS/Mol_Feturizer/New_Systems/rnas/2be0

>  <Rbt.Executable>
rbdock ($Id: //depot/dev/client3/rdock/2013.1/src/exe/rbdock.cxx#4 $)

>  <Rbt.Library>
libRbt.so (2013.1, Build901 2013/11/27)

>  <Rbt.Parameter_File>
/export/apps/rDock/src/rDock_2013.1_src/data/scripts/dock_solv.prm

>  <Rbt.Receptor>
prm/pocket_docking_4.prm

>  <SCORE>
-24.7145

>  <SCORE.INTER>
-10.6

>  <SCORE.INTER.CONST>
1

>  <SCORE.INTER.POLAR>
-0.854194

>  <SCORE.INTER.ROT>
15

>  <SCORE.INTER.SOLV>
15.2612

>  <SCORE.INTER.VDW>
-22.9064

>  <SCORE.INTER.norm>
-0.203847

>  <SCORE.INTRA>
-14.1217

>  <SCORE.INTRA.DIHEDRAL>
-29.5465

>  <SCORE.INTRA.DIHEDRAL.0>
47.8724

>  <SCORE.INTRA.POLAR>
0

>  <SCORE.INTRA.POLAR.0>
0

>  <SCORE.INTRA.REPUL>
0.00930725

>  <SCORE.INTRA.REPUL.0>
0

>  <SCORE.INTRA.SOLV>
-2.81017

>  <SCORE.INTRA.SOLV.lig_0>
-115.677

>  <SCORE.INTRA.VDW>
2.01012

>  <SCORE.INTRA.VDW.0>
-7.4833

>  <SCORE.INTRA.norm>
-0.271571

>  <SCORE.RESTR>
0.00717923

>  <SCORE.RESTR.CAVITY>
0.00717923

>  <SCORE.RESTR.norm>
0.000138062

>  <SCORE.SYSTEM>
0

>  <SCORE.SYSTEM.CONST>
0

>  <SCORE.SYSTEM.DIHEDRAL>
0

>  <SCORE.SYSTEM.SOLV>
0

>  <SCORE.SYSTEM.norm>
0

>  <SCORE.heavy>
52

>  <SCORE.norm>
-0.47528

>  <RMSD>
9.352

$$$$
2be0_lig
 OpenBabel11021811423D
libRbt.so/2013.1/901 2013/11/27
 52 56  0  0  0  0  0  0  0  0999 V2000
   40.5213    5.5844   -0.5301 C   0  0  2  0  0  0  0  0  0  0  0  0
   39.5121    6.5642   -0.5954 O   0  0  0  0  0  0  0  0  0  0  0  0
   39.5440   10.8894   -1.4096 C   0  0  2  0  0  0  0  0  0  0  0  0
   39.8909   12.3322   -1.2773 N   0  0  0  0  0  0  0  0  0  0  0  0
   42.1288    7.6771   -3.4418 C   0  0  2  0  0  0  0  0  0  0  0  0
   41.1674    7.3699   -4.4721 O   0  0  0  0  0  0  0  0  0  0  0  0
   42.4051    2.9583   -4.3328 C   0  0  1  0  0  0  0  0  0  0  0  0
   46.8963    4.0912   -7.0736 C   0  0  0  0  0  0  0  0  0  0  0  0
   39.9514    4.2097    0.0098 C   0  0  2  0  0  0  0  0  0  0  0  0
   38.8060    3.7948   -0.8028 N   0  0  0  0  0  0  0  0  0  0  0  0
   38.9694   10.3603   -0.0174 C   0  0  0  0  0  0  0  0  0  0  0  0
   43.2402    6.6202   -3.5436 C   0  0  2  0  0  0  0  0  0  0  0  0
   44.1559    7.1754   -4.5880 O   0  0  0  0  0  0  0  0  0  0  0  0
   43.5044    1.8672   -4.8251 C   0  0  2  0  0  0  0  0  0  0  0  0
   43.9270    2.2077   -6.2219 N   0  0  0  0  0  0  0  0  0  0  0  0
   46.4591    3.9874   -5.7124 C   0  0  0  0  0  0  0  0  0  0  0  0
   47.0607    3.0324   -4.8514 N   0  0  0  0  0  0  0  0  0  0  0  0
   39.5669    4.3570    1.5546 C   0  0  1  0  0  0  0  0  0  0  0  0
   39.0519    3.1179    2.0166 O   0  0  0  0  0  0  0  0  0  0  0  0
   38.5891    8.7743   -0.1163 C   0  0  2  0  0  0  0  0  0  0  0  0
   38.0686    8.2863    1.1296 N   0  0  0  0  0  0  0  0  0  0  0  0
   42.3682    5.3917   -3.8650 C   0  0  2  0  0  0  0  0  0  0  0  0
   43.0291    4.2533   -4.3978 O   0  0  0  0  0  0  0  0  0  0  0  0
   42.8375    0.4595   -4.7729 C   0  0  1  0  0  0  0  0  0  0  0  0
   42.4811    0.2262   -3.3637 O   0  0  0  0  0  0  0  0  0  0  0  0
   48.0961    2.1509   -5.2744 C   0  0  0  0  0  0  0  0  0  0  0  0
   40.8386    4.7859    2.3428 C   0  0  2  0  0  0  0  0  0  0  0  0
   40.5424    4.9430    3.7873 O   0  0  0  0  0  0  0  0  0  0  0  0
   39.8728    7.9381   -0.5190 C   0  0  2  0  0  0  0  0  0  0  0  0
   41.2676    5.9662   -4.7884 C   0  0  1  0  0  0  0  0  0  0  0  0
   41.5189    0.4329   -5.7250 C   0  0  2  0  0  0  0  0  0  0  0  0
   41.8675    0.6658   -7.1351 O   0  0  0  0  0  0  0  0  0  0  0  0
   48.5701    2.2080   -6.6082 C   0  0  0  0  0  0  0  0  0  0  0  0
   41.3912    6.1559    1.7905 C   0  0  2  0  0  0  0  0  0  0  0  0
   41.6575    5.9391    0.3774 O   0  0  0  0  0  0  0  0  0  0  0  0
   40.4020    8.5030   -1.8828 C   0  0  2  0  0  0  0  0  0  0  0  0
   41.5316    7.6806   -2.1491 O   0  0  0  0  0  0  0  0  0  0  0  0
   39.8970    5.3488   -4.5153 C   0  0  0  0  0  0  0  0  0  0  0  0
   38.8842    5.6938   -5.4300 O   0  0  0  0  0  0  0  0  0  0  0  0
   40.4881    1.5515   -5.2361 C   0  0  1  0  0  0  0  0  0  0  0  0
   41.1899    2.8938   -5.2574 O   0  0  0  0  0  0  0  0  0  0  0  0
   47.9742    3.1871   -7.5466 C   0  0  0  0  0  0  0  0  0  0  0  0
   42.6004    6.4973    2.5569 C   0  0  0  0  0  0  0  0  0  0  0  0
   43.6559    5.8632    2.0309 O   0  0  0  0  0  0  0  0  0  0  0  0
   40.7900   10.0351   -1.7427 C   0  0  1  0  0  0  0  0  0  0  0  0
   41.2470   10.5232   -2.9611 O   0  0  0  0  0  0  0  0  0  0  0  0
   45.5386    6.7542   -4.9147 C   0  0  0  0  0  0  0  0  0  0  0  0
   39.2601    1.4868   -6.1845 C   0  0  0  0  0  0  0  0  0  0  0  0
   38.5003    0.2842   -5.9494 N   0  0  0  0  0  0  0  0  0  0  0  0
   45.7928    7.1292   -6.3783 C   0  0  0  0  0  0  0  0  0  0  0  0
   45.1884    6.0887   -7.2721 N   0  0  0  0  0  0  0  0  0  0  0  0
   46.1988    5.1816   -8.0248 C   0  0  0  0  0  0  0  0  0  0  0  0
  1  2  1  1  0  0  0
  1  9  1  0  0  0  0
  1 35  1  0  0  0  0
  3  4  1  1  0  0  0
  3 11  1  0  0  0  0
  3 45  1  0  0  0  0
  5  6  1  0  0  0  0
  5 12  1  0  0  0  0
  5 37  1  1  0  0  0
  6 30  1  0  0  0  0
  7 14  1  0  0  0  0
  7 41  1  0  0  0  0
  7 23  1  6  0  0  0
  8 16  2  0  0  0  0
  8 42  1  0  0  0  0
  9 10  1  6  0  0  0
  9 18  1  0  0  0  0
 11 20  1  0  0  0  0
 12 13  1  6  0  0  0
 12 22  1  0  0  0  0
 13 47  1  0  0  0  0
 14 15  1  6  0  0  0
 14 24  1  0  0  0  0
 16 17  1  0  0  0  0
 17 26  2  0  0  0  0
 18 19  1  1  0  0  0
 18 27  1  0  0  0  0
 20 21  1  1  0  0  0
 20 29  1  0  0  0  0
 22 23  1  6  0  0  0
 22 30  1  0  0  0  0
 24 25  1  1  0  0  0
 24 31  1  0  0  0  0
 26 33  1  0  0  0  0
 27 28  1  1  0  0  0
 27 34  1  0  0  0  0
 29  2  1  6  0  0  0
 29 36  1  0  0  0  0
 30 38  1  1  0  0  0
 31 32  1  6  0  0  0
 31 40  1  0  0  0  0
 33 42  2  0  0  0  0
 34 35  1  0  0  0  0
 34 43  1  1  0  0  0
 36 37  1  1  0  0  0
 36 45  1  0  0  0  0
 38 39  1  0  0  0  0
 40 41  1  0  0  0  0
 40 48  1  6  0  0  0
 43 44  1  0  0  0  0
 45 46  1  6  0  0  0
 47 50  1  0  0  0  0
 48 49  1  0  0  0  0
 50 51  1  0  0  0  0
 51 52  1  0  0  0  0
 52  8  1  0  0  0  0
M  END
>  <CHROM.1>
154.59812500,-55.12052947,-171.93516482,165.82118541,154.38518408,160.38439847
-160.71372472,71.67020798,83.60367890,166.31075240,70.57023892,-80.68204247
-109.52453090,74.15649365,5.00676777,42.05004261,5.22937733,-3.00640060,2.40895292
0.82104359,0.26224217

>  <Name>
2be0_lig

>  <RI>
2.10017e+07

>  <Rbt.Current_Directory>
/home/itssahil/PROJECTS/Mol_Feturizer/New_Systems/rnas/2be0

>  <Rbt.Executable>
rbdock ($Id: //depot/dev/client3/rdock/2013.1/src/exe/rbdock.cxx#4 $)

>  <Rbt.Library>
libRbt.so (2013.1, Build901 2013/11/27)

>  <Rbt.Parameter_File>
/export/apps/rDock/src/rDock_2013.1_src/data/scripts/dock_solv.prm

>  <Rbt.Receptor>
prm/pocket_docking_3.prm

>  <SCORE>
-12.5486

>  <SCORE.INTER>
0.543104

>  <SCORE.INTER.CONST>
1

>  <SCORE.INTER.POLAR>
-0.297989

>  <SCORE.INTER.ROT>
15

>  <SCORE.INTER.SOLV>
16.0382

>  <SCORE.INTER.VDW>
-17.5907

>  <SCORE.INTER.norm>
0.0104443

>  <SCORE.INTRA>
-14.8169

>  <SCORE.INTRA.DIHEDRAL>
-30.2138

>  <SCORE.INTRA.DIHEDRAL.0>
47.8724

>  <SCORE.INTRA.POLAR>
0

>  <SCORE.INTRA.POLAR.0>
0

>  <SCORE.INTRA.REPUL>
0.00623186

>  <SCORE.INTRA.REPUL.0>
0

>  <SCORE.INTRA.SOLV>
-0.0183602

>  <SCORE.INTRA.SOLV.lig_0>
-115.677

>  <SCORE.INTRA.VDW>
0.268031

>  <SCORE.INTRA.VDW.0>
-7.4833

>  <SCORE.INTRA.norm>
-0.284941

>  <SCORE.RESTR>
1.72518

>  <SCORE.RESTR.CAVITY>
1.72518

>  <SCORE.RESTR.norm>
0.0331765

>  <SCORE.SYSTEM>
0

>  <SCORE.SYSTEM.CONST>
0

>  <SCORE.SYSTEM.DIHEDRAL>
0

>  <SCORE.SYSTEM.SOLV>
0

>  <SCORE.SYSTEM.norm>
0

>  <SCORE.heavy>
52

>  <SCORE.norm>
-0.24132

>  <RMSD>
9.363

$$$$
2be0_lig
 OpenBabel11021811423D
libRbt.so/2013.1/901 2013/11/27
 52 56  0  0  0  0  0  0  0  0999 V2000
   41.6494    6.2669    0.1653 C   0  0  2  0  0  0  0  0  0  0  0  0
   41.3866    4.8955    0.3474 O   0  0  0  0  0  0  0  0  0  0  0  0
   41.6281    1.6295   -2.5929 C   0  0  2  0  0  0  0  0  0  0  0  0
   41.2666    0.7631   -3.7497 N   0  0  0  0  0  0  0  0  0  0  0  0
   43.7632    5.7669   -2.6669 C   0  0  2  0  0  0  0  0  0  0  0  0
   44.1074    7.0930   -2.2159 O   0  0  0  0  0  0  0  0  0  0  0  0
   43.9390    7.0681   -6.7500 C   0  0  1  0  0  0  0  0  0  0  0  0
   48.5966    4.4517   -6.9876 C   0  0  0  0  0  0  0  0  0  0  0  0
   42.0063    6.9694    1.5382 C   0  0  2  0  0  0  0  0  0  0  0  0
   43.1106    6.2586    2.1862 N   0  0  0  0  0  0  0  0  0  0  0  0
   40.4053    1.6693   -1.5675 C   0  0  0  0  0  0  0  0  0  0  0  0
   43.7680    5.8064   -4.2034 C   0  0  2  0  0  0  0  0  0  0  0  0
   45.2031    5.5723   -4.5546 O   0  0  0  0  0  0  0  0  0  0  0  0
   44.5549    8.1616   -7.7826 C   0  0  2  0  0  0  0  0  0  0  0  0
   43.4392    9.0222   -8.2928 N   0  0  0  0  0  0  0  0  0  0  0  0
   48.7489    5.8767   -7.0155 C   0  0  0  0  0  0  0  0  0  0  0  0
   49.9188    6.4697   -6.4727 N   0  0  0  0  0  0  0  0  0  0  0  0
   40.7058    7.0273    2.4662 C   0  0  1  0  0  0  0  0  0  0  0  0
   41.0484    7.6529    3.6932 O   0  0  0  0  0  0  0  0  0  0  0  0
   40.7568    2.6228   -0.2880 C   0  0  2  0  0  0  0  0  0  0  0  0
   39.6651    2.6653    0.6435 N   0  0  0  0  0  0  0  0  0  0  0  0
   43.1486    7.2023   -4.4051 C   0  0  2  0  0  0  0  0  0  0  0  0
   43.3012    7.7967   -5.6857 O   0  0  0  0  0  0  0  0  0  0  0  0
   45.2379    7.3860   -8.9493 C   0  0  1  0  0  0  0  0  0  0  0  0
   46.3183    6.5941   -8.3386 O   0  0  0  0  0  0  0  0  0  0  0  0
   50.9724    5.7112   -5.8873 C   0  0  0  0  0  0  0  0  0  0  0  0
   39.5917    7.8073    1.7095 C   0  0  2  0  0  0  0  0  0  0  0  0
   38.3540    7.8910    2.5220 O   0  0  0  0  0  0  0  0  0  0  0  0
   41.0870    4.0900   -0.7860 C   0  0  2  0  0  0  0  0  0  0  0  0
   43.7584    8.0341   -3.2517 C   0  0  1  0  0  0  0  0  0  0  0  0
   44.1528    6.4271   -9.6903 C   0  0  2  0  0  0  0  0  0  0  0  0
   43.0696    7.2119  -10.3027 O   0  0  0  0  0  0  0  0  0  0  0  0
   50.8783    4.2987   -5.8323 C   0  0  0  0  0  0  0  0  0  0  0  0
   39.2507    7.0929    0.3453 C   0  0  2  0  0  0  0  0  0  0  0  0
   40.4982    7.0383   -0.4001 O   0  0  0  0  0  0  0  0  0  0  0  0
   42.2835    3.9936   -1.7951 C   0  0  2  0  0  0  0  0  0  0  0  0
   42.4986    5.3511   -2.1615 O   0  0  0  0  0  0  0  0  0  0  0  0
   42.7544    9.0129   -2.6449 C   0  0  0  0  0  0  0  0  0  0  0  0
   42.7442    9.0760   -1.2388 O   0  0  0  0  0  0  0  0  0  0  0  0
   43.5382    5.4020   -8.6299 C   0  0  1  0  0  0  0  0  0  0  0  0
   42.9279    6.1953   -7.4928 O   0  0  0  0  0  0  0  0  0  0  0  0
   49.6767    3.6315   -6.3846 C   0  0  0  0  0  0  0  0  0  0  0  0
   38.2112    7.8846   -0.3319 C   0  0  0  0  0  0  0  0  0  0  0  0
   38.7838    8.7035   -1.2231 O   0  0  0  0  0  0  0  0  0  0  0  0
   41.8973    3.0864   -3.0382 C   0  0  1  0  0  0  0  0  0  0  0  0
   42.9705    3.0026   -3.9173 O   0  0  0  0  0  0  0  0  0  0  0  0
   46.0080    4.3437   -4.3576 C   0  0  0  0  0  0  0  0  0  0  0  0
   42.5058    4.5244   -9.3885 C   0  0  0  0  0  0  0  0  0  0  0  0
   41.8927    3.5746   -8.4937 N   0  0  0  0  0  0  0  0  0  0  0  0
   45.7415    3.4300   -5.5582 C   0  0  0  0  0  0  0  0  0  0  0  0
   45.9787    4.1918   -6.8271 N   0  0  0  0  0  0  0  0  0  0  0  0
   47.2631    3.8080   -7.6103 C   0  0  0  0  0  0  0  0  0  0  0  0
  1  2  1  1  0  0  0
  1  9  1  0  0  0  0
  1 35  1  0  0  0  0
  3  4  1  6  0  0  0
  3 11  1  0  0  0  0
  3 45  1  0  0  0  0
  5  6  1  0  0  0  0
  5 12  1  0  0  0  0
  5 37  1  1  0  0  0
  6 30  1  0  0  0  0
  7 14  1  0  0  0  0
  7 41  1  0  0  0  0
  7 23  1  1  0  0  0
  8 16  2  0  0  0  0
  8 42  1  0  0  0  0
  9 10  1  1  0  0  0
  9 18  1  0  0  0  0
 11 20  1  0  0  0  0
 12 13  1  1  0  0  0
 12 22  1  0  0  0  0
 13 47  1  0  0  0  0
 14 15  1  6  0  0  0
 14 24  1  0  0  0  0
 16 17  1  0  0  0  0
 17 26  2  0  0  0  0
 18 19  1  1  0  0  0
 18 27  1  0  0  0  0
 20 21  1  1  0  0  0
 20 29  1  0  0  0  0
 22 23  1  6  0  0  0
 22 30  1  0  0  0  0
 24 25  1  1  0  0  0
 24 31  1  0  0  0  0
 26 33  1  0  0  0  0
 27 28  1  1  0  0  0
 27 34  1  0  0  0  0
 29  2  1  1  0  0  0
 29 36  1  0  0  0  0
 30 38  1  1  0  0  0
 31 32  1  1  0  0  0
 31 40  1  0  0  0  0
 33 42  2  0  0  0  0
 34 35  1  0  0  0  0
 34 43  1  6  0  0  0
 36 37  1  6  0  0  0
 36 45  1  0  0  0  0
 38 39  1  0  0  0  0
 40 41  1  0  0  0  0
 40 48  1  6  0  0  0
 43 44  1  0  0  0  0
 45 46  1  6  0  0  0
 47 50  1  0  0  0  0
 48 49  1  0  0  0  0
 50 51  1  0  0  0  0
 51 52  1  0  0  0  0
 52  8  1  0  0  0  0
M  END
>  <CHROM.1>
-178.08892904,-143.69290700,-154.64836442,67.07372977,84.42907369,3.67790078
-176.86101576,19.88978506,96.64499792,157.16281561,-179.47567658,52.65773703
107.45344560,-78.69166175,-65.41680237,43.33785657,5.76290031,-3.69696251
-2.36140508,0.60612281,-1.13248898

>  <Name>
2be0_lig

>  <RI>
2.10017e+07

>  <Rbt.Current_Directory>
/home/itssahil/PROJECTS/Mol_Feturizer/New_Systems/rnas/2be0

>  <Rbt.Executable>
rbdock ($Id: //depot/dev/client3/rdock/2013.1/src/exe/rbdock.cxx#4 $)

>  <Rbt.Library>
libRbt.so (2013.1, Build901 2013/11/27)

>  <Rbt.Parameter_File>
/export/apps/rDock/src/rDock_2013.1_src/data/scripts/dock_solv.prm

>  <Rbt.Receptor>
prm/pocket_docking_3.prm

>  <SCORE>
-10.4719

>  <SCORE.INTER>
-2.74632

>  <SCORE.INTER.CONST>
1

>  <SCORE.INTER.POLAR>
-0.856685

>  <SCORE.INTER.ROT>
15

>  <SCORE.INTER.SOLV>
18.8561

>  <SCORE.INTER.VDW>
-18.8606

>  <SCORE.INTER.norm>
-0.0528139

>  <SCORE.INTRA>
-8.44861

>  <SCORE.INTRA.DIHEDRAL>
-17.9814

>  <SCORE.INTRA.DIHEDRAL.0>
47.8724

>  <SCORE.INTRA.POLAR>
0

>  <SCORE.INTRA.POLAR.0>
0

>  <SCORE.INTRA.REPUL>
0.078731

>  <SCORE.INTRA.REPUL.0>
0

>  <SCORE.INTRA.SOLV>
-0.338164

>  <SCORE.INTRA.SOLV.lig_0>
-115.677

>  <SCORE.INTRA.VDW>
0.317502

>  <SCORE.INTRA.VDW.0>
-7.4833

>  <SCORE.INTRA.norm>
-0.162473

>  <SCORE.RESTR>
0.723032

>  <SCORE.RESTR.CAVITY>
0.723032

>  <SCORE.RESTR.norm>
0.0139045

>  <SCORE.SYSTEM>
0

>  <SCORE.SYSTEM.CONST>
0

>  <SCORE.SYSTEM.DIHEDRAL>
0

>  <SCORE.SYSTEM.SOLV>
0

>  <SCORE.SYSTEM.norm>
0

>  <SCORE.heavy>
52

>  <SCORE.norm>
-0.201383

>  <RMSD>
9.369

$$$$
2be0_lig
 OpenBabel11021811423D
libRbt.so/2013.1/901 2013/11/27
 52 56  0  0  0  0  0  0  0  0999 V2000
   41.0893   -0.8001   -2.4423 C   0  0  2  0  0  0  0  0  0  0  0  0
   41.4453   -1.8328   -3.3308 O   0  0  0  0  0  0  0  0  0  0  0  0
   44.7049   -2.3367   -6.2449 C   0  0  2  0  0  0  0  0  0  0  0  0
   45.5981   -2.0533   -7.4031 N   0  0  0  0  0  0  0  0  0  0  0  0
   45.1125    0.0171   -2.5171 C   0  0  2  0  0  0  0  0  0  0  0  0
   45.0445    0.4605   -1.1463 O   0  0  0  0  0  0  0  0  0  0  0  0
   44.6606    4.3418   -4.0463 C   0  0  1  0  0  0  0  0  0  0  0  0
   49.7550    5.2821   -5.3072 C   0  0  0  0  0  0  0  0  0  0  0  0
   40.0260   -1.2983   -1.3807 C   0  0  2  0  0  0  0  0  0  0  0  0
   40.5306   -2.4905   -0.6961 N   0  0  0  0  0  0  0  0  0  0  0  0
   43.1912   -2.3785   -6.7503 C   0  0  0  0  0  0  0  0  0  0  0  0
   45.5247    1.2364   -3.3573 C   0  0  2  0  0  0  0  0  0  0  0  0
   47.0176    1.2361   -3.2648 O   0  0  0  0  0  0  0  0  0  0  0  0
   45.3611    5.8083   -4.0490 C   0  0  2  0  0  0  0  0  0  0  0  0
   44.9295    6.5491   -2.8199 N   0  0  0  0  0  0  0  0  0  0  0  0
   49.9323    6.3245   -6.2751 C   0  0  0  0  0  0  0  0  0  0  0  0
   51.2166    6.5537   -6.8346 N   0  0  0  0  0  0  0  0  0  0  0  0
   38.6287   -1.5723   -2.1075 C   0  0  1  0  0  0  0  0  0  0  0  0
   37.6929   -2.0247   -1.1412 O   0  0  0  0  0  0  0  0  0  0  0  0
   42.1757   -2.6735   -5.5047 C   0  0  2  0  0  0  0  0  0  0  0  0
   40.8103   -2.7158   -5.9466 N   0  0  0  0  0  0  0  0  0  0  0  0
   44.7123    2.3168   -2.6186 C   0  0  2  0  0  0  0  0  0  0  0  0
   45.0813    3.6692   -2.8458 O   0  0  0  0  0  0  0  0  0  0  0  0
   44.9032    6.5547   -5.3383 C   0  0  1  0  0  0  0  0  0  0  0  0
   45.3916    5.7527   -6.4722 O   0  0  0  0  0  0  0  0  0  0  0  0
   52.3648    5.7901   -6.4788 C   0  0  0  0  0  0  0  0  0  0  0  0
   38.1616   -0.2564   -2.7948 C   0  0  2  0  0  0  0  0  0  0  0  0
   36.8671   -0.4498   -3.4920 O   0  0  0  0  0  0  0  0  0  0  0  0
   42.3411   -1.5509   -4.3992 C   0  0  2  0  0  0  0  0  0  0  0  0
   44.8048    1.8829   -1.1364 C   0  0  1  0  0  0  0  0  0  0  0  0
   43.2816    6.6803   -5.3622 C   0  0  2  0  0  0  0  0  0  0  0  0
   42.7862    7.4804   -4.2314 O   0  0  0  0  0  0  0  0  0  0  0  0
   52.2507    4.7458   -5.5283 C   0  0  0  0  0  0  0  0  0  0  0  0
   39.2332    0.2239   -3.8476 C   0  0  2  0  0  0  0  0  0  0  0  0
   40.4738    0.3911   -3.1074 O   0  0  0  0  0  0  0  0  0  0  0  0
   43.8424   -1.5445   -3.9463 C   0  0  2  0  0  0  0  0  0  0  0  0
   43.8705   -0.5221   -2.9578 O   0  0  0  0  0  0  0  0  0  0  0  0
   43.4968    2.1092   -0.3801 C   0  0  0  0  0  0  0  0  0  0  0  0
   42.4296    1.2698   -0.7512 O   0  0  0  0  0  0  0  0  0  0  0  0
   42.6349    5.2202   -5.3094 C   0  0  1  0  0  0  0  0  0  0  0  0
   43.1422    4.5146   -4.0686 O   0  0  0  0  0  0  0  0  0  0  0  0
   50.9317    4.4671   -4.9143 C   0  0  0  0  0  0  0  0  0  0  0  0
   38.7482    1.4780   -4.4461 C   0  0  0  0  0  0  0  0  0  0  0  0
   37.7632    1.2075   -5.3117 O   0  0  0  0  0  0  0  0  0  0  0  0
   44.7971   -1.2253   -5.1728 C   0  0  1  0  0  0  0  0  0  0  0  0
   46.1234   -1.2334   -4.7576 O   0  0  0  0  0  0  0  0  0  0  0  0
   47.9584    2.3318   -3.5974 C   0  0  0  0  0  0  0  0  0  0  0  0
   41.0928    5.4028   -5.3234 C   0  0  0  0  0  0  0  0  0  0  0  0
   40.6406    5.9933   -4.0883 N   0  0  0  0  0  0  0  0  0  0  0  0
   47.9095    2.5257   -5.1164 C   0  0  0  0  0  0  0  0  0  0  0  0
   47.4945    3.9322   -5.4267 N   0  0  0  0  0  0  0  0  0  0  0  0
   48.2904    5.0443   -4.6919 C   0  0  0  0  0  0  0  0  0  0  0  0
  1  2  1  6  0  0  0
  1  9  1  0  0  0  0
  1 35  1  0  0  0  0
  3  4  1  6  0  0  0
  3 11  1  0  0  0  0
  3 45  1  0  0  0  0
  5  6  1  0  0  0  0
  5 12  1  0  0  0  0
  5 37  1  6  0  0  0
  6 30  1  0  0  0  0
  7 14  1  0  0  0  0
  7 41  1  0  0  0  0
  7 23  1  1  0  0  0
  8 16  2  0  0  0  0
  8 42  1  0  0  0  0
  9 10  1  6  0  0  0
  9 18  1  0  0  0  0
 11 20  1  0  0  0  0
 12 13  1  1  0  0  0
 12 22  1  0  0  0  0
 13 47  1  0  0  0  0
 14 15  1  1  0  0  0
 14 24  1  0  0  0  0
 16 17  1  0  0  0  0
 17 26  2  0  0  0  0
 18 19  1  1  0  0  0
 18 27  1  0  0  0  0
 20 21  1  6  0  0  0
 20 29  1  0  0  0  0
 22 23  1  1  0  0  0
 22 30  1  0  0  0  0
 24 25  1  6  0  0  0
 24 31  1  0  0  0  0
 26 33  1  0  0  0  0
 27 28  1  6  0  0  0
 27 34  1  0  0  0  0
 29  2  1  1  0  0  0
 29 36  1  0  0  0  0
 30 38  1  1  0  0  0
 31 32  1  1  0  0  0
 31 40  1  0  0  0  0
 33 42  2  0  0  0  0
 34 35  1  0  0  0  0
 34 43  1  1  0  0  0
 36 37  1  1  0  0  0
 36 45  1  0  0  0  0
 38 39  1  0  0  0  0
 40 41  1  0  0  0  0
 40 48  1  1  0  0  0
 43 44  1  0  0  0  0
 45 46  1  1  0  0  0
 47 50  1  0  0  0  0
 48 49  1  0  0  0  0
 50 51  1  0  0  0  0
 51 52  1  0  0  0  0
 52  8  1  0  0  0  0
M  END
>  <CHROM.1>
176.80744087,-149.90111767,-174.92257756,-164.27454705,-68.36803945,79.05339606
-160.16688062,-46.94963383,-75.00167496,-165.17486942,-68.87101517,121.15238501
50.68018752,75.77692282,95.46546301,43.91984398,1.89430241,-4.01535064,-2.53239194
0.19823854,-0.05254511

>  <Name>
2be0_lig

>  <RI>
3.37048e+07

>  <Rbt.Current_Directory>
/home/itssahil/PROJECTS/Mol_Feturizer/New_Systems/rnas/2be0

>  <Rbt.Executable>
rbdock ($Id: //depot/dev/client3/rdock/2013.1/src/exe/rbdock.cxx#4 $)

>  <Rbt.Library>
libRbt.so (2013.1, Build901 2013/11/27)

>  <Rbt.Parameter_File>
/export/apps/rDock/src/rDock_2013.1_src/data/scripts/dock_solv.prm

>  <Rbt.Receptor>
prm/pocket_docking_8.prm

>  <SCORE>
-24.2357

>  <SCORE.INTER>
-12.6455

>  <SCORE.INTER.CONST>
1

>  <SCORE.INTER.POLAR>
-0.797743

>  <SCORE.INTER.ROT>
15

>  <SCORE.INTER.SOLV>
16.8205

>  <SCORE.INTER.VDW>
-24.978

>  <SCORE.INTER.norm>
-0.243183

>  <SCORE.INTRA>
-11.5902

>  <SCORE.INTRA.DIHEDRAL>
-29.6252

>  <SCORE.INTRA.DIHEDRAL.0>
47.8724

>  <SCORE.INTRA.POLAR>
0

>  <SCORE.INTRA.POLAR.0>
0

>  <SCORE.INTRA.REPUL>
0.0833579

>  <SCORE.INTRA.REPUL.0>
0

>  <SCORE.INTRA.SOLV>
1.90392

>  <SCORE.INTRA.SOLV.lig_0>
-115.677

>  <SCORE.INTRA.VDW>
1.85367

>  <SCORE.INTRA.VDW.0>
-7.4833

>  <SCORE.INTRA.norm>
-0.222888

>  <SCORE.RESTR>
0

>  <SCORE.RESTR.CAVITY>
0

>  <SCORE.RESTR.norm>
0

>  <SCORE.SYSTEM>
0

>  <SCORE.SYSTEM.CONST>
0

>  <SCORE.SYSTEM.DIHEDRAL>
0

>  <SCORE.SYSTEM.SOLV>
0

>  <SCORE.SYSTEM.norm>
0

>  <SCORE.heavy>
52

>  <SCORE.norm>
-0.466071

>  <RMSD>
9.369

$$$$
2be0_lig
 OpenBabel11021811423D
libRbt.so/2013.1/901 2013/11/27
 52 56  0  0  0  0  0  0  0  0999 V2000
   40.6735    1.3433   -4.9826 C   0  0  2  0  0  0  0  0  0  0  0  0
   40.4851    1.5484   -3.6023 O   0  0  0  0  0  0  0  0  0  0  0  0
   42.6551    3.3241   -0.2097 C   0  0  2  0  0  0  0  0  0  0  0  0
   43.7922    3.8301    0.6090 N   0  0  0  0  0  0  0  0  0  0  0  0
   40.6464    5.5784   -3.6654 C   0  0  2  0  0  0  0  0  0  0  0  0
   39.9705    5.8562   -4.9089 O   0  0  0  0  0  0  0  0  0  0  0  0
   43.6718    7.7748   -6.6819 C   0  0  1  0  0  0  0  0  0  0  0  0
   40.1116    8.3404    2.0114 C   0  0  0  0  0  0  0  0  0  0  0  0
   39.3260    0.9005   -5.6854 C   0  0  2  0  0  0  0  0  0  0  0  0
   38.2714    1.8734   -5.3926 N   0  0  0  0  0  0  0  0  0  0  0  0
   42.9316    1.8021   -0.6041 C   0  0  0  0  0  0  0  0  0  0  0  0
   41.7748    6.6137   -3.5337 C   0  0  2  0  0  0  0  0  0  0  0  0
   41.0945    7.7960   -2.9200 O   0  0  0  0  0  0  0  0  0  0  0  0
   45.0257    6.8892   -6.5272 C   0  0  2  0  0  0  0  0  0  0  0  0
   45.8836    7.5048   -5.4639 N   0  0  0  0  0  0  0  0  0  0  0  0
   38.9352    7.6216    2.4043 C   0  0  0  0  0  0  0  0  0  0  0  0
   39.0612    6.4225    3.1534 N   0  0  0  0  0  0  0  0  0  0  0  0
   38.9299   -0.5730   -5.2080 C   0  0  1  0  0  0  0  0  0  0  0  0
   37.7170   -0.9475   -5.8428 O   0  0  0  0  0  0  0  0  0  0  0  0
   41.7113    1.2124   -1.5168 C   0  0  2  0  0  0  0  0  0  0  0  0
   41.9469   -0.1574   -1.8765 N   0  0  0  0  0  0  0  0  0  0  0  0
   42.2195    6.6663   -5.0076 C   0  0  2  0  0  0  0  0  0  0  0  0
   43.0129    7.7758   -5.4027 O   0  0  0  0  0  0  0  0  0  0  0  0
   45.7578    6.8904   -7.9031 C   0  0  1  0  0  0  0  0  0  0  0  0
   44.8366    6.2536   -8.8588 O   0  0  0  0  0  0  0  0  0  0  0  0
   40.3191    5.8806    3.5435 C   0  0  0  0  0  0  0  0  0  0  0  0
   40.0949   -1.5401   -5.5679 C   0  0  2  0  0  0  0  0  0  0  0  0
   39.7860   -2.9273   -5.1442 O   0  0  0  0  0  0  0  0  0  0  0  0
   41.5511    2.0856   -2.8288 C   0  0  2  0  0  0  0  0  0  0  0  0
   40.8891    6.5384   -5.7872 C   0  0  1  0  0  0  0  0  0  0  0  0
   46.1038    8.4164   -8.3478 C   0  0  2  0  0  0  0  0  0  0  0  0
   47.0239    9.0594   -7.3968 O   0  0  0  0  0  0  0  0  0  0  0  0
   41.5163    6.5476    3.1849 C   0  0  0  0  0  0  0  0  0  0  0  0
   41.4276   -1.0825   -4.8593 C   0  0  2  0  0  0  0  0  0  0  0  0
   41.6729    0.2783   -5.3098 O   0  0  0  0  0  0  0  0  0  0  0  0
   41.2931    3.5679   -2.3870 C   0  0  2  0  0  0  0  0  0  0  0  0
   41.1540    4.2485   -3.6283 O   0  0  0  0  0  0  0  0  0  0  0  0
   41.0291    5.6775   -7.0416 C   0  0  0  0  0  0  0  0  0  0  0  0
   41.5123    4.3725   -6.8297 O   0  0  0  0  0  0  0  0  0  0  0  0
   44.7515    9.2623   -8.4402 C   0  0  1  0  0  0  0  0  0  0  0  0
   44.0504    9.1955   -7.0991 O   0  0  0  0  0  0  0  0  0  0  0  0
   41.4387    7.8029    2.4022 C   0  0  0  0  0  0  0  0  0  0  0  0
   42.4930   -2.0185   -5.2529 C   0  0  0  0  0  0  0  0  0  0  0  0
   43.5864   -1.7853   -4.5161 O   0  0  0  0  0  0  0  0  0  0  0  0
   42.5096    4.1178   -1.5296 C   0  0  1  0  0  0  0  0  0  0  0  0
   42.2612    5.4278   -1.1374 O   0  0  0  0  0  0  0  0  0  0  0  0
   40.5053    7.9155   -1.5654 C   0  0  0  0  0  0  0  0  0  0  0  0
   45.1435   10.7064   -8.8557 C   0  0  0  0  0  0  0  0  0  0  0  0
   45.5937   11.4591   -7.7113 N   0  0  0  0  0  0  0  0  0  0  0  0
   40.0551    9.3699   -1.3937 C   0  0  0  0  0  0  0  0  0  0  0  0
   39.1878    9.4833   -0.1765 N   0  0  0  0  0  0  0  0  0  0  0  0
   39.9389    9.6951    1.1655 C   0  0  0  0  0  0  0  0  0  0  0  0
  1  2  1  1  0  0  0
  1  9  1  0  0  0  0
  1 35  1  0  0  0  0
  3  4  1  6  0  0  0
  3 11  1  0  0  0  0
  3 45  1  0  0  0  0
  5  6  1  0  0  0  0
  5 12  1  0  0  0  0
  5 37  1  6  0  0  0
  6 30  1  0  0  0  0
  7 14  1  0  0  0  0
  7 41  1  0  0  0  0
  7 23  1  1  0  0  0
  8 16  2  0  0  0  0
  8 42  1  0  0  0  0
  9 10  1  1  0  0  0
  9 18  1  0  0  0  0
 11 20  1  0  0  0  0
 12 13  1  6  0  0  0
 12 22  1  0  0  0  0
 13 47  1  0  0  0  0
 14 15  1  1  0  0  0
 14 24  1  0  0  0  0
 16 17  1  0  0  0  0
 17 26  2  0  0  0  0
 18 19  1  6  0  0  0
 18 27  1  0  0  0  0
 20 21  1  6  0  0  0
 20 29  1  0  0  0  0
 22 23  1  1  0  0  0
 22 30  1  0  0  0  0
 24 25  1  6  0  0  0
 24 31  1  0  0  0  0
 26 33  1  0  0  0  0
 27 28  1  1  0  0  0
 27 34  1  0  0  0  0
 29  2  1  1  0  0  0
 29 36  1  0  0  0  0
 30 38  1  6  0  0  0
 31 32  1  1  0  0  0
 31 40  1  0  0  0  0
 33 42  2  0  0  0  0
 34 35  1  0  0  0  0
 34 43  1  6  0  0  0
 36 37  1  6  0  0  0
 36 45  1  0  0  0  0
 38 39  1  0  0  0  0
 40 41  1  0  0  0  0
 40 48  1  1  0  0  0
 43 44  1  0  0  0  0
 45 46  1  1  0  0  0
 47 50  1  0  0  0  0
 48 49  1  0  0  0  0
 50 51  1  0  0  0  0
 51 52  1  0  0  0  0
 52  8  1  0  0  0  0
M  END
>  <CHROM.1>
-173.45439585,-151.32256520,-80.50394218,66.52521941,174.76969464,168.41159063
-132.85420083,-59.59018957,-170.68148287,167.51778844,-81.17531969,167.64805917
85.97863465,-99.16363180,-58.95969423,41.88161027,4.84888074,-3.73669240
-2.43977366,1.11027249,0.59661225

>  <Name>
2be0_lig

>  <RI>
2.10017e+07

>  <Rbt.Current_Directory>
/home/itssahil/PROJECTS/Mol_Feturizer/New_Systems/rnas/2be0

>  <Rbt.Executable>
rbdock ($Id: //depot/dev/client3/rdock/2013.1/src/exe/rbdock.cxx#4 $)

>  <Rbt.Library>
libRbt.so (2013.1, Build901 2013/11/27)

>  <Rbt.Parameter_File>
/export/apps/rDock/src/rDock_2013.1_src/data/scripts/dock_solv.prm

>  <Rbt.Receptor>
prm/pocket_docking_3.prm

>  <SCORE>
-17.6463

>  <SCORE.INTER>
-3.81896

>  <SCORE.INTER.CONST>
1

>  <SCORE.INTER.POLAR>
-1.04578

>  <SCORE.INTER.ROT>
15

>  <SCORE.INTER.SOLV>
27.7497

>  <SCORE.INTER.VDW>
-21.9099

>  <SCORE.INTER.norm>
-0.0734416

>  <SCORE.INTRA>
-13.8283

>  <SCORE.INTRA.DIHEDRAL>
-29.4452

>  <SCORE.INTRA.DIHEDRAL.0>
47.8724

>  <SCORE.INTRA.POLAR>
0

>  <SCORE.INTRA.POLAR.0>
0

>  <SCORE.INTRA.REPUL>
0

>  <SCORE.INTRA.REPUL.0>
0

>  <SCORE.INTRA.SOLV>
0.485972

>  <SCORE.INTRA.SOLV.lig_0>
-115.677

>  <SCORE.INTRA.VDW>
0.651333

>  <SCORE.INTRA.VDW.0>
-7.4833

>  <SCORE.INTRA.norm>
-0.265928

>  <SCORE.RESTR>
0.000887148

>  <SCORE.RESTR.CAVITY>
0.000887148

>  <SCORE.RESTR.norm>
1.70605e-05

>  <SCORE.SYSTEM>
0

>  <SCORE.SYSTEM.CONST>
0

>  <SCORE.SYSTEM.DIHEDRAL>
0

>  <SCORE.SYSTEM.SOLV>
0

>  <SCORE.SYSTEM.norm>
0

>  <SCORE.heavy>
52

>  <SCORE.norm>
-0.339353

>  <RMSD>
9.378

$$$$
2be0_lig
 OpenBabel11021811423D
libRbt.so/2013.1/901 2013/11/27
 52 56  0  0  0  0  0  0  0  0999 V2000
   40.6378   -1.2001   -4.9718 C   0  0  2  0  0  0  0  0  0  0  0  0
   41.7855   -0.3897   -4.8768 O   0  0  0  0  0  0  0  0  0  0  0  0
   40.7275    2.0540   -1.3725 C   0  0  2  0  0  0  0  0  0  0  0  0
   40.8959    2.9312   -0.1801 N   0  0  0  0  0  0  0  0  0  0  0  0
   42.0193    3.7233   -5.1189 C   0  0  2  0  0  0  0  0  0  0  0  0
   42.1119    4.2481   -6.4592 O   0  0  0  0  0  0  0  0  0  0  0  0
   46.2560    4.4518   -6.8419 C   0  0  1  0  0  0  0  0  0  0  0  0
   41.0802    7.5443    0.6205 C   0  0  0  0  0  0  0  0  0  0  0  0
   40.7720   -2.2479   -6.1508 C   0  0  2  0  0  0  0  0  0  0  0  0
   42.0044   -3.0220   -5.9878 N   0  0  0  0  0  0  0  0  0  0  0  0
   41.5845    0.7229   -1.1673 C   0  0  0  0  0  0  0  0  0  0  0  0
   43.4191    3.8484   -4.4966 C   0  0  2  0  0  0  0  0  0  0  0  0
   43.4422    5.2468   -3.9662 O   0  0  0  0  0  0  0  0  0  0  0  0
   47.8224    4.0187   -6.8394 C   0  0  2  0  0  0  0  0  0  0  0  0
   48.4451    4.4752   -5.5551 N   0  0  0  0  0  0  0  0  0  0  0  0
   41.9753    6.9993    1.5985 C   0  0  0  0  0  0  0  0  0  0  0  0
   41.4669    6.5570    2.8479 N   0  0  0  0  0  0  0  0  0  0  0  0
   40.7258   -1.4855   -7.5552 C   0  0  1  0  0  0  0  0  0  0  0  0
   40.8551   -2.4404   -8.5971 O   0  0  0  0  0  0  0  0  0  0  0  0
   41.4379   -0.2624   -2.4625 C   0  0  2  0  0  0  0  0  0  0  0  0
   42.2027   -1.4651   -2.2894 N   0  0  0  0  0  0  0  0  0  0  0  0
   44.2607    3.4854   -5.7346 C   0  0  2  0  0  0  0  0  0  0  0  0
   45.6382    3.8287   -5.7015 O   0  0  0  0  0  0  0  0  0  0  0  0
   48.5084    4.6981   -8.0629 C   0  0  1  0  0  0  0  0  0  0  0  0
   47.8332    4.1678   -9.2588 O   0  0  0  0  0  0  0  0  0  0  0  0
   40.0869    6.6278    3.1924 C   0  0  0  0  0  0  0  0  0  0  0  0
   39.3840   -0.7027   -7.6499 C   0  0  2  0  0  0  0  0  0  0  0  0
   39.2847    0.0311   -8.9347 O   0  0  0  0  0  0  0  0  0  0  0  0
   41.9228    0.4915   -3.7686 C   0  0  2  0  0  0  0  0  0  0  0  0
   43.4806    4.1375   -6.9010 C   0  0  1  0  0  0  0  0  0  0  0  0
   48.3474    6.3137   -7.9647 C   0  0  2  0  0  0  0  0  0  0  0  0
   49.0196    6.8508   -6.7714 O   0  0  0  0  0  0  0  0  0  0  0  0
   39.1547    7.1561    2.2656 C   0  0  0  0  0  0  0  0  0  0  0  0
   39.2687    0.3349   -6.4677 C   0  0  2  0  0  0  0  0  0  0  0  0
   39.3765   -0.4412   -5.2426 O   0  0  0  0  0  0  0  0  0  0  0  0
   41.0596    1.7922   -3.9173 C   0  0  2  0  0  0  0  0  0  0  0  0
   41.5663    2.3734   -5.1126 O   0  0  0  0  0  0  0  0  0  0  0  0
   43.4747    3.2673   -8.1567 C   0  0  0  0  0  0  0  0  0  0  0  0
   43.8410    3.9211   -9.3482 O   0  0  0  0  0  0  0  0  0  0  0  0
   46.7955    6.6912   -7.9209 C   0  0  1  0  0  0  0  0  0  0  0  0
   46.1596    5.9742   -6.7478 O   0  0  0  0  0  0  0  0  0  0  0  0
   39.6351    7.6321    0.9477 C   0  0  0  0  0  0  0  0  0  0  0  0
   37.9759    1.0262   -6.5976 C   0  0  0  0  0  0  0  0  0  0  0  0
   37.8943    1.9964   -5.6785 O   0  0  0  0  0  0  0  0  0  0  0  0
   41.2493    2.7385   -2.6580 C   0  0  1  0  0  0  0  0  0  0  0  0
   40.4706    3.8809   -2.8000 O   0  0  0  0  0  0  0  0  0  0  0  0
   42.8091    5.7719   -2.7335 C   0  0  0  0  0  0  0  0  0  0  0  0
   46.7044    8.2380   -7.8164 C   0  0  0  0  0  0  0  0  0  0  0  0
   45.8331    8.6230   -6.7341 N   0  0  0  0  0  0  0  0  0  0  0  0
   43.4478    7.1334   -2.4405 C   0  0  0  0  0  0  0  0  0  0  0  0
   43.1331    7.5394   -1.0324 N   0  0  0  0  0  0  0  0  0  0  0  0
   41.6830    8.0355   -0.7851 C   0  0  0  0  0  0  0  0  0  0  0  0
  1  2  1  6  0  0  0
  1  9  1  0  0  0  0
  1 35  1  0  0  0  0
  3  4  1  1  0  0  0
  3 11  1  0  0  0  0
  3 45  1  0  0  0  0
  5  6  1  0  0  0  0
  5 12  1  0  0  0  0
  5 37  1  6  0  0  0
  6 30  1  0  0  0  0
  7 14  1  0  0  0  0
  7 41  1  0  0  0  0
  7 23  1  1  0  0  0
  8 16  2  0  0  0  0
  8 42  1  0  0  0  0
  9 10  1  1  0  0  0
  9 18  1  0  0  0  0
 11 20  1  0  0  0  0
 12 13  1  6  0  0  0
 12 22  1  0  0  0  0
 13 47  1  0  0  0  0
 14 15  1  1  0  0  0
 14 24  1  0  0  0  0
 16 17  1  0  0  0  0
 17 26  2  0  0  0  0
 18 19  1  6  0  0  0
 18 27  1  0  0  0  0
 20 21  1  1  0  0  0
 20 29  1  0  0  0  0
 22 23  1  1  0  0  0
 22 30  1  0  0  0  0
 24 25  1  6  0  0  0
 24 31  1  0  0  0  0
 26 33  1  0  0  0  0
 27 28  1  6  0  0  0
 27 34  1  0  0  0  0
 29  2  1  6  0  0  0
 29 36  1  0  0  0  0
 30 38  1  6  0  0  0
 31 32  1  1  0  0  0
 31 40  1  0  0  0  0
 33 42  2  0  0  0  0
 34 35  1  0  0  0  0
 34 43  1  1  0  0  0
 36 37  1  6  0  0  0
 36 45  1  0  0  0  0
 38 39  1  0  0  0  0
 40 41  1  0  0  0  0
 40 48  1  1  0  0  0
 43 44  1  0  0  0  0
 45 46  1  6  0  0  0
 47 50  1  0  0  0  0
 48 49  1  0  0  0  0
 50 51  1  0  0  0  0
 51 52  1  0  0  0  0
 52  8  1  0  0  0  0
M  END
>  <CHROM.1>
-171.82148665,-162.69546387,-150.89325325,77.26365958,164.27367202,-134.64243402
41.19617148,113.55363711,-174.64757394,-126.38482511,-129.34420896,-164.65238613
-75.08614847,141.41939274,13.87772532,42.72350859,3.39702605,-4.63743213
-2.65556652,0.72382837,0.83265301

>  <Name>
2be0_lig

>  <RI>
2.10017e+07

>  <Rbt.Current_Directory>
/home/itssahil/PROJECTS/Mol_Feturizer/New_Systems/rnas/2be0

>  <Rbt.Executable>
rbdock ($Id: //depot/dev/client3/rdock/2013.1/src/exe/rbdock.cxx#4 $)

>  <Rbt.Library>
libRbt.so (2013.1, Build901 2013/11/27)

>  <Rbt.Parameter_File>
/export/apps/rDock/src/rDock_2013.1_src/data/scripts/dock_solv.prm

>  <Rbt.Receptor>
prm/pocket_docking_3.prm

>  <SCORE>
3.37806

>  <SCORE.INTER>
3.82628

>  <SCORE.INTER.CONST>
1

>  <SCORE.INTER.POLAR>
-0.955767

>  <SCORE.INTER.ROT>
15

>  <SCORE.INTER.SOLV>
13.2947

>  <SCORE.INTER.VDW>
-12.2948

>  <SCORE.INTER.norm>
0.0735824

>  <SCORE.INTRA>
-0.749552

>  <SCORE.INTRA.DIHEDRAL>
-12.3496

>  <SCORE.INTRA.DIHEDRAL.0>
47.8724

>  <SCORE.INTRA.POLAR>
0

>  <SCORE.INTRA.POLAR.0>
0

>  <SCORE.INTRA.REPUL>
0.299636

>  <SCORE.INTRA.REPUL.0>
0

>  <SCORE.INTRA.SOLV>
-1.76624

>  <SCORE.INTRA.SOLV.lig_0>
-115.677

>  <SCORE.INTRA.VDW>
4.81016

>  <SCORE.INTRA.VDW.0>
-7.4833

>  <SCORE.INTRA.norm>
-0.0144145

>  <SCORE.RESTR>
0.301323

>  <SCORE.RESTR.CAVITY>
0.301323

>  <SCORE.RESTR.norm>
0.00579468

>  <SCORE.SYSTEM>
0

>  <SCORE.SYSTEM.CONST>
0

>  <SCORE.SYSTEM.DIHEDRAL>
0

>  <SCORE.SYSTEM.SOLV>
0

>  <SCORE.SYSTEM.norm>
0

>  <SCORE.heavy>
52

>  <SCORE.norm>
0.0649626

>  <RMSD>
9.383

$$$$
2be0_lig
 OpenBabel11021811423D
libRbt.so/2013.1/901 2013/11/27
 52 56  0  0  0  0  0  0  0  0999 V2000
   41.9429    7.0138   -1.6350 C   0  0  2  0  0  0  0  0  0  0  0  0
   42.2221    5.9293   -0.7813 O   0  0  0  0  0  0  0  0  0  0  0  0
   41.3068    1.6243   -0.7605 C   0  0  2  0  0  0  0  0  0  0  0  0
   40.5234    0.3631   -0.8840 N   0  0  0  0  0  0  0  0  0  0  0  0
   43.3119    4.3227   -4.0757 C   0  0  2  0  0  0  0  0  0  0  0  0
   43.1532    5.1623   -5.2378 O   0  0  0  0  0  0  0  0  0  0  0  0
   41.9303    0.6005   -6.3532 C   0  0  1  0  0  0  0  0  0  0  0  0
   49.9371    3.9678   -5.4299 C   0  0  0  0  0  0  0  0  0  0  0  0
   42.7488    8.3058   -1.2027 C   0  0  2  0  0  0  0  0  0  0  0  0
   44.1778    7.9953   -1.1244 N   0  0  0  0  0  0  0  0  0  0  0  0
   40.5946    2.5800    0.3015 C   0  0  0  0  0  0  0  0  0  0  0  0
   43.4031    2.8751   -4.5842 C   0  0  2  0  0  0  0  0  0  0  0  0
   44.8516    2.7134   -4.9205 O   0  0  0  0  0  0  0  0  0  0  0  0
   41.5078   -0.1324   -7.7409 C   0  0  2  0  0  0  0  0  0  0  0  0
   40.4276    0.6710   -8.3990 N   0  0  0  0  0  0  0  0  0  0  0  0
   50.9418    3.7285   -6.4239 C   0  0  0  0  0  0  0  0  0  0  0  0
   51.5019    4.8218   -7.1352 N   0  0  0  0  0  0  0  0  0  0  0  0
   42.1789    8.8549    0.1864 C   0  0  1  0  0  0  0  0  0  0  0  0
   42.9188   10.0071    0.5595 O   0  0  0  0  0  0  0  0  0  0  0  0
   41.4168    3.9835    0.4562 C   0  0  2  0  0  0  0  0  0  0  0  0
   40.7873    4.8517    1.4109 N   0  0  0  0  0  0  0  0  0  0  0  0
   42.3594    2.9562   -5.7142 C   0  0  2  0  0  0  0  0  0  0  0  0
   42.3833    1.9243   -6.6895 O   0  0  0  0  0  0  0  0  0  0  0  0
   41.0016   -1.5643   -7.3906 C   0  0  1  0  0  0  0  0  0  0  0  0
   42.1399   -2.2617   -6.7699 O   0  0  0  0  0  0  0  0  0  0  0  0
   51.1113    6.1732   -6.9128 C   0  0  0  0  0  0  0  0  0  0  0  0
   40.6650    9.1702    0.0107 C   0  0  2  0  0  0  0  0  0  0  0  0
   40.0773    9.6817    1.2724 O   0  0  0  0  0  0  0  0  0  0  0  0
   41.5041    4.7126   -0.9475 C   0  0  2  0  0  0  0  0  0  0  0  0
   42.5725    4.3736   -6.2968 C   0  0  1  0  0  0  0  0  0  0  0  0
   39.7395   -1.4735   -6.3684 C   0  0  2  0  0  0  0  0  0  0  0  0
   38.5980   -0.7772   -6.9820 O   0  0  0  0  0  0  0  0  0  0  0  0
   50.1236    6.4713   -5.9421 C   0  0  0  0  0  0  0  0  0  0  0  0
   39.8799    7.8720   -0.4202 C   0  0  2  0  0  0  0  0  0  0  0  0
   40.5023    7.4194   -1.6541 O   0  0  0  0  0  0  0  0  0  0  0  0
   42.1992    3.7305   -1.9531 C   0  0  2  0  0  0  0  0  0  0  0  0
   42.2348    4.4847   -3.1586 O   0  0  0  0  0  0  0  0  0  0  0  0
   41.2577    5.0479   -6.6851 C   0  0  0  0  0  0  0  0  0  0  0  0
   40.4755    5.5133   -5.6114 O   0  0  0  0  0  0  0  0  0  0  0  0
   40.1854   -0.7045   -5.0408 C   0  0  1  0  0  0  0  0  0  0  0  0
   40.7133    0.6608   -5.4307 O   0  0  0  0  0  0  0  0  0  0  0  0
   49.5075    5.3652   -5.1732 C   0  0  0  0  0  0  0  0  0  0  0  0
   38.4641    8.2359   -0.5911 C   0  0  0  0  0  0  0  0  0  0  0  0
   37.9208    8.4891    0.6061 O   0  0  0  0  0  0  0  0  0  0  0  0
   41.3593    2.3927   -2.1021 C   0  0  1  0  0  0  0  0  0  0  0  0
   41.9932    1.5295   -2.9879 O   0  0  0  0  0  0  0  0  0  0  0  0
   45.7285    3.6408   -5.6736 C   0  0  0  0  0  0  0  0  0  0  0  0
   38.9428   -0.6388   -4.1117 C   0  0  0  0  0  0  0  0  0  0  0  0
   38.4831   -1.9657   -3.7848 N   0  0  0  0  0  0  0  0  0  0  0  0
   47.0039    3.8309   -4.8462 C   0  0  0  0  0  0  0  0  0  0  0  0
   47.7909    2.5553   -4.8426 N   0  0  0  0  0  0  0  0  0  0  0  0
   49.3221    2.7119   -4.6395 C   0  0  0  0  0  0  0  0  0  0  0  0
  1  2  1  1  0  0  0
  1  9  1  0  0  0  0
  1 35  1  0  0  0  0
  3  4  1  6  0  0  0
  3 11  1  0  0  0  0
  3 45  1  0  0  0  0
  5  6  1  0  0  0  0
  5 12  1  0  0  0  0
  5 37  1  1  0  0  0
  6 30  1  0  0  0  0
  7 14  1  0  0  0  0
  7 41  1  0  0  0  0
  7 23  1  6  0  0  0
  8 16  2  0  0  0  0
  8 42  1  0  0  0  0
  9 10  1  1  0  0  0
  9 18  1  0  0  0  0
 11 20  1  0  0  0  0
 12 13  1  6  0  0  0
 12 22  1  0  0  0  0
 13 47  1  0  0  0  0
 14 15  1  1  0  0  0
 14 24  1  0  0  0  0
 16 17  1  0  0  0  0
 17 26  2  0  0  0  0
 18 19  1  6  0  0  0
 18 27  1  0  0  0  0
 20 21  1  1  0  0  0
 20 29  1  0  0  0  0
 22 23  1  6  0  0  0
 22 30  1  0  0  0  0
 24 25  1  1  0  0  0
 24 31  1  0  0  0  0
 26 33  1  0  0  0  0
 27 28  1  1  0  0  0
 27 34  1  0  0  0  0
 29  2  1  1  0  0  0
 29 36  1  0  0  0  0
 30 38  1  1  0  0  0
 31 32  1  6  0  0  0
 31 40  1  0  0  0  0
 33 42  2  0  0  0  0
 34 35  1  0  0  0  0
 34 43  1  6  0  0  0
 36 37  1  6  0  0  0
 36 45  1  0  0  0  0
 38 39  1  0  0  0  0
 40 41  1  0  0  0  0
 40 48  1  1  0  0  0
 43 44  1  0  0  0  0
 45 46  1  6  0  0  0
 47 50  1  0  0  0  0
 48 49  1  0  0  0  0
 50 51  1  0  0  0  0
 51 52  1  0  0  0  0
 52  8  1  0  0  0  0
M  END
>  <CHROM.1>
174.81528713,179.29912271,157.10145764,-45.91488787,130.60508142,72.24689376
-151.25366508,-41.90430167,-70.45200660,147.17297087,60.02066877,69.08256586
153.39379036,-40.03431286,-119.35610033,42.76371842,3.85699478,-3.64825397
-2.04204199,-0.36438110,-2.51260563

>  <Name>
2be0_lig

>  <RI>
2.10017e+07

>  <Rbt.Current_Directory>
/home/itssahil/PROJECTS/Mol_Feturizer/New_Systems/rnas/2be0

>  <Rbt.Executable>
rbdock ($Id: //depot/dev/client3/rdock/2013.1/src/exe/rbdock.cxx#4 $)

>  <Rbt.Library>
libRbt.so (2013.1, Build901 2013/11/27)

>  <Rbt.Parameter_File>
/export/apps/rDock/src/rDock_2013.1_src/data/scripts/dock_solv.prm

>  <Rbt.Receptor>
prm/pocket_docking_3.prm

>  <SCORE>
-5.14219

>  <SCORE.INTER>
2.60884

>  <SCORE.INTER.CONST>
1

>  <SCORE.INTER.POLAR>
-0.609144

>  <SCORE.INTER.ROT>
15

>  <SCORE.INTER.SOLV>
9.17419

>  <SCORE.INTER.VDW>
-12.8884

>  <SCORE.INTER.norm>
0.05017

>  <SCORE.INTRA>
-8.70153

>  <SCORE.INTRA.DIHEDRAL>
-25.9538

>  <SCORE.INTRA.DIHEDRAL.0>
47.8724

>  <SCORE.INTRA.POLAR>
0

>  <SCORE.INTRA.POLAR.0>
0

>  <SCORE.INTRA.REPUL>
0.00514958

>  <SCORE.INTRA.REPUL.0>
0

>  <SCORE.INTRA.SOLV>
-0.310342

>  <SCORE.INTRA.SOLV.lig_0>
-115.677

>  <SCORE.INTRA.VDW>
4.40481

>  <SCORE.INTRA.VDW.0>
-7.4833

>  <SCORE.INTRA.norm>
-0.167337

>  <SCORE.RESTR>
0.950498

>  <SCORE.RESTR.CAVITY>
0.950498

>  <SCORE.RESTR.norm>
0.0182788

>  <SCORE.SYSTEM>
0

>  <SCORE.SYSTEM.CONST>
0

>  <SCORE.SYSTEM.DIHEDRAL>
0

>  <SCORE.SYSTEM.SOLV>
0

>  <SCORE.SYSTEM.norm>
0

>  <SCORE.heavy>
52

>  <SCORE.norm>
-0.0988883

>  <RMSD>
9.387

$$$$
2be0_lig
 OpenBabel11021811423D
libRbt.so/2013.1/901 2013/11/27
 52 56  0  0  0  0  0  0  0  0999 V2000
   41.6175    1.3199   -4.3972 C   0  0  2  0  0  0  0  0  0  0  0  0
   42.6461    1.9541   -3.6744 O   0  0  0  0  0  0  0  0  0  0  0  0
   46.5168    3.7511   -4.7514 C   0  0  2  0  0  0  0  0  0  0  0  0
   47.8741    3.8875   -5.3502 N   0  0  0  0  0  0  0  0  0  0  0  0
   41.9409    4.1255   -6.3440 C   0  0  2  0  0  0  0  0  0  0  0  0
   41.1734    3.8444   -7.5324 O   0  0  0  0  0  0  0  0  0  0  0  0
   44.3850    7.2264   -8.8774 C   0  0  1  0  0  0  0  0  0  0  0  0
   42.7836    9.7858   -1.6644 C   0  0  0  0  0  0  0  0  0  0  0  0
   40.3068    1.1751   -3.5216 C   0  0  2  0  0  0  0  0  0  0  0  0
   39.9123    2.4852   -2.9995 N   0  0  0  0  0  0  0  0  0  0  0  0
   46.4883    2.4626   -3.8094 C   0  0  0  0  0  0  0  0  0  0  0  0
   42.5037    5.5466   -6.5060 C   0  0  2  0  0  0  0  0  0  0  0  0
   41.3928    6.4204   -6.0163 O   0  0  0  0  0  0  0  0  0  0  0  0
   45.0946    7.3467   -7.4202 C   0  0  2  0  0  0  0  0  0  0  0  0
   44.2948    8.2889   -6.5727 N   0  0  0  0  0  0  0  0  0  0  0  0
   44.0438   10.1212   -1.0693 C   0  0  0  0  0  0  0  0  0  0  0  0
   44.0835   10.9967    0.0474 N   0  0  0  0  0  0  0  0  0  0  0  0
   40.5569    0.1153   -2.3510 C   0  0  1  0  0  0  0  0  0  0  0  0
   39.3741    0.0060   -1.5743 O   0  0  0  0  0  0  0  0  0  0  0  0
   45.0092    2.2688   -3.1426 C   0  0  2  0  0  0  0  0  0  0  0  0
   44.9708    1.1137   -2.2907 N   0  0  0  0  0  0  0  0  0  0  0  0
   42.8341    5.4992   -8.0098 C   0  0  2  0  0  0  0  0  0  0  0  0
   43.0471    6.7420   -8.6628 O   0  0  0  0  0  0  0  0  0  0  0  0
   46.5417    7.8838   -7.6359 C   0  0  1  0  0  0  0  0  0  0  0  0
   47.2338    6.8793   -8.4603 O   0  0  0  0  0  0  0  0  0  0  0  0
   42.9153   11.5749    0.6211 C   0  0  0  0  0  0  0  0  0  0  0  0
   40.9570   -1.2453   -2.9920 C   0  0  2  0  0  0  0  0  0  0  0  0
   41.2068   -2.2716   -1.9511 O   0  0  0  0  0  0  0  0  0  0  0  0
   43.9203    2.1228   -4.2839 C   0  0  2  0  0  0  0  0  0  0  0  0
   41.6714    4.6699   -8.6053 C   0  0  1  0  0  0  0  0  0  0  0  0
   46.4937    9.3269   -8.3848 C   0  0  2  0  0  0  0  0  0  0  0  0
   45.8030   10.3359   -7.5667 O   0  0  0  0  0  0  0  0  0  0  0  0
   41.6414   11.2792    0.0762 C   0  0  0  0  0  0  0  0  0  0  0  0
   42.2635   -1.0806   -3.8600 C   0  0  2  0  0  0  0  0  0  0  0  0
   41.9574   -0.0642   -4.8541 O   0  0  0  0  0  0  0  0  0  0  0  0
   43.9973    3.4047   -5.1838 C   0  0  2  0  0  0  0  0  0  0  0  0
   42.9817    3.1729   -6.1525 O   0  0  0  0  0  0  0  0  0  0  0  0
   42.1361    3.7272   -9.7141 C   0  0  0  0  0  0  0  0  0  0  0  0
   43.2076    2.8786   -9.3781 O   0  0  0  0  0  0  0  0  0  0  0  0
   45.7463    9.1724   -9.7885 C   0  0  1  0  0  0  0  0  0  0  0  0
   44.3645    8.6048   -9.5372 O   0  0  0  0  0  0  0  0  0  0  0  0
   41.5464   10.3713   -1.0904 C   0  0  0  0  0  0  0  0  0  0  0  0
   42.5786   -2.3893   -4.4551 C   0  0  0  0  0  0  0  0  0  0  0  0
   41.7899   -2.5983   -5.5167 O   0  0  0  0  0  0  0  0  0  0  0  0
   45.4357    3.5450   -5.8386 C   0  0  1  0  0  0  0  0  0  0  0  0
   45.4909    4.6902   -6.6241 O   0  0  0  0  0  0  0  0  0  0  0  0
   40.6735    6.3527   -4.7223 C   0  0  0  0  0  0  0  0  0  0  0  0
   45.7210   10.5773  -10.4497 C   0  0  0  0  0  0  0  0  0  0  0  0
   47.0575   11.0088  -10.7757 N   0  0  0  0  0  0  0  0  0  0  0  0
   41.7157    6.5364   -3.6144 C   0  0  0  0  0  0  0  0  0  0  0  0
   41.5192    7.8710   -2.9610 N   0  0  0  0  0  0  0  0  0  0  0  0
   42.7687    8.7916   -2.9260 C   0  0  0  0  0  0  0  0  0  0  0  0
  1  2  1  1  0  0  0
  1  9  1  0  0  0  0
  1 35  1  0  0  0  0
  3  4  1  6  0  0  0
  3 11  1  0  0  0  0
  3 45  1  0  0  0  0
  5  6  1  0  0  0  0
  5 12  1  0  0  0  0
  5 37  1  6  0  0  0
  6 30  1  0  0  0  0
  7 14  1  0  0  0  0
  7 41  1  0  0  0  0
  7 23  1  1  0  0  0
  8 16  2  0  0  0  0
  8 42  1  0  0  0  0
  9 10  1  1  0  0  0
  9 18  1  0  0  0  0
 11 20  1  0  0  0  0
 12 13  1  6  0  0  0
 12 22  1  0  0  0  0
 13 47  1  0  0  0  0
 14 15  1  1  0  0  0
 14 24  1  0  0  0  0
 16 17  1  0  0  0  0
 17 26  2  0  0  0  0
 18 19  1  6  0  0  0
 18 27  1  0  0  0  0
 20 21  1  1  0  0  0
 20 29  1  0  0  0  0
 22 23  1  6  0  0  0
 22 30  1  0  0  0  0
 24 25  1  6  0  0  0
 24 31  1  0  0  0  0
 26 33  1  0  0  0  0
 27 28  1  1  0  0  0
 27 34  1  0  0  0  0
 29  2  1  1  0  0  0
 29 36  1  0  0  0  0
 30 38  1  6  0  0  0
 31 32  1  1  0  0  0
 31 40  1  0  0  0  0
 33 42  2  0  0  0  0
 34 35  1  0  0  0  0
 34 43  1  6  0  0  0
 36 37  1  6  0  0  0
 36 45  1  0  0  0  0
 38 39  1  0  0  0  0
 40 41  1  0  0  0  0
 40 48  1  1  0  0  0
 43 44  1  0  0  0  0
 45 46  1  6  0  0  0
 47 50  1  0  0  0  0
 48 49  1  0  0  0  0
 50 51  1  0  0  0  0
 51 52  1  0  0  0  0
 52  8  1  0  0  0  0
M  END
>  <CHROM.1>
177.48196127,168.54609843,-58.48845701,53.24216055,59.39933105,97.93501100
-156.38794598,-63.49367905,79.06729282,124.43021581,65.75127850,109.80022728
-125.27104309,-150.60361655,145.79582525,43.33579208,4.95885825,-5.31018111
-2.36619305,1.15845122,0.45511584

>  <Name>
2be0_lig

>  <RI>
0

>  <Rbt.Current_Directory>
/home/itssahil/PROJECTS/Mol_Feturizer/New_Systems/rnas/2be0

>  <Rbt.Executable>
rbdock ($Id: //depot/dev/client3/rdock/2013.1/src/exe/rbdock.cxx#4 $)

>  <Rbt.Library>
libRbt.so (2013.1, Build901 2013/11/27)

>  <Rbt.Parameter_File>
/export/apps/rDock/src/rDock_2013.1_src/data/scripts/dock_solv.prm

>  <Rbt.Receptor>
prm/pocket_docking_4.prm

>  <SCORE>
-24.6742

>  <SCORE.INTER>
-14.5014

>  <SCORE.INTER.CONST>
1

>  <SCORE.INTER.POLAR>
-1.36711

>  <SCORE.INTER.ROT>
15

>  <SCORE.INTER.SOLV>
14.1442

>  <SCORE.INTER.VDW>
-23.4253

>  <SCORE.INTER.norm>
-0.278872

>  <SCORE.INTRA>
-10.1787

>  <SCORE.INTRA.DIHEDRAL>
-22.9941

>  <SCORE.INTRA.DIHEDRAL.0>
47.8724

>  <SCORE.INTRA.POLAR>
0

>  <SCORE.INTRA.POLAR.0>
0

>  <SCORE.INTRA.REPUL>
0

>  <SCORE.INTRA.REPUL.0>
0

>  <SCORE.INTRA.SOLV>
0.736025

>  <SCORE.INTRA.SOLV.lig_0>
-115.677

>  <SCORE.INTRA.VDW>
0.950381

>  <SCORE.INTRA.VDW.0>
-7.4833

>  <SCORE.INTRA.norm>
-0.195744

>  <SCORE.RESTR>
0.00587497

>  <SCORE.RESTR.CAVITY>
0.00587497

>  <SCORE.RESTR.norm>
0.00011298

>  <SCORE.SYSTEM>
0

>  <SCORE.SYSTEM.CONST>
0

>  <SCORE.SYSTEM.DIHEDRAL>
0

>  <SCORE.SYSTEM.SOLV>
0

>  <SCORE.SYSTEM.norm>
0

>  <SCORE.heavy>
52

>  <SCORE.norm>
-0.474503

>  <RMSD>
9.399

$$$$
2be0_lig
 OpenBabel11021811423D
libRbt.so/2013.1/901 2013/11/27
 52 56  0  0  0  0  0  0  0  0999 V2000
   42.7421    2.3053   -4.5137 C   0  0  2  0  0  0  0  0  0  0  0  0
   41.6146    1.4875   -4.3070 O   0  0  0  0  0  0  0  0  0  0  0  0
   38.1893    1.8647   -1.5692 C   0  0  2  0  0  0  0  0  0  0  0  0
   37.4241    1.9431   -0.2933 N   0  0  0  0  0  0  0  0  0  0  0  0
   40.6053    5.3221   -3.0732 C   0  0  2  0  0  0  0  0  0  0  0  0
   39.4198    5.6114   -3.8421 O   0  0  0  0  0  0  0  0  0  0  0  0
   43.3427    7.2630   -6.1598 C   0  0  1  0  0  0  0  0  0  0  0  0
   41.2799    8.0128    1.7128 C   0  0  0  0  0  0  0  0  0  0  0  0
   43.5292    1.8774   -5.8188 C   0  0  2  0  0  0  0  0  0  0  0  0
   42.6176    1.8632   -6.9648 N   0  0  0  0  0  0  0  0  0  0  0  0
   39.0219    0.5030   -1.5964 C   0  0  0  0  0  0  0  0  0  0  0  0
   41.7098    6.2556   -3.5940 C   0  0  2  0  0  0  0  0  0  0  0  0
   41.4947    7.5174   -2.8201 O   0  0  0  0  0  0  0  0  0  0  0  0
   43.5564    7.7896   -7.6824 C   0  0  2  0  0  0  0  0  0  0  0  0
   42.8565    6.8513   -8.6180 N   0  0  0  0  0  0  0  0  0  0  0  0
   42.2206    6.9376    1.5949 C   0  0  0  0  0  0  0  0  0  0  0  0
   42.6365    6.2365    2.7570 N   0  0  0  0  0  0  0  0  0  0  0  0
   44.2209    0.4549   -5.5870 C   0  0  1  0  0  0  0  0  0  0  0  0
   44.9139    0.0865   -6.7695 O   0  0  0  0  0  0  0  0  0  0  0  0
   39.8884    0.3848   -2.9767 C   0  0  2  0  0  0  0  0  0  0  0  0
   40.6405   -0.8376   -3.0147 N   0  0  0  0  0  0  0  0  0  0  0  0
   41.3677    6.2106   -5.0952 C   0  0  2  0  0  0  0  0  0  0  0  0
   41.9253    7.2277   -5.9145 O   0  0  0  0  0  0  0  0  0  0  0  0
   45.0884    7.8201   -7.9674 C   0  0  1  0  0  0  0  0  0  0  0  0
   45.6651    8.7777   -7.0094 O   0  0  0  0  0  0  0  0  0  0  0  0
   42.1624    6.5499    4.0628 C   0  0  0  0  0  0  0  0  0  0  0  0
   45.1779    0.5628   -4.3644 C   0  0  2  0  0  0  0  0  0  0  0  0
   45.8485   -0.7324   -4.0966 O   0  0  0  0  0  0  0  0  0  0  0  0
   40.8743    1.6186   -3.0995 C   0  0  2  0  0  0  0  0  0  0  0  0
   39.8210    6.1733   -5.1085 C   0  0  1  0  0  0  0  0  0  0  0  0
   45.7211    6.3350   -7.7672 C   0  0  2  0  0  0  0  0  0  0  0  0
   45.1489    5.3723   -8.7213 O   0  0  0  0  0  0  0  0  0  0  0  0
   41.2305    7.6019    4.2413 C   0  0  0  0  0  0  0  0  0  0  0  0
   44.3761    0.9903   -3.0752 C   0  0  2  0  0  0  0  0  0  0  0  0
   43.7419    2.2578   -3.4009 O   0  0  0  0  0  0  0  0  0  0  0  0
   40.0100    2.9264   -3.0568 C   0  0  2  0  0  0  0  0  0  0  0  0
   40.9846    3.9543   -3.1859 O   0  0  0  0  0  0  0  0  0  0  0  0
   39.2695    5.2553   -6.1982 C   0  0  0  0  0  0  0  0  0  0  0  0
   37.8686    5.1207   -6.2249 O   0  0  0  0  0  0  0  0  0  0  0  0
   45.4462    5.8373   -6.2740 C   0  0  1  0  0  0  0  0  0  0  0  0
   43.9524    5.8680   -6.0247 O   0  0  0  0  0  0  0  0  0  0  0  0
   40.7656    8.3650    3.0598 C   0  0  0  0  0  0  0  0  0  0  0  0
   45.3333    1.0963   -1.9623 C   0  0  0  0  0  0  0  0  0  0  0  0
   45.7475   -0.1277   -1.6119 O   0  0  0  0  0  0  0  0  0  0  0  0
   39.2067    3.0237   -1.6920 C   0  0  1  0  0  0  0  0  0  0  0  0
   38.4384    4.1817   -1.6740 O   0  0  0  0  0  0  0  0  0  0  0  0
   42.2151    8.8063   -2.9467 C   0  0  0  0  0  0  0  0  0  0  0  0
   46.0600    4.4166   -6.1458 C   0  0  0  0  0  0  0  0  0  0  0  0
   47.5002    4.4829   -6.1602 N   0  0  0  0  0  0  0  0  0  0  0  0
   41.6609    9.7430   -1.8683 C   0  0  0  0  0  0  0  0  0  0  0  0
   42.0216    9.2127   -0.5136 N   0  0  0  0  0  0  0  0  0  0  0  0
   40.8260    8.7875    0.3808 C   0  0  0  0  0  0  0  0  0  0  0  0
  1  2  1  1  0  0  0
  1  9  1  0  0  0  0
  1 35  1  0  0  0  0
  3  4  1  1  0  0  0
  3 11  1  0  0  0  0
  3 45  1  0  0  0  0
  5  6  1  0  0  0  0
  5 12  1  0  0  0  0
  5 37  1  6  0  0  0
  6 30  1  0  0  0  0
  7 14  1  0  0  0  0
  7 41  1  0  0  0  0
  7 23  1  6  0  0  0
  8 16  2  0  0  0  0
  8 42  1  0  0  0  0
  9 10  1  6  0  0  0
  9 18  1  0  0  0  0
 11 20  1  0  0  0  0
 12 13  1  1  0  0  0
 12 22  1  0  0  0  0
 13 47  1  0  0  0  0
 14 15  1  6  0  0  0
 14 24  1  0  0  0  0
 16 17  1  0  0  0  0
 17 26  2  0  0  0  0
 18 19  1  6  0  0  0
 18 27  1  0  0  0  0
 20 21  1  1  0  0  0
 20 29  1  0  0  0  0
 22 23  1  6  0  0  0
 22 30  1  0  0  0  0
 24 25  1  1  0  0  0
 24 31  1  0  0  0  0
 26 33  1  0  0  0  0
 27 28  1  1  0  0  0
 27 34  1  0  0  0  0
 29  2  1  6  0  0  0
 29 36  1  0  0  0  0
 30 38  1  6  0  0  0
 31 32  1  6  0  0  0
 31 40  1  0  0  0  0
 33 42  2  0  0  0  0
 34 35  1  0  0  0  0
 34 43  1  1  0  0  0
 36 37  1  1  0  0  0
 36 45  1  0  0  0  0
 38 39  1  0  0  0  0
 40 41  1  0  0  0  0
 40 48  1  6  0  0  0
 43 44  1  0  0  0  0
 45 46  1  6  0  0  0
 47 50  1  0  0  0  0
 48 49  1  0  0  0  0
 50 51  1  0  0  0  0
 51 52  1  0  0  0  0
 52  8  1  0  0  0  0
M  END
>  <CHROM.1>
172.59366053,-46.11303954,144.84249132,-176.35488977,-176.82001194,68.55442916
-167.16803861,60.67174101,-70.90886015,-174.44180651,70.47328722,66.00190650
-115.99887968,170.67909742,-48.49003708,42.31319415,4.53784284,-3.57660843
0.36602307,-1.06901857,-3.11350722

>  <Name>
2be0_lig

>  <RI>
0

>  <Rbt.Current_Directory>
/home/itssahil/PROJECTS/Mol_Feturizer/New_Systems/rnas/2be0

>  <Rbt.Executable>
rbdock ($Id: //depot/dev/client3/rdock/2013.1/src/exe/rbdock.cxx#4 $)

>  <Rbt.Library>
libRbt.so (2013.1, Build901 2013/11/27)

>  <Rbt.Parameter_File>
/export/apps/rDock/src/rDock_2013.1_src/data/scripts/dock_solv.prm

>  <Rbt.Receptor>
prm/pocket_docking_6.prm

>  <SCORE>
-31.0196

>  <SCORE.INTER>
-12.2065

>  <SCORE.INTER.CONST>
1

>  <SCORE.INTER.POLAR>
-0.959166

>  <SCORE.INTER.ROT>
15

>  <SCORE.INTER.SOLV>
13.1869

>  <SCORE.INTER.VDW>
-22.9361

>  <SCORE.INTER.norm>
-0.23474

>  <SCORE.INTRA>
-18.8132

>  <SCORE.INTRA.DIHEDRAL>
-37.3268

>  <SCORE.INTRA.DIHEDRAL.0>
47.8724

>  <SCORE.INTRA.POLAR>
0

>  <SCORE.INTRA.POLAR.0>
0

>  <SCORE.INTRA.REPUL>
0

>  <SCORE.INTRA.REPUL.0>
0

>  <SCORE.INTRA.SOLV>
-3.18814

>  <SCORE.INTRA.SOLV.lig_0>
-115.677

>  <SCORE.INTRA.VDW>
1.44428

>  <SCORE.INTRA.VDW.0>
-7.4833

>  <SCORE.INTRA.norm>
-0.361792

>  <SCORE.RESTR>
0

>  <SCORE.RESTR.CAVITY>
0

>  <SCORE.RESTR.norm>
0

>  <SCORE.SYSTEM>
0

>  <SCORE.SYSTEM.CONST>
0

>  <SCORE.SYSTEM.DIHEDRAL>
0

>  <SCORE.SYSTEM.SOLV>
0

>  <SCORE.SYSTEM.norm>
0

>  <SCORE.heavy>
52

>  <SCORE.norm>
-0.596532

>  <RMSD>
9.418

$$$$
2be0_lig
 OpenBabel11021811423D
libRbt.so/2013.1/901 2013/11/27
 52 56  0  0  0  0  0  0  0  0999 V2000
   41.4626    5.3333   -2.4555 C   0  0  2  0  0  0  0  0  0  0  0  0
   41.6707    3.9947   -2.8399 O   0  0  0  0  0  0  0  0  0  0  0  0
   40.7139    0.0458   -1.1483 C   0  0  2  0  0  0  0  0  0  0  0  0
   39.9794   -1.0099   -0.3964 N   0  0  0  0  0  0  0  0  0  0  0  0
   40.4973    2.6079   -5.4021 C   0  0  2  0  0  0  0  0  0  0  0  0
   39.5426    3.1430   -6.3415 O   0  0  0  0  0  0  0  0  0  0  0  0
   40.7045   -1.4024   -7.4502 C   0  0  1  0  0  0  0  0  0  0  0  0
   45.0817    5.8783   -7.9571 C   0  0  0  0  0  0  0  0  0  0  0  0
   40.2449    5.9722   -3.2397 C   0  0  2  0  0  0  0  0  0  0  0  0
   39.0533    5.1383   -3.0689 N   0  0  0  0  0  0  0  0  0  0  0  0
   41.0355    1.2607   -0.1640 C   0  0  0  0  0  0  0  0  0  0  0  0
   41.1011    1.3521   -6.0509 C   0  0  2  0  0  0  0  0  0  0  0  0
   42.2100    1.8940   -6.8960 O   0  0  0  0  0  0  0  0  0  0  0  0
   40.9049   -2.1860   -8.8599 C   0  0  2  0  0  0  0  0  0  0  0  0
   39.5570   -2.4439   -9.4619 N   0  0  0  0  0  0  0  0  0  0  0  0
   46.2556    5.0810   -8.1599 C   0  0  0  0  0  0  0  0  0  0  0  0
   47.5382    5.6829   -8.0730 N   0  0  0  0  0  0  0  0  0  0  0  0
   40.6330    6.1525   -4.7801 C   0  0  1  0  0  0  0  0  0  0  0  0
   39.5270    6.7187   -5.4659 O   0  0  0  0  0  0  0  0  0  0  0  0
   41.8302    2.4490   -0.9555 C   0  0  2  0  0  0  0  0  0  0  0  0
   42.1275    3.5474   -0.0801 N   0  0  0  0  0  0  0  0  0  0  0  0
   39.8292    0.7982   -6.7204 C   0  0  2  0  0  0  0  0  0  0  0  0
   40.0079   -0.1765   -7.7375 O   0  0  0  0  0  0  0  0  0  0  0  0
   41.6468   -3.5238   -8.5622 C   0  0  1  0  0  0  0  0  0  0  0  0
   42.9529   -3.1513   -7.9941 O   0  0  0  0  0  0  0  0  0  0  0  0
   47.7281    7.0659   -7.7911 C   0  0  0  0  0  0  0  0  0  0  0  0
   41.8956    7.0580   -4.8700 C   0  0  2  0  0  0  0  0  0  0  0  0
   42.3078    7.2592   -6.2802 O   0  0  0  0  0  0  0  0  0  0  0  0
   40.9555    2.9620   -2.1726 C   0  0  2  0  0  0  0  0  0  0  0  0
   39.0919    2.0724   -7.1967 C   0  0  1  0  0  0  0  0  0  0  0  0
   40.7829   -4.4176   -7.5131 C   0  0  2  0  0  0  0  0  0  0  0  0
   39.4758   -4.7934   -8.0740 O   0  0  0  0  0  0  0  0  0  0  0  0
   46.6052    7.9035   -7.5803 C   0  0  0  0  0  0  0  0  0  0  0  0
   43.0967    6.4055   -4.0830 C   0  0  2  0  0  0  0  0  0  0  0  0
   42.6313    6.2312   -2.7162 O   0  0  0  0  0  0  0  0  0  0  0  0
   40.6597    1.7323   -3.0997 C   0  0  2  0  0  0  0  0  0  0  0  0
   39.8906    2.3055   -4.1500 O   0  0  0  0  0  0  0  0  0  0  0  0
   37.5777    1.9694   -7.0215 C   0  0  0  0  0  0  0  0  0  0  0  0
   36.9303    1.0545   -7.8729 O   0  0  0  0  0  0  0  0  0  0  0  0
   40.5686   -3.5917   -6.1622 C   0  0  1  0  0  0  0  0  0  0  0  0
   39.8888   -2.2816   -6.5028 O   0  0  0  0  0  0  0  0  0  0  0  0
   45.2445    7.3235   -7.6611 C   0  0  0  0  0  0  0  0  0  0  0  0
   44.2504    7.3135   -4.1853 C   0  0  0  0  0  0  0  0  0  0  0  0
   44.0536    8.3760   -3.3947 O   0  0  0  0  0  0  0  0  0  0  0  0
   39.8616    0.6123   -2.3085 C   0  0  1  0  0  0  0  0  0  0  0  0
   39.6165   -0.4740   -3.1400 O   0  0  0  0  0  0  0  0  0  0  0  0
   43.4733    2.5312   -6.4550 C   0  0  0  0  0  0  0  0  0  0  0  0
   39.7321   -4.4864   -5.2076 C   0  0  0  0  0  0  0  0  0  0  0  0
   39.8307   -4.0108   -3.8501 N   0  0  0  0  0  0  0  0  0  0  0  0
   44.3481    2.7121   -7.6997 C   0  0  0  0  0  0  0  0  0  0  0  0
   43.7165    3.7207   -8.6110 N   0  0  0  0  0  0  0  0  0  0  0  0
   43.6435    5.1703   -8.0600 C   0  0  0  0  0  0  0  0  0  0  0  0
  1  2  1  6  0  0  0
  1  9  1  0  0  0  0
  1 35  1  0  0  0  0
  3  4  1  1  0  0  0
  3 11  1  0  0  0  0
  3 45  1  0  0  0  0
  5  6  1  0  0  0  0
  5 12  1  0  0  0  0
  5 37  1  1  0  0  0
  6 30  1  0  0  0  0
  7 14  1  0  0  0  0
  7 41  1  0  0  0  0
  7 23  1  6  0  0  0
  8 16  2  0  0  0  0
  8 42  1  0  0  0  0
  9 10  1  6  0  0  0
  9 18  1  0  0  0  0
 11 20  1  0  0  0  0
 12 13  1  6  0  0  0
 12 22  1  0  0  0  0
 13 47  1  0  0  0  0
 14 15  1  1  0  0  0
 14 24  1  0  0  0  0
 16 17  1  0  0  0  0
 17 26  2  0  0  0  0
 18 19  1  6  0  0  0
 18 27  1  0  0  0  0
 20 21  1  1  0  0  0
 20 29  1  0  0  0  0
 22 23  1  6  0  0  0
 22 30  1  0  0  0  0
 24 25  1  1  0  0  0
 24 31  1  0  0  0  0
 26 33  1  0  0  0  0
 27 28  1  6  0  0  0
 27 34  1  0  0  0  0
 29  2  1  6  0  0  0
 29 36  1  0  0  0  0
 30 38  1  1  0  0  0
 31 32  1  6  0  0  0
 31 40  1  0  0  0  0
 33 42  2  0  0  0  0
 34 35  1  0  0  0  0
 34 43  1  1  0  0  0
 36 37  1  6  0  0  0
 36 45  1  0  0  0  0
 38 39  1  0  0  0  0
 40 41  1  0  0  0  0
 40 48  1  1  0  0  0
 43 44  1  0  0  0  0
 45 46  1  6  0  0  0
 47 50  1  0  0  0  0
 48 49  1  0  0  0  0
 50 51  1  0  0  0  0
 51 52  1  0  0  0  0
 52  8  1  0  0  0  0
M  END
>  <CHROM.1>
-87.32181318,178.26767704,-172.47787763,67.92674025,171.62014967,57.97455642
-91.70956065,174.38186337,73.95976748,101.00724623,162.63991215,67.18500493
65.78497198,69.59375086,-9.71957099,41.56592070,2.30240324,-5.46312129,0.82983982
0.96163965,0.74776317

>  <Name>
2be0_lig

>  <RI>
0

>  <Rbt.Current_Directory>
/home/itssahil/PROJECTS/Mol_Feturizer/New_Systems/rnas/2be0

>  <Rbt.Executable>
rbdock ($Id: //depot/dev/client3/rdock/2013.1/src/exe/rbdock.cxx#4 $)

>  <Rbt.Library>
libRbt.so (2013.1, Build901 2013/11/27)

>  <Rbt.Parameter_File>
/export/apps/rDock/src/rDock_2013.1_src/data/scripts/dock_solv.prm

>  <Rbt.Receptor>
prm/pocket_docking_4.prm

>  <SCORE>
-14.351

>  <SCORE.INTER>
0.487924

>  <SCORE.INTER.CONST>
1

>  <SCORE.INTER.POLAR>
-0.571835

>  <SCORE.INTER.ROT>
15

>  <SCORE.INTER.SOLV>
9.64755

>  <SCORE.INTER.VDW>
-14.5845

>  <SCORE.INTER.norm>
0.00938315

>  <SCORE.INTRA>
-14.8692

>  <SCORE.INTRA.DIHEDRAL>
-31.0999

>  <SCORE.INTRA.DIHEDRAL.0>
47.8724

>  <SCORE.INTRA.POLAR>
0

>  <SCORE.INTRA.POLAR.0>
0

>  <SCORE.INTRA.REPUL>
0.0151684

>  <SCORE.INTRA.REPUL.0>
0

>  <SCORE.INTRA.SOLV>
0.101585

>  <SCORE.INTRA.SOLV.lig_0>
-115.677

>  <SCORE.INTRA.VDW>
0.554186

>  <SCORE.INTRA.VDW.0>
-7.4833

>  <SCORE.INTRA.norm>
-0.285945

>  <SCORE.RESTR>
0.0302344

>  <SCORE.RESTR.CAVITY>
0.0302344

>  <SCORE.RESTR.norm>
0.000581431

>  <SCORE.SYSTEM>
0

>  <SCORE.SYSTEM.CONST>
0

>  <SCORE.SYSTEM.DIHEDRAL>
0

>  <SCORE.SYSTEM.SOLV>
0

>  <SCORE.SYSTEM.norm>
0

>  <SCORE.heavy>
52

>  <SCORE.norm>
-0.275981

>  <RMSD>
9.422

$$$$
2be0_lig
 OpenBabel11021811423D
libRbt.so/2013.1/901 2013/11/27
 52 56  0  0  0  0  0  0  0  0999 V2000
   41.3172    2.3085   -4.8036 C   0  0  2  0  0  0  0  0  0  0  0  0
   40.7597    1.3900   -3.8935 O   0  0  0  0  0  0  0  0  0  0  0  0
   38.4869    1.6299   -0.1321 C   0  0  2  0  0  0  0  0  0  0  0  0
   38.0771    2.0900    1.2243 N   0  0  0  0  0  0  0  0  0  0  0  0
   38.7489    4.6558   -3.1967 C   0  0  2  0  0  0  0  0  0  0  0  0
   38.5792    5.5375   -4.3255 O   0  0  0  0  0  0  0  0  0  0  0  0
   43.2062    5.8889   -4.5221 C   0  0  1  0  0  0  0  0  0  0  0  0
   38.1655   10.6285    0.8869 C   0  0  0  0  0  0  0  0  0  0  0  0
   41.6571    1.6129   -6.1843 C   0  0  2  0  0  0  0  0  0  0  0  0
   40.4649    0.9433   -6.7086 N   0  0  0  0  0  0  0  0  0  0  0  0
   40.0196    1.1855   -0.0923 C   0  0  0  0  0  0  0  0  0  0  0  0
   40.0759    5.0454   -2.5260 C   0  0  2  0  0  0  0  0  0  0  0  0
   39.6908    6.1669   -1.6143 O   0  0  0  0  0  0  0  0  0  0  0  0
   44.4060    6.8686   -4.0303 C   0  0  2  0  0  0  0  0  0  0  0  0
   43.9130    8.2835   -4.0582 N   0  0  0  0  0  0  0  0  0  0  0  0
   37.9588    9.7014    1.9604 C   0  0  0  0  0  0  0  0  0  0  0  0
   37.6627   10.1863    3.2613 N   0  0  0  0  0  0  0  0  0  0  0  0
   42.8762    0.5974   -5.9886 C   0  0  1  0  0  0  0  0  0  0  0  0
   43.1598   -0.0204   -7.2344 O   0  0  0  0  0  0  0  0  0  0  0  0
   40.5135    0.6861   -1.5676 C   0  0  2  0  0  0  0  0  0  0  0  0
   41.8908    0.2813   -1.5447 N   0  0  0  0  0  0  0  0  0  0  0  0
   40.9029    5.3379   -3.7922 C   0  0  2  0  0  0  0  0  0  0  0  0
   42.0996    6.0834   -3.6230 O   0  0  0  0  0  0  0  0  0  0  0  0
   45.6080    6.6787   -5.0040 C   0  0  1  0  0  0  0  0  0  0  0  0
   46.0162    5.2695   -4.8823 O   0  0  0  0  0  0  0  0  0  0  0  0
   37.5589   11.5734    3.5665 C   0  0  0  0  0  0  0  0  0  0  0  0
   44.0992    1.3908   -5.4436 C   0  0  2  0  0  0  0  0  0  0  0  0
   45.2649    0.4977   -5.2372 O   0  0  0  0  0  0  0  0  0  0  0  0
   40.3206    1.8525   -2.6220 C   0  0  2  0  0  0  0  0  0  0  0  0
   39.8790    6.0039   -4.7421 C   0  0  1  0  0  0  0  0  0  0  0  0
   45.1522    7.0294   -6.5255 C   0  0  2  0  0  0  0  0  0  0  0  0
   44.7425    8.4364   -6.6547 O   0  0  0  0  0  0  0  0  0  0  0  0
   37.7520   12.5367    2.5459 C   0  0  0  0  0  0  0  0  0  0  0  0
   43.7410    2.0764   -4.0691 C   0  0  2  0  0  0  0  0  0  0  0  0
   42.5951    2.9313   -4.3354 O   0  0  0  0  0  0  0  0  0  0  0  0
   38.8057    2.2576   -2.6139 C   0  0  2  0  0  0  0  0  0  0  0  0
   38.7484    3.2881   -3.5927 O   0  0  0  0  0  0  0  0  0  0  0  0
   40.0638    5.5696   -6.1951 C   0  0  0  0  0  0  0  0  0  0  0  0
   39.0510    5.9787   -7.0830 O   0  0  0  0  0  0  0  0  0  0  0  0
   43.9410    6.0776   -6.9500 C   0  0  1  0  0  0  0  0  0  0  0  0
   42.8154    6.2587   -5.9526 O   0  0  0  0  0  0  0  0  0  0  0  0
   38.0642   12.0817    1.1712 C   0  0  0  0  0  0  0  0  0  0  0  0
   44.9238    2.8261   -3.6163 C   0  0  0  0  0  0  0  0  0  0  0  0
   45.8460    1.9704   -3.1580 O   0  0  0  0  0  0  0  0  0  0  0  0
   38.3685    2.7656   -1.1758 C   0  0  1  0  0  0  0  0  0  0  0  0
   37.0222    3.1107   -1.1824 O   0  0  0  0  0  0  0  0  0  0  0  0
   40.5781    7.1018   -0.8830 C   0  0  0  0  0  0  0  0  0  0  0  0
   43.5430    6.4641   -8.4004 C   0  0  0  0  0  0  0  0  0  0  0  0
   42.8907    7.7497   -8.4221 N   0  0  0  0  0  0  0  0  0  0  0  0
   39.7034    7.8732    0.1107 C   0  0  0  0  0  0  0  0  0  0  0  0
   38.5542    8.5006   -0.6189 N   0  0  0  0  0  0  0  0  0  0  0  0
   38.4977   10.0514   -0.5750 C   0  0  0  0  0  0  0  0  0  0  0  0
  1  2  1  1  0  0  0
  1  9  1  0  0  0  0
  1 35  1  0  0  0  0
  3  4  1  1  0  0  0
  3 11  1  0  0  0  0
  3 45  1  0  0  0  0
  5  6  1  0  0  0  0
  5 12  1  0  0  0  0
  5 37  1  6  0  0  0
  6 30  1  0  0  0  0
  7 14  1  0  0  0  0
  7 41  1  0  0  0  0
  7 23  1  1  0  0  0
  8 16  2  0  0  0  0
  8 42  1  0  0  0  0
  9 10  1  1  0  0  0
  9 18  1  0  0  0  0
 11 20  1  0  0  0  0
 12 13  1  1  0  0  0
 12 22  1  0  0  0  0
 13 47  1  0  0  0  0
 14 15  1  6  0  0  0
 14 24  1  0  0  0  0
 16 17  1  0  0  0  0
 17 26  2  0  0  0  0
 18 19  1  6  0  0  0
 18 27  1  0  0  0  0
 20 21  1  1  0  0  0
 20 29  1  0  0  0  0
 22 23  1  1  0  0  0
 22 30  1  0  0  0  0
 24 25  1  6  0  0  0
 24 31  1  0  0  0  0
 26 33  1  0  0  0  0
 27 28  1  1  0  0  0
 27 34  1  0  0  0  0
 29  2  1  6  0  0  0
 29 36  1  0  0  0  0
 30 38  1  6  0  0  0
 31 32  1  1  0  0  0
 31 40  1  0  0  0  0
 33 42  2  0  0  0  0
 34 35  1  0  0  0  0
 34 43  1  6  0  0  0
 36 37  1  6  0  0  0
 36 45  1  0  0  0  0
 38 39  1  0  0  0  0
 40 41  1  0  0  0  0
 40 48  1  6  0  0  0
 43 44  1  0  0  0  0
 45 46  1  6  0  0  0
 47 50  1  0  0  0  0
 48 49  1  0  0  0  0
 50 51  1  0  0  0  0
 51 52  1  0  0  0  0
 52  8  1  0  0  0  0
M  END
>  <CHROM.1>
-176.49577394,-175.40355855,-179.00628737,-168.31211839,-169.19610291,150.82970214
-148.70200702,54.78998888,-74.60569330,-99.36519675,-71.24010503,-53.67156463
-117.92250998,-68.53658948,-0.16196206,41.17067767,5.00989025,-3.24348954
0.76044245,-0.84240056,-3.02575351

>  <Name>
2be0_lig

>  <RI>
0

>  <Rbt.Current_Directory>
/home/itssahil/PROJECTS/Mol_Feturizer/New_Systems/rnas/2be0

>  <Rbt.Executable>
rbdock ($Id: //depot/dev/client3/rdock/2013.1/src/exe/rbdock.cxx#4 $)

>  <Rbt.Library>
libRbt.so (2013.1, Build901 2013/11/27)

>  <Rbt.Parameter_File>
/export/apps/rDock/src/rDock_2013.1_src/data/scripts/dock_solv.prm

>  <Rbt.Receptor>
prm/pocket_docking_6.prm

>  <SCORE>
-22.2929

>  <SCORE.INTER>
-8.01144

>  <SCORE.INTER.CONST>
1

>  <SCORE.INTER.POLAR>
-1.17649

>  <SCORE.INTER.ROT>
15

>  <SCORE.INTER.SOLV>
22.276

>  <SCORE.INTER.VDW>
-22.4447

>  <SCORE.INTER.norm>
-0.154066

>  <SCORE.INTRA>
-14.2815

>  <SCORE.INTRA.DIHEDRAL>
-30.1002

>  <SCORE.INTRA.DIHEDRAL.0>
47.8724

>  <SCORE.INTRA.POLAR>
0

>  <SCORE.INTRA.POLAR.0>
0

>  <SCORE.INTRA.REPUL>
0

>  <SCORE.INTRA.REPUL.0>
0

>  <SCORE.INTRA.SOLV>
0.354568

>  <SCORE.INTRA.SOLV.lig_0>
-115.677

>  <SCORE.INTRA.VDW>
0.591344

>  <SCORE.INTRA.VDW.0>
-7.4833

>  <SCORE.INTRA.norm>
-0.274644

>  <SCORE.RESTR>
0

>  <SCORE.RESTR.CAVITY>
0

>  <SCORE.RESTR.norm>
0

>  <SCORE.SYSTEM>
0

>  <SCORE.SYSTEM.CONST>
0

>  <SCORE.SYSTEM.DIHEDRAL>
0

>  <SCORE.SYSTEM.SOLV>
0

>  <SCORE.SYSTEM.norm>
0

>  <SCORE.heavy>
52

>  <SCORE.norm>
-0.42871

>  <RMSD>
9.430

$$$$
2be0_lig
 OpenBabel11021811423D
libRbt.so/2013.1/901 2013/11/27
 52 56  0  0  0  0  0  0  0  0999 V2000
   39.7536    0.4536   -7.0405 C   0  0  2  0  0  0  0  0  0  0  0  0
   39.4245    0.8157   -5.7201 O   0  0  0  0  0  0  0  0  0  0  0  0
   41.4684    1.7672   -1.9402 C   0  0  2  0  0  0  0  0  0  0  0  0
   42.5569    1.8632   -0.9276 N   0  0  0  0  0  0  0  0  0  0  0  0
   41.1554    4.5413   -5.4948 C   0  0  2  0  0  0  0  0  0  0  0  0
   40.8534    5.1274   -6.7776 O   0  0  0  0  0  0  0  0  0  0  0  0
   45.5410    5.1574   -5.8764 C   0  0  1  0  0  0  0  0  0  0  0  0
   43.3142    7.7062   -0.0457 C   0  0  0  0  0  0  0  0  0  0  0  0
   38.4591    0.3475   -7.9454 C   0  0  2  0  0  0  0  0  0  0  0  0
   37.6980    1.5963   -7.8699 N   0  0  0  0  0  0  0  0  0  0  0  0
   41.2839    0.2399   -2.3661 C   0  0  0  0  0  0  0  0  0  0  0  0
   42.6184    4.8926   -5.1806 C   0  0  2  0  0  0  0  0  0  0  0  0
   42.5261    6.2497   -4.5584 O   0  0  0  0  0  0  0  0  0  0  0  0
   46.8776    5.8223   -6.5189 C   0  0  2  0  0  0  0  0  0  0  0  0
   47.1847    5.1297   -7.8118 N   0  0  0  0  0  0  0  0  0  0  0  0
   42.0347    7.0882   -0.2353 C   0  0  0  0  0  0  0  0  0  0  0  0
   41.7185    5.8960    0.4674 N   0  0  0  0  0  0  0  0  0  0  0  0
   37.5872   -0.9129   -7.4904 C   0  0  1  0  0  0  0  0  0  0  0  0
   36.4293   -0.9856   -8.3078 O   0  0  0  0  0  0  0  0  0  0  0  0
   40.1058    0.0928   -3.4888 C   0  0  2  0  0  0  0  0  0  0  0  0
   39.9284   -1.2775   -3.8790 N   0  0  0  0  0  0  0  0  0  0  0  0
   43.2069    4.7378   -6.5957 C   0  0  2  0  0  0  0  0  0  0  0  0
   44.4788    5.3232   -6.8328 O   0  0  0  0  0  0  0  0  0  0  0  0
   48.0412    5.6380   -5.4985 C   0  0  1  0  0  0  0  0  0  0  0  0
   47.6410    6.3668   -4.2836 O   0  0  0  0  0  0  0  0  0  0  0  0
   42.6222    5.2646    1.3689 C   0  0  0  0  0  0  0  0  0  0  0  0
   38.4646   -2.1925   -7.6135 C   0  0  2  0  0  0  0  0  0  0  0  0
   37.7082   -3.3990   -7.1997 O   0  0  0  0  0  0  0  0  0  0  0  0
   40.4649    0.9648   -4.7617 C   0  0  2  0  0  0  0  0  0  0  0  0
   42.0855    5.2842   -7.5111 C   0  0  1  0  0  0  0  0  0  0  0  0
   48.2645    4.0568   -5.1890 C   0  0  2  0  0  0  0  0  0  0  0  0
   48.6644    3.3219   -6.3991 O   0  0  0  0  0  0  0  0  0  0  0  0
   43.9008    5.8299    1.5975 C   0  0  0  0  0  0  0  0  0  0  0  0
   39.7484   -2.0676   -6.7060 C   0  0  2  0  0  0  0  0  0  0  0  0
   40.4412   -0.8708   -7.1560 O   0  0  0  0  0  0  0  0  0  0  0  0
   40.6454    2.4488   -4.2882 C   0  0  2  0  0  0  0  0  0  0  0  0
   40.9482    3.1325   -5.4982 O   0  0  0  0  0  0  0  0  0  0  0  0
   41.9418    4.4784   -8.8012 C   0  0  0  0  0  0  0  0  0  0  0  0
   41.7721    3.0913   -8.6331 O   0  0  0  0  0  0  0  0  0  0  0  0
   46.9138    3.4338   -4.6056 C   0  0  1  0  0  0  0  0  0  0  0  0
   45.8019    3.6761   -5.6055 O   0  0  0  0  0  0  0  0  0  0  0  0
   44.2795    7.0737    0.8876 C   0  0  0  0  0  0  0  0  0  0  0  0
   40.5458   -3.2924   -6.8802 C   0  0  0  0  0  0  0  0  0  0  0  0
   40.9956   -3.3566   -8.1397 O   0  0  0  0  0  0  0  0  0  0  0  0
   41.8159    2.5594   -3.2228 C   0  0  1  0  0  0  0  0  0  0  0  0
   41.9563    3.8777   -2.8058 O   0  0  0  0  0  0  0  0  0  0  0  0
   43.6291    7.1245   -4.0953 C   0  0  0  0  0  0  0  0  0  0  0  0
   47.1826    1.9274   -4.3409 C   0  0  0  0  0  0  0  0  0  0  0  0
   46.1196    1.3530   -3.5543 N   0  0  0  0  0  0  0  0  0  0  0  0
   43.0068    8.2065   -3.2068 C   0  0  0  0  0  0  0  0  0  0  0  0
   44.0650    8.7969   -2.3245 N   0  0  0  0  0  0  0  0  0  0  0  0
   43.6442    9.0553   -0.8527 C   0  0  0  0  0  0  0  0  0  0  0  0
  1  2  1  1  0  0  0
  1  9  1  0  0  0  0
  1 35  1  0  0  0  0
  3  4  1  1  0  0  0
  3 11  1  0  0  0  0
  3 45  1  0  0  0  0
  5  6  1  0  0  0  0
  5 12  1  0  0  0  0
  5 37  1  6  0  0  0
  6 30  1  0  0  0  0
  7 14  1  0  0  0  0
  7 41  1  0  0  0  0
  7 23  1  6  0  0  0
  8 16  2  0  0  0  0
  8 42  1  0  0  0  0
  9 10  1  1  0  0  0
  9 18  1  0  0  0  0
 11 20  1  0  0  0  0
 12 13  1  6  0  0  0
 12 22  1  0  0  0  0
 13 47  1  0  0  0  0
 14 15  1  6  0  0  0
 14 24  1  0  0  0  0
 16 17  1  0  0  0  0
 17 26  2  0  0  0  0
 18 19  1  6  0  0  0
 18 27  1  0  0  0  0
 20 21  1  6  0  0  0
 20 29  1  0  0  0  0
 22 23  1  1  0  0  0
 22 30  1  0  0  0  0
 24 25  1  1  0  0  0
 24 31  1  0  0  0  0
 26 33  1  0  0  0  0
 27 28  1  1  0  0  0
 27 34  1  0  0  0  0
 29  2  1  6  0  0  0
 29 36  1  0  0  0  0
 30 38  1  6  0  0  0
 31 32  1  6  0  0  0
 31 40  1  0  0  0  0
 33 42  2  0  0  0  0
 34 35  1  0  0  0  0
 34 43  1  6  0  0  0
 36 37  1  6  0  0  0
 36 45  1  0  0  0  0
 38 39  1  0  0  0  0
 40 41  1  0  0  0  0
 40 48  1  6  0  0  0
 43 44  1  0  0  0  0
 45 46  1  1  0  0  0
 47 50  1  0  0  0  0
 48 49  1  0  0  0  0
 50 51  1  0  0  0  0
 51 52  1  0  0  0  0
 52  8  1  0  0  0  0
M  END
>  <CHROM.1>
-179.73977877,-153.96970310,174.67331839,-177.43307223,-164.85664355,44.92450035
-128.01819664,-62.67555543,65.37270045,178.50949297,167.76830596,159.43672129
-138.16913248,65.06900247,-79.78911310,42.47595437,3.09940835,-4.84352303
-2.30968788,0.56711491,0.97378399

>  <Name>
2be0_lig

>  <RI>
2.10017e+07

>  <Rbt.Current_Directory>
/home/itssahil/PROJECTS/Mol_Feturizer/New_Systems/rnas/2be0

>  <Rbt.Executable>
rbdock ($Id: //depot/dev/client3/rdock/2013.1/src/exe/rbdock.cxx#4 $)

>  <Rbt.Library>
libRbt.so (2013.1, Build901 2013/11/27)

>  <Rbt.Parameter_File>
/export/apps/rDock/src/rDock_2013.1_src/data/scripts/dock_solv.prm

>  <Rbt.Receptor>
prm/pocket_docking_3.prm

>  <SCORE>
-18.6628

>  <SCORE.INTER>
-4.34102

>  <SCORE.INTER.CONST>
1

>  <SCORE.INTER.POLAR>
-1.27053

>  <SCORE.INTER.ROT>
15

>  <SCORE.INTER.SOLV>
11.088

>  <SCORE.INTER.VDW>
-15.9549

>  <SCORE.INTER.norm>
-0.0834812

>  <SCORE.INTRA>
-14.9296

>  <SCORE.INTRA.DIHEDRAL>
-31.5465

>  <SCORE.INTRA.DIHEDRAL.0>
47.8724

>  <SCORE.INTRA.POLAR>
0

>  <SCORE.INTRA.POLAR.0>
0

>  <SCORE.INTRA.REPUL>
0

>  <SCORE.INTRA.REPUL.0>
0

>  <SCORE.INTRA.SOLV>
-0.844215

>  <SCORE.INTRA.SOLV.lig_0>
-115.677

>  <SCORE.INTRA.VDW>
1.26579

>  <SCORE.INTRA.VDW.0>
-7.4833

>  <SCORE.INTRA.norm>
-0.287107

>  <SCORE.RESTR>
0.607765

>  <SCORE.RESTR.CAVITY>
0.607765

>  <SCORE.RESTR.norm>
0.0116878

>  <SCORE.SYSTEM>
0

>  <SCORE.SYSTEM.CONST>
0

>  <SCORE.SYSTEM.DIHEDRAL>
0

>  <SCORE.SYSTEM.SOLV>
0

>  <SCORE.SYSTEM.norm>
0

>  <SCORE.heavy>
52

>  <SCORE.norm>
-0.3589

>  <RMSD>
9.432

$$$$
2be0_lig
 OpenBabel11021811423D
libRbt.so/2013.1/901 2013/11/27
 52 56  0  0  0  0  0  0  0  0999 V2000
   43.7990    5.5643    0.1352 C   0  0  2  0  0  0  0  0  0  0  0  0
   43.6188    5.8133   -1.2390 O   0  0  0  0  0  0  0  0  0  0  0  0
   40.5596    8.9737   -1.0847 C   0  0  2  0  0  0  0  0  0  0  0  0
   39.7425   10.1471   -1.5029 N   0  0  0  0  0  0  0  0  0  0  0  0
   41.2612    5.6636   -3.9074 C   0  0  2  0  0  0  0  0  0  0  0  0
   40.6884    4.5692   -4.6520 O   0  0  0  0  0  0  0  0  0  0  0  0
   45.5226    4.3266   -4.7615 C   0  0  1  0  0  0  0  0  0  0  0  0
   44.1277    8.4408  -10.3583 C   0  0  0  0  0  0  0  0  0  0  0  0
   43.4149    4.0732    0.5028 C   0  0  2  0  0  0  0  0  0  0  0  0
   44.1630    3.1449   -0.3475 N   0  0  0  0  0  0  0  0  0  0  0  0
   42.1033    9.3800   -1.0987 C   0  0  0  0  0  0  0  0  0  0  0  0
   42.7249    5.7890   -4.3594 C   0  0  2  0  0  0  0  0  0  0  0  0
   42.6405    6.6435   -5.5841 O   0  0  0  0  0  0  0  0  0  0  0  0
   46.1303    5.4099   -5.8097 C   0  0  2  0  0  0  0  0  0  0  0  0
   46.1996    4.7785   -7.1670 N   0  0  0  0  0  0  0  0  0  0  0  0
   45.3170    8.7180   -9.6075 C   0  0  0  0  0  0  0  0  0  0  0  0
   45.9697    9.9693   -9.7607 N   0  0  0  0  0  0  0  0  0  0  0  0
   41.8350    3.8745    0.3600 C   0  0  1  0  0  0  0  0  0  0  0  0
   41.5129    2.5314    0.6861 O   0  0  0  0  0  0  0  0  0  0  0  0
   43.0368    8.1133   -0.6586 C   0  0  2  0  0  0  0  0  0  0  0  0
   44.4283    8.4666   -0.6650 N   0  0  0  0  0  0  0  0  0  0  0  0
   43.0593    4.2913   -4.4926 C   0  0  2  0  0  0  0  0  0  0  0  0
   44.2181    3.9533   -5.2406 O   0  0  0  0  0  0  0  0  0  0  0  0
   47.5504    5.8137   -5.3105 C   0  0  1  0  0  0  0  0  0  0  0  0
   47.3601    6.4327   -3.9883 O   0  0  0  0  0  0  0  0  0  0  0  0
   45.4995   10.9865  -10.6395 C   0  0  0  0  0  0  0  0  0  0  0  0
   41.1214    4.8867    1.3026 C   0  0  2  0  0  0  0  0  0  0  0  0
   39.6474    4.7525    1.2106 O   0  0  0  0  0  0  0  0  0  0  0  0
   42.7933    6.8980   -1.6452 C   0  0  2  0  0  0  0  0  0  0  0  0
   41.7523    3.6815   -5.0529 C   0  0  1  0  0  0  0  0  0  0  0  0
   48.5008    4.4973   -5.2121 C   0  0  2  0  0  0  0  0  0  0  0  0
   48.6951    3.8731   -6.5300 O   0  0  0  0  0  0  0  0  0  0  0  0
   44.3283   10.7700  -11.4065 C   0  0  0  0  0  0  0  0  0  0  0  0
   41.5167    6.3652    0.9213 C   0  0  2  0  0  0  0  0  0  0  0  0
   42.9657    6.4313    1.0262 O   0  0  0  0  0  0  0  0  0  0  0  0
   41.2655    6.5470   -1.6021 C   0  0  2  0  0  0  0  0  0  0  0  0
   41.1673    5.4503   -2.5027 O   0  0  0  0  0  0  0  0  0  0  0  0
   41.4421    2.3128   -4.4491 C   0  0  0  0  0  0  0  0  0  0  0  0
   42.4390    1.3344   -4.6223 O   0  0  0  0  0  0  0  0  0  0  0  0
   47.8425    3.4406   -4.2106 C   0  0  1  0  0  0  0  0  0  0  0  0
   46.4492    3.1124   -4.7063 O   0  0  0  0  0  0  0  0  0  0  0  0
   43.6107    9.4800  -11.2833 C   0  0  0  0  0  0  0  0  0  0  0  0
   40.8313    7.2717    1.8565 C   0  0  0  0  0  0  0  0  0  0  0  0
   39.5188    7.2765    1.5921 O   0  0  0  0  0  0  0  0  0  0  0  0
   40.3914    7.7879   -2.0640 C   0  0  1  0  0  0  0  0  0  0  0  0
   39.0408    7.4644   -2.0105 O   0  0  0  0  0  0  0  0  0  0  0  0
   43.7470    7.2758   -6.3407 C   0  0  0  0  0  0  0  0  0  0  0  0
   48.7837    2.2062   -4.1657 C   0  0  0  0  0  0  0  0  0  0  0  0
   48.0177    0.9858   -4.1136 N   0  0  0  0  0  0  0  0  0  0  0  0
   43.1760    7.7221   -7.6905 C   0  0  0  0  0  0  0  0  0  0  0  0
   43.2843    6.5967   -8.6746 N   0  0  0  0  0  0  0  0  0  0  0  0
   43.4094    7.0172  -10.1638 C   0  0  0  0  0  0  0  0  0  0  0  0
  1  2  1  6  0  0  0
  1  9  1  0  0  0  0
  1 35  1  0  0  0  0
  3  4  1  6  0  0  0
  3 11  1  0  0  0  0
  3 45  1  0  0  0  0
  5  6  1  0  0  0  0
  5 12  1  0  0  0  0
  5 37  1  1  0  0  0
  6 30  1  0  0  0  0
  7 14  1  0  0  0  0
  7 41  1  0  0  0  0
  7 23  1  6  0  0  0
  8 16  2  0  0  0  0
  8 42  1  0  0  0  0
  9 10  1  6  0  0  0
  9 18  1  0  0  0  0
 11 20  1  0  0  0  0
 12 13  1  6  0  0  0
 12 22  1  0  0  0  0
 13 47  1  0  0  0  0
 14 15  1  6  0  0  0
 14 24  1  0  0  0  0
 16 17  1  0  0  0  0
 17 26  2  0  0  0  0
 18 19  1  1  0  0  0
 18 27  1  0  0  0  0
 20 21  1  6  0  0  0
 20 29  1  0  0  0  0
 22 23  1  6  0  0  0
 22 30  1  0  0  0  0
 24 25  1  1  0  0  0
 24 31  1  0  0  0  0
 26 33  1  0  0  0  0
 27 28  1  6  0  0  0
 27 34  1  0  0  0  0
 29  2  1  1  0  0  0
 29 36  1  0  0  0  0
 30 38  1  1  0  0  0
 31 32  1  6  0  0  0
 31 40  1  0  0  0  0
 33 42  2  0  0  0  0
 34 35  1  0  0  0  0
 34 43  1  1  0  0  0
 36 37  1  6  0  0  0
 36 45  1  0  0  0  0
 38 39  1  0  0  0  0
 40 41  1  0  0  0  0
 40 48  1  6  0  0  0
 43 44  1  0  0  0  0
 45 46  1  1  0  0  0
 47 50  1  0  0  0  0
 48 49  1  0  0  0  0
 50 51  1  0  0  0  0
 51 52  1  0  0  0  0
 52  8  1  0  0  0  0
M  END
>  <CHROM.1>
125.03642139,-159.78723839,-114.07850732,169.79455114,165.39933977,66.05846466
38.59170566,-174.11198257,-70.67463627,-73.63858524,-141.26127113,-88.11504365
-151.90389055,29.33605105,44.99939164,43.47472900,5.93021873,-3.80036591
-2.17390500,0.74634646,-0.97577632

>  <Name>
2be0_lig

>  <RI>
0

>  <Rbt.Current_Directory>
/home/itssahil/PROJECTS/Mol_Feturizer/New_Systems/rnas/2be0

>  <Rbt.Executable>
rbdock ($Id: //depot/dev/client3/rdock/2013.1/src/exe/rbdock.cxx#4 $)

>  <Rbt.Library>
libRbt.so (2013.1, Build901 2013/11/27)

>  <Rbt.Parameter_File>
/export/apps/rDock/src/rDock_2013.1_src/data/scripts/dock_solv.prm

>  <Rbt.Receptor>
prm/pocket_docking_2.prm

>  <SCORE>
9.65684

>  <SCORE.INTER>
-3.34622

>  <SCORE.INTER.CONST>
1

>  <SCORE.INTER.POLAR>
-0.19326

>  <SCORE.INTER.ROT>
15

>  <SCORE.INTER.SOLV>
19.8062

>  <SCORE.INTER.VDW>
-21.7887

>  <SCORE.INTER.norm>
-0.0643504

>  <SCORE.INTRA>
5.20491

>  <SCORE.INTRA.DIHEDRAL>
-18.2016

>  <SCORE.INTRA.DIHEDRAL.0>
47.8724

>  <SCORE.INTRA.POLAR>
0

>  <SCORE.INTRA.POLAR.0>
0

>  <SCORE.INTRA.REPUL>
0

>  <SCORE.INTRA.REPUL.0>
0

>  <SCORE.INTRA.SOLV>
1.61602

>  <SCORE.INTRA.SOLV.lig_0>
-115.677

>  <SCORE.INTRA.VDW>
13.4977

>  <SCORE.INTRA.VDW.0>
-7.4833

>  <SCORE.INTRA.norm>
0.100094

>  <SCORE.RESTR>
7.79815

>  <SCORE.RESTR.CAVITY>
7.79815

>  <SCORE.RESTR.norm>
0.149964

>  <SCORE.SYSTEM>
0

>  <SCORE.SYSTEM.CONST>
0

>  <SCORE.SYSTEM.DIHEDRAL>
0

>  <SCORE.SYSTEM.SOLV>
0

>  <SCORE.SYSTEM.norm>
0

>  <SCORE.heavy>
52

>  <SCORE.norm>
0.185708

>  <RMSD>
9.436

$$$$
2be0_lig
 OpenBabel11021811423D
libRbt.so/2013.1/901 2013/11/27
 52 56  0  0  0  0  0  0  0  0999 V2000
   43.5894    4.1617   -0.5864 C   0  0  2  0  0  0  0  0  0  0  0  0
   43.9244    4.4047   -1.9323 O   0  0  0  0  0  0  0  0  0  0  0  0
   42.1301    8.3599   -2.6448 C   0  0  2  0  0  0  0  0  0  0  0  0
   41.9615    9.7406   -3.1784 N   0  0  0  0  0  0  0  0  0  0  0  0
   41.4339    4.8319   -5.2580 C   0  0  2  0  0  0  0  0  0  0  0  0
   40.1740    4.3045   -4.7946 O   0  0  0  0  0  0  0  0  0  0  0  0
   41.6043    0.1540   -6.3628 C   0  0  1  0  0  0  0  0  0  0  0  0
   43.6742    8.9745   -9.8663 C   0  0  0  0  0  0  0  0  0  0  0  0
   43.0856    2.6753   -0.3804 C   0  0  2  0  0  0  0  0  0  0  0  0
   44.0846    1.7374   -0.8973 N   0  0  0  0  0  0  0  0  0  0  0  0
   43.5281    8.2620   -1.8805 C   0  0  0  0  0  0  0  0  0  0  0  0
   41.8859    3.9387   -6.4244 C   0  0  2  0  0  0  0  0  0  0  0  0
   41.1846    4.5270   -7.6074 O   0  0  0  0  0  0  0  0  0  0  0  0
   40.4504   -0.7949   -7.0027 C   0  0  2  0  0  0  0  0  0  0  0  0
   39.1142   -0.3185   -6.5197 N   0  0  0  0  0  0  0  0  0  0  0  0
   44.0709    9.9217  -10.8664 C   0  0  0  0  0  0  0  0  0  0  0  0
   44.9123   11.0085  -10.5114 N   0  0  0  0  0  0  0  0  0  0  0  0
   41.6648    2.4863   -1.0887 C   0  0  1  0  0  0  0  0  0  0  0  0
   41.2351    1.1471   -0.8991 O   0  0  0  0  0  0  0  0  0  0  0  0
   43.7585    6.7556   -1.2910 C   0  0  2  0  0  0  0  0  0  0  0  0
   45.0123    6.6549   -0.5988 N   0  0  0  0  0  0  0  0  0  0  0  0
   41.4339    2.5760   -5.8663 C   0  0  2  0  0  0  0  0  0  0  0  0
   41.3351    1.5016   -6.7896 O   0  0  0  0  0  0  0  0  0  0  0  0
   40.7214   -2.2574   -6.5373 C   0  0  1  0  0  0  0  0  0  0  0  0
   42.0413   -2.6223   -7.0778 O   0  0  0  0  0  0  0  0  0  0  0  0
   45.3935   11.2160   -9.1873 C   0  0  0  0  0  0  0  0  0  0  0  0
   40.6651    3.5082   -0.4735 C   0  0  2  0  0  0  0  0  0  0  0  0
   39.3249    3.3833   -1.0960 O   0  0  0  0  0  0  0  0  0  0  0  0
   43.7197    5.7036   -2.4747 C   0  0  2  0  0  0  0  0  0  0  0  0
   40.1050    2.9073   -5.1465 C   0  0  1  0  0  0  0  0  0  0  0  0
   40.7095   -2.3355   -4.9126 C   0  0  2  0  0  0  0  0  0  0  0  0
   39.3933   -1.9717   -4.3652 O   0  0  0  0  0  0  0  0  0  0  0  0
   45.0357   10.3119   -8.1569 C   0  0  0  0  0  0  0  0  0  0  0  0
   41.1841    4.9820   -0.6882 C   0  0  2  0  0  0  0  0  0  0  0  0
   42.4957    5.0390   -0.0625 O   0  0  0  0  0  0  0  0  0  0  0  0
   42.3352    5.8483   -3.1967 C   0  0  2  0  0  0  0  0  0  0  0  0
   42.4064    4.8610   -4.2184 O   0  0  0  0  0  0  0  0  0  0  0  0
   39.9377    2.1273   -3.8435 C   0  0  0  0  0  0  0  0  0  0  0  0
   39.4040    0.8318   -3.9774 O   0  0  0  0  0  0  0  0  0  0  0  0
   41.8241   -1.3528   -4.3253 C   0  0  1  0  0  0  0  0  0  0  0  0
   41.5507    0.0457   -4.8393 O   0  0  0  0  0  0  0  0  0  0  0  0
   44.1587    9.1615   -8.4759 C   0  0  0  0  0  0  0  0  0  0  0  0
   40.2125    5.8980   -0.0693 C   0  0  0  0  0  0  0  0  0  0  0  0
   40.6175    7.1622   -0.2435 O   0  0  0  0  0  0  0  0  0  0  0  0
   42.1582    7.3121   -3.7827 C   0  0  1  0  0  0  0  0  0  0  0  0
   40.9232    7.4271   -4.4097 O   0  0  0  0  0  0  0  0  0  0  0  0
   41.4191    5.8393   -8.2549 C   0  0  0  0  0  0  0  0  0  0  0  0
   41.7587   -1.4608   -2.7776 C   0  0  0  0  0  0  0  0  0  0  0  0
   42.1145   -2.7897   -2.3462 N   0  0  0  0  0  0  0  0  0  0  0  0
   42.9344    6.0039   -8.4096 C   0  0  0  0  0  0  0  0  0  0  0  0
   43.2540    6.3729   -9.8267 N   0  0  0  0  0  0  0  0  0  0  0  0
   42.7229    7.7538  -10.2968 C   0  0  0  0  0  0  0  0  0  0  0  0
  1  2  1  6  0  0  0
  1  9  1  0  0  0  0
  1 35  1  0  0  0  0
  3  4  1  6  0  0  0
  3 11  1  0  0  0  0
  3 45  1  0  0  0  0
  5  6  1  0  0  0  0
  5 12  1  0  0  0  0
  5 37  1  1  0  0  0
  6 30  1  0  0  0  0
  7 14  1  0  0  0  0
  7 41  1  0  0  0  0
  7 23  1  1  0  0  0
  8 16  2  0  0  0  0
  8 42  1  0  0  0  0
  9 10  1  6  0  0  0
  9 18  1  0  0  0  0
 11 20  1  0  0  0  0
 12 13  1  6  0  0  0
 12 22  1  0  0  0  0
 13 47  1  0  0  0  0
 14 15  1  1  0  0  0
 14 24  1  0  0  0  0
 16 17  1  0  0  0  0
 17 26  2  0  0  0  0
 18 19  1  1  0  0  0
 18 27  1  0  0  0  0
 20 21  1  6  0  0  0
 20 29  1  0  0  0  0
 22 23  1  6  0  0  0
 22 30  1  0  0  0  0
 24 25  1  1  0  0  0
 24 31  1  0  0  0  0
 26 33  1  0  0  0  0
 27 28  1  6  0  0  0
 27 34  1  0  0  0  0
 29  2  1  1  0  0  0
 29 36  1  0  0  0  0
 30 38  1  1  0  0  0
 31 32  1  1  0  0  0
 31 40  1  0  0  0  0
 33 42  2  0  0  0  0
 34 35  1  0  0  0  0
 34 43  1  1  0  0  0
 36 37  1  6  0  0  0
 36 45  1  0  0  0  0
 38 39  1  0  0  0  0
 40 41  1  0  0  0  0
 40 48  1  1  0  0  0
 43 44  1  0  0  0  0
 45 46  1  1  0  0  0
 47 50  1  0  0  0  0
 48 49  1  0  0  0  0
 50 51  1  0  0  0  0
 51 52  1  0  0  0  0
 52  8  1  0  0  0  0
M  END
>  <CHROM.1>
147.29098229,-75.04647361,136.39775824,68.37322001,45.56738302,147.94735432
25.18919283,159.23612806,-179.47224717,-168.54791296,64.28103467,128.95657151
65.24326270,82.40650313,129.76729729,41.98699219,4.08378614,-4.50621886,-2.91621991
-1.31226368,-1.73457816

>  <Name>
2be0_lig

>  <RI>
2.10017e+07

>  <Rbt.Current_Directory>
/home/itssahil/PROJECTS/Mol_Feturizer/New_Systems/rnas/2be0

>  <Rbt.Executable>
rbdock ($Id: //depot/dev/client3/rdock/2013.1/src/exe/rbdock.cxx#4 $)

>  <Rbt.Library>
libRbt.so (2013.1, Build901 2013/11/27)

>  <Rbt.Parameter_File>
/export/apps/rDock/src/rDock_2013.1_src/data/scripts/dock_solv.prm

>  <Rbt.Receptor>
prm/pocket_docking_3.prm

>  <SCORE>
-8.55743

>  <SCORE.INTER>
-8.38863

>  <SCORE.INTER.CONST>
1

>  <SCORE.INTER.POLAR>
-0.524276

>  <SCORE.INTER.ROT>
15

>  <SCORE.INTER.SOLV>
25.369

>  <SCORE.INTER.VDW>
-25.9012

>  <SCORE.INTER.norm>
-0.16132

>  <SCORE.INTRA>
-0.871753

>  <SCORE.INTRA.DIHEDRAL>
-18.1085

>  <SCORE.INTRA.DIHEDRAL.0>
47.8724

>  <SCORE.INTRA.POLAR>
0

>  <SCORE.INTRA.POLAR.0>
0

>  <SCORE.INTRA.REPUL>
0

>  <SCORE.INTRA.REPUL.0>
0

>  <SCORE.INTRA.SOLV>
3.75492

>  <SCORE.INTRA.SOLV.lig_0>
-115.677

>  <SCORE.INTRA.VDW>
6.30502

>  <SCORE.INTRA.VDW.0>
-7.4833

>  <SCORE.INTRA.norm>
-0.0167645

>  <SCORE.RESTR>
0.70296

>  <SCORE.RESTR.CAVITY>
0.70296

>  <SCORE.RESTR.norm>
0.0135185

>  <SCORE.SYSTEM>
0

>  <SCORE.SYSTEM.CONST>
0

>  <SCORE.SYSTEM.DIHEDRAL>
0

>  <SCORE.SYSTEM.SOLV>
0

>  <SCORE.SYSTEM.norm>
0

>  <SCORE.heavy>
52

>  <SCORE.norm>
-0.164566

>  <RMSD>
9.440

$$$$
2be0_lig
 OpenBabel11021811423D
libRbt.so/2013.1/901 2013/11/27
 52 56  0  0  0  0  0  0  0  0999 V2000
   40.6339   -1.8211   -9.1975 C   0  0  2  0  0  0  0  0  0  0  0  0
   40.7999   -0.8973   -8.1478 O   0  0  0  0  0  0  0  0  0  0  0  0
   43.7713   -0.5865   -4.9159 C   0  0  2  0  0  0  0  0  0  0  0  0
   45.0967   -0.5582   -4.2362 N   0  0  0  0  0  0  0  0  0  0  0  0
   41.3657    2.7150   -7.3685 C   0  0  2  0  0  0  0  0  0  0  0  0
   41.2139    3.5416   -8.5407 O   0  0  0  0  0  0  0  0  0  0  0  0
   44.6334    6.2064   -7.5444 C   0  0  1  0  0  0  0  0  0  0  0  0
   39.1683    7.0108   -2.2843 C   0  0  0  0  0  0  0  0  0  0  0  0
   39.6302   -1.2716  -10.2913 C   0  0  2  0  0  0  0  0  0  0  0  0
   40.0749    0.0443  -10.7553 N   0  0  0  0  0  0  0  0  0  0  0  0
   43.6198   -1.9638   -5.7086 C   0  0  0  0  0  0  0  0  0  0  0  0
   42.0924    3.5678   -6.3162 C   0  0  2  0  0  0  0  0  0  0  0  0
   40.9855    4.3287   -5.6579 O   0  0  0  0  0  0  0  0  0  0  0  0
   45.6862    6.9294   -6.5392 C   0  0  2  0  0  0  0  0  0  0  0  0
   44.9253    7.8267   -5.6110 N   0  0  0  0  0  0  0  0  0  0  0  0
   38.4962    7.8903   -1.3734 C   0  0  0  0  0  0  0  0  0  0  0  0
   39.1220    9.0998   -0.9728 N   0  0  0  0  0  0  0  0  0  0  0  0
   38.1506   -1.2246   -9.6878 C   0  0  1  0  0  0  0  0  0  0  0  0
   37.2689   -0.7228  -10.6802 O   0  0  0  0  0  0  0  0  0  0  0  0
   42.1816   -2.0288   -6.4815 C   0  0  2  0  0  0  0  0  0  0  0  0
   42.0319   -3.2645   -7.1970 N   0  0  0  0  0  0  0  0  0  0  0  0
   43.0773    4.3008   -7.2465 C   0  0  2  0  0  0  0  0  0  0  0  0
   43.7059    5.4653   -6.7313 O   0  0  0  0  0  0  0  0  0  0  0  0
   46.6900    7.7479   -7.4061 C   0  0  1  0  0  0  0  0  0  0  0  0
   47.3864    6.7713   -8.2597 O   0  0  0  0  0  0  0  0  0  0  0  0
   40.4096    9.4964   -1.4342 C   0  0  0  0  0  0  0  0  0  0  0  0
   37.7552   -2.6597   -9.2336 C   0  0  2  0  0  0  0  0  0  0  0  0
   36.3883   -2.6791   -8.6588 O   0  0  0  0  0  0  0  0  0  0  0  0
   42.0583   -0.8133   -7.4900 C   0  0  2  0  0  0  0  0  0  0  0  0
   42.2420    4.5532   -8.5242 C   0  0  1  0  0  0  0  0  0  0  0  0
   45.8875    8.8439   -8.3008 C   0  0  2  0  0  0  0  0  0  0  0  0
   45.1886    9.8232   -7.4542 O   0  0  0  0  0  0  0  0  0  0  0  0
   41.1214    8.6682   -2.3367 C   0  0  0  0  0  0  0  0  0  0  0  0
   38.7662   -3.1896   -8.1451 C   0  0  2  0  0  0  0  0  0  0  0  0
   40.0811   -3.1429   -8.7645 O   0  0  0  0  0  0  0  0  0  0  0  0
   42.2245    0.5100   -6.6652 C   0  0  2  0  0  0  0  0  0  0  0  0
   42.0851    1.5205   -7.6566 O   0  0  0  0  0  0  0  0  0  0  0  0
   43.0620    4.3761   -9.8010 C   0  0  0  0  0  0  0  0  0  0  0  0
   43.6112    3.0948   -9.9954 O   0  0  0  0  0  0  0  0  0  0  0  0
   44.8314    8.0948   -9.2370 C   0  0  1  0  0  0  0  0  0  0  0  0
   43.9073    7.2761   -8.3593 O   0  0  0  0  0  0  0  0  0  0  0  0
   40.5120    7.3946   -2.7845 C   0  0  0  0  0  0  0  0  0  0  0  0
   38.3552   -4.5526   -7.7721 C   0  0  0  0  0  0  0  0  0  0  0  0
   39.1189   -4.9884   -6.7624 O   0  0  0  0  0  0  0  0  0  0  0  0
   43.6420    0.5535   -5.9537 C   0  0  1  0  0  0  0  0  0  0  0  0
   43.7696    1.7264   -5.2192 O   0  0  0  0  0  0  0  0  0  0  0  0
   39.9330    5.1545   -6.2955 C   0  0  0  0  0  0  0  0  0  0  0  0
   44.0911    9.1872  -10.0556 C   0  0  0  0  0  0  0  0  0  0  0  0
   43.1615    8.5862  -10.9794 N   0  0  0  0  0  0  0  0  0  0  0  0
   39.2012    5.9002   -5.1750 C   0  0  0  0  0  0  0  0  0  0  0  0
   39.0620    4.9999   -3.9847 N   0  0  0  0  0  0  0  0  0  0  0  0
   38.4359    5.6496   -2.7213 C   0  0  0  0  0  0  0  0  0  0  0  0
  1  2  1  1  0  0  0
  1  9  1  0  0  0  0
  1 35  1  0  0  0  0
  3  4  1  6  0  0  0
  3 11  1  0  0  0  0
  3 45  1  0  0  0  0
  5  6  1  0  0  0  0
  5 12  1  0  0  0  0
  5 37  1  6  0  0  0
  6 30  1  0  0  0  0
  7 14  1  0  0  0  0
  7 41  1  0  0  0  0
  7 23  1  1  0  0  0
  8 16  2  0  0  0  0
  8 42  1  0  0  0  0
  9 10  1  1  0  0  0
  9 18  1  0  0  0  0
 11 20  1  0  0  0  0
 12 13  1  6  0  0  0
 12 22  1  0  0  0  0
 13 47  1  0  0  0  0
 14 15  1  1  0  0  0
 14 24  1  0  0  0  0
 16 17  1  0  0  0  0
 17 26  2  0  0  0  0
 18 19  1  6  0  0  0
 18 27  1  0  0  0  0
 20 21  1  6  0  0  0
 20 29  1  0  0  0  0
 22 23  1  1  0  0  0
 22 30  1  0  0  0  0
 24 25  1  6  0  0  0
 24 31  1  0  0  0  0
 26 33  1  0  0  0  0
 27 28  1  1  0  0  0
 27 34  1  0  0  0  0
 29  2  1  1  0  0  0
 29 36  1  0  0  0  0
 30 38  1  6  0  0  0
 31 32  1  1  0  0  0
 31 40  1  0  0  0  0
 33 42  2  0  0  0  0
 34 35  1  0  0  0  0
 34 43  1  6  0  0  0
 36 37  1  6  0  0  0
 36 45  1  0  0  0  0
 38 39  1  0  0  0  0
 40 41  1  0  0  0  0
 40 48  1  1  0  0  0
 43 44  1  0  0  0  0
 45 46  1  1  0  0  0
 47 50  1  0  0  0  0
 48 49  1  0  0  0  0
 50 51  1  0  0  0  0
 51 52  1  0  0  0  0
 52  8  1  0  0  0  0
M  END
>  <CHROM.1>
-147.11461850,-173.67767194,-151.66091005,-52.37258967,-170.57725553,-179.70910877
-77.81380514,-55.62571264,-174.44456705,140.39730378,177.12716159,-38.10447982
175.44461235,-52.51595139,163.71076208,41.74652414,3.07716035,-6.95932726
-1.99288029,0.73920102,0.51107212

>  <Name>
2be0_lig

>  <RI>
0

>  <Rbt.Current_Directory>
/home/itssahil/PROJECTS/Mol_Feturizer/New_Systems/rnas/2be0

>  <Rbt.Executable>
rbdock ($Id: //depot/dev/client3/rdock/2013.1/src/exe/rbdock.cxx#4 $)

>  <Rbt.Library>
libRbt.so (2013.1, Build901 2013/11/27)

>  <Rbt.Parameter_File>
/export/apps/rDock/src/rDock_2013.1_src/data/scripts/dock_solv.prm

>  <Rbt.Receptor>
prm/pocket_docking_4.prm

>  <SCORE>
-20.3849

>  <SCORE.INTER>
-8.88422

>  <SCORE.INTER.CONST>
1

>  <SCORE.INTER.POLAR>
-1.39557

>  <SCORE.INTER.ROT>
15

>  <SCORE.INTER.SOLV>
18.0876

>  <SCORE.INTER.VDW>
-20.9001

>  <SCORE.INTER.norm>
-0.17085

>  <SCORE.INTRA>
-11.5007

>  <SCORE.INTRA.DIHEDRAL>
-29.685

>  <SCORE.INTRA.DIHEDRAL.0>
47.8724

>  <SCORE.INTRA.POLAR>
0

>  <SCORE.INTRA.POLAR.0>
0

>  <SCORE.INTRA.REPUL>
0.020868

>  <SCORE.INTRA.REPUL.0>
0

>  <SCORE.INTRA.SOLV>
0.13988

>  <SCORE.INTRA.SOLV.lig_0>
-115.677

>  <SCORE.INTRA.VDW>
3.16755

>  <SCORE.INTRA.VDW.0>
-7.4833

>  <SCORE.INTRA.norm>
-0.221167

>  <SCORE.RESTR>
0

>  <SCORE.RESTR.CAVITY>
0

>  <SCORE.RESTR.norm>
0

>  <SCORE.SYSTEM>
0

>  <SCORE.SYSTEM.CONST>
0

>  <SCORE.SYSTEM.DIHEDRAL>
0

>  <SCORE.SYSTEM.SOLV>
0

>  <SCORE.SYSTEM.norm>
0

>  <SCORE.heavy>
52

>  <SCORE.norm>
-0.392017

>  <RMSD>
9.453

$$$$
2be0_lig
 OpenBabel11021811423D
libRbt.so/2013.1/901 2013/11/27
 52 56  0  0  0  0  0  0  0  0999 V2000
   40.5021    2.4003   -2.7657 C   0  0  2  0  0  0  0  0  0  0  0  0
   41.8398    1.9817   -2.6311 O   0  0  0  0  0  0  0  0  0  0  0  0
   43.6971    5.8238   -1.5542 C   0  0  2  0  0  0  0  0  0  0  0  0
   44.7272    6.7948   -1.0899 N   0  0  0  0  0  0  0  0  0  0  0  0
   43.5679    3.9723   -5.7245 C   0  0  2  0  0  0  0  0  0  0  0  0
   43.2598    3.0815   -6.8162 O   0  0  0  0  0  0  0  0  0  0  0  0
   48.0829    3.5154   -6.4396 C   0  0  1  0  0  0  0  0  0  0  0  0
   43.8992    9.1136  -10.3438 C   0  0  0  0  0  0  0  0  0  0  0  0
   39.5289    1.1637   -2.9365 C   0  0  2  0  0  0  0  0  0  0  0  0
   39.7233    0.2237   -1.8305 N   0  0  0  0  0  0  0  0  0  0  0  0
   43.4713    4.7204   -0.4229 C   0  0  0  0  0  0  0  0  0  0  0  0
   44.9990    4.4818   -5.9589 C   0  0  2  0  0  0  0  0  0  0  0  0
   44.8093    5.6461   -6.8785 O   0  0  0  0  0  0  0  0  0  0  0  0
   47.9901    5.0000   -5.7851 C   0  0  2  0  0  0  0  0  0  0  0  0
   47.8232    6.0014   -6.8874 N   0  0  0  0  0  0  0  0  0  0  0  0
   44.4560    9.8206   -9.2280 C   0  0  0  0  0  0  0  0  0  0  0  0
   45.3681   10.8845   -9.4538 N   0  0  0  0  0  0  0  0  0  0  0  0
   39.7789    0.4753   -4.3576 C   0  0  1  0  0  0  0  0  0  0  0  0
   38.9032   -0.6340   -4.4875 O   0  0  0  0  0  0  0  0  0  0  0  0
   42.3562    3.6255   -0.9000 C   0  0  2  0  0  0  0  0  0  0  0  0
   42.1422    2.6282    0.1104 N   0  0  0  0  0  0  0  0  0  0  0  0
   45.6280    3.1804   -6.4914 C   0  0  2  0  0  0  0  0  0  0  0  0
   46.8666    3.2960   -7.1764 O   0  0  0  0  0  0  0  0  0  0  0  0
   49.3082    5.2573   -4.9942 C   0  0  1  0  0  0  0  0  0  0  0  0
   49.3585    4.2345   -3.9365 O   0  0  0  0  0  0  0  0  0  0  0  0
   45.7715   11.2969  -10.7558 C   0  0  0  0  0  0  0  0  0  0  0  0
   39.5392    1.5362   -5.4708 C   0  0  2  0  0  0  0  0  0  0  0  0
   39.7609    0.9552   -6.8171 O   0  0  0  0  0  0  0  0  0  0  0  0
   42.8275    2.9286   -2.2423 C   0  0  2  0  0  0  0  0  0  0  0  0
   44.4963    2.5591   -7.3442 C   0  0  1  0  0  0  0  0  0  0  0  0
   50.5878    5.1357   -5.9910 C   0  0  2  0  0  0  0  0  0  0  0  0
   50.5440    6.1548   -7.0511 O   0  0  0  0  0  0  0  0  0  0  0  0
   45.2536   10.6361  -11.8970 C   0  0  0  0  0  0  0  0  0  0  0  0
   40.5169    2.7595   -5.2835 C   0  0  2  0  0  0  0  0  0  0  0  0
   40.2551    3.2801   -3.9511 O   0  0  0  0  0  0  0  0  0  0  0  0
   43.0446    4.0533   -3.3133 C   0  0  2  0  0  0  0  0  0  0  0  0
   43.4479    3.3209   -4.4640 O   0  0  0  0  0  0  0  0  0  0  0  0
   44.4319    1.0387   -7.2084 C   0  0  0  0  0  0  0  0  0  0  0  0
   45.5356    0.3369   -7.7285 O   0  0  0  0  0  0  0  0  0  0  0  0
   50.6127    3.6796   -6.6483 C   0  0  1  0  0  0  0  0  0  0  0  0
   49.2975    3.4537   -7.3652 O   0  0  0  0  0  0  0  0  0  0  0  0
   44.2986    9.5185  -11.7148 C   0  0  0  0  0  0  0  0  0  0  0  0
   40.2296    3.7347   -6.3477 C   0  0  0  0  0  0  0  0  0  0  0  0
   38.9866    4.2084   -6.1951 O   0  0  0  0  0  0  0  0  0  0  0  0
   44.1539    5.0803   -2.8316 C   0  0  1  0  0  0  0  0  0  0  0  0
   44.3271    6.0755   -3.7860 O   0  0  0  0  0  0  0  0  0  0  0  0
   43.9365    6.8296   -6.6936 C   0  0  0  0  0  0  0  0  0  0  0  0
   51.8433    3.6263   -7.5939 C   0  0  0  0  0  0  0  0  0  0  0  0
   53.0670    3.5866   -6.8324 N   0  0  0  0  0  0  0  0  0  0  0  0
   42.8340    6.7497   -7.7544 C   0  0  0  0  0  0  0  0  0  0  0  0
   43.4488    6.8236   -9.1194 N   0  0  0  0  0  0  0  0  0  0  0  0
   42.8685    7.9150  -10.0587 C   0  0  0  0  0  0  0  0  0  0  0  0
  1  2  1  6  0  0  0
  1  9  1  0  0  0  0
  1 35  1  0  0  0  0
  3  4  1  1  0  0  0
  3 11  1  0  0  0  0
  3 45  1  0  0  0  0
  5  6  1  0  0  0  0
  5 12  1  0  0  0  0
  5 37  1  1  0  0  0
  6 30  1  0  0  0  0
  7 14  1  0  0  0  0
  7 41  1  0  0  0  0
  7 23  1  6  0  0  0
  8 16  2  0  0  0  0
  8 42  1  0  0  0  0
  9 10  1  1  0  0  0
  9 18  1  0  0  0  0
 11 20  1  0  0  0  0
 12 13  1  6  0  0  0
 12 22  1  0  0  0  0
 13 47  1  0  0  0  0
 14 15  1  6  0  0  0
 14 24  1  0  0  0  0
 16 17  1  0  0  0  0
 17 26  2  0  0  0  0
 18 19  1  6  0  0  0
 18 27  1  0  0  0  0
 20 21  1  1  0  0  0
 20 29  1  0  0  0  0
 22 23  1  6  0  0  0
 22 30  1  0  0  0  0
 24 25  1  1  0  0  0
 24 31  1  0  0  0  0
 26 33  1  0  0  0  0
 27 28  1  6  0  0  0
 27 34  1  0  0  0  0
 29  2  1  6  0  0  0
 29 36  1  0  0  0  0
 30 38  1  1  0  0  0
 31 32  1  6  0  0  0
 31 40  1  0  0  0  0
 33 42  2  0  0  0  0
 34 35  1  0  0  0  0
 34 43  1  6  0  0  0
 36 37  1  6  0  0  0
 36 45  1  0  0  0  0
 38 39  1  0  0  0  0
 40 41  1  0  0  0  0
 40 48  1  6  0  0  0
 43 44  1  0  0  0  0
 45 46  1  6  0  0  0
 47 50  1  0  0  0  0
 48 49  1  0  0  0  0
 50 51  1  0  0  0  0
 51 52  1  0  0  0  0
 52  8  1  0  0  0  0
M  END
>  <CHROM.1>
-169.40326566,-148.40424331,-67.25599409,54.10894180,-113.01156905,75.80050643
53.91272692,177.32575195,64.25049293,171.30899878,71.58967774,-62.62121798
-126.63288004,110.61781102,-55.51050769,44.37435536,4.43287453,-5.78319098
2.39343176,0.00575886,2.34528996

>  <Name>
2be0_lig

>  <RI>
0

>  <Rbt.Current_Directory>
/home/itssahil/PROJECTS/Mol_Feturizer/New_Systems/rnas/2be0

>  <Rbt.Executable>
rbdock ($Id: //depot/dev/client3/rdock/2013.1/src/exe/rbdock.cxx#4 $)

>  <Rbt.Library>
libRbt.so (2013.1, Build901 2013/11/27)

>  <Rbt.Parameter_File>
/export/apps/rDock/src/rDock_2013.1_src/data/scripts/dock_solv.prm

>  <Rbt.Receptor>
prm/pocket_docking_6.prm

>  <SCORE>
-25.2102

>  <SCORE.INTER>
-11.3322

>  <SCORE.INTER.CONST>
1

>  <SCORE.INTER.POLAR>
-0.894427

>  <SCORE.INTER.ROT>
15

>  <SCORE.INTER.SOLV>
15.8297

>  <SCORE.INTER.VDW>
-23.45

>  <SCORE.INTER.norm>
-0.217927

>  <SCORE.INTRA>
-13.878

>  <SCORE.INTRA.DIHEDRAL>
-30.2731

>  <SCORE.INTRA.DIHEDRAL.0>
47.8724

>  <SCORE.INTRA.POLAR>
0

>  <SCORE.INTRA.POLAR.0>
0

>  <SCORE.INTRA.REPUL>
0

>  <SCORE.INTRA.REPUL.0>
0

>  <SCORE.INTRA.SOLV>
0.454857

>  <SCORE.INTRA.SOLV.lig_0>
-115.677

>  <SCORE.INTRA.VDW>
1.03111

>  <SCORE.INTRA.VDW.0>
-7.4833

>  <SCORE.INTRA.norm>
-0.266885

>  <SCORE.RESTR>
0

>  <SCORE.RESTR.CAVITY>
0

>  <SCORE.RESTR.norm>
0

>  <SCORE.SYSTEM>
0

>  <SCORE.SYSTEM.CONST>
0

>  <SCORE.SYSTEM.DIHEDRAL>
0

>  <SCORE.SYSTEM.SOLV>
0

>  <SCORE.SYSTEM.norm>
0

>  <SCORE.heavy>
52

>  <SCORE.norm>
-0.484812

>  <RMSD>
9.459

$$$$
2be0_lig
 OpenBabel11021811423D
libRbt.so/2013.1/901 2013/11/27
 52 56  0  0  0  0  0  0  0  0999 V2000
   41.3887    1.4496   -3.4407 C   0  0  2  0  0  0  0  0  0  0  0  0
   42.6883    1.9577   -3.2520 O   0  0  0  0  0  0  0  0  0  0  0  0
   42.1119    4.5615    0.2493 C   0  0  2  0  0  0  0  0  0  0  0  0
   42.3720    5.6367    1.2472 N   0  0  0  0  0  0  0  0  0  0  0  0
   41.0511    5.7897   -3.7906 C   0  0  2  0  0  0  0  0  0  0  0  0
   40.0326    5.8034   -4.8118 O   0  0  0  0  0  0  0  0  0  0  0  0
   44.2080    7.5132   -6.5470 C   0  0  1  0  0  0  0  0  0  0  0  0
   39.9006   10.1330    0.3708 C   0  0  0  0  0  0  0  0  0  0  0  0
   41.1538    0.1422   -2.5797 C   0  0  2  0  0  0  0  0  0  0  0  0
   41.4613    0.4129   -1.1737 N   0  0  0  0  0  0  0  0  0  0  0  0
   43.3641    3.5722    0.2085 C   0  0  0  0  0  0  0  0  0  0  0  0
   42.1712    6.7270   -4.2695 C   0  0  2  0  0  0  0  0  0  0  0  0
   41.7130    8.0778   -3.8189 O   0  0  0  0  0  0  0  0  0  0  0  0
   44.7447    7.9123   -8.0282 C   0  0  2  0  0  0  0  0  0  0  0  0
   44.4415    6.7858   -8.9688 N   0  0  0  0  0  0  0  0  0  0  0  0
   38.8011    9.4841   -0.2809 C   0  0  0  0  0  0  0  0  0  0  0  0
   38.1502    8.3947    0.3550 N   0  0  0  0  0  0  0  0  0  0  0  0
   42.0383   -1.0535   -3.1660 C   0  0  1  0  0  0  0  0  0  0  0  0
   41.8193   -2.2125   -2.3767 O   0  0  0  0  0  0  0  0  0  0  0  0
   43.1242    2.3837   -0.8868 C   0  0  2  0  0  0  0  0  0  0  0  0
   44.2431    1.4851   -0.9316 N   0  0  0  0  0  0  0  0  0  0  0  0
   42.1505    6.3723   -5.7683 C   0  0  2  0  0  0  0  0  0  0  0  0
   42.7925    7.2776   -6.6542 O   0  0  0  0  0  0  0  0  0  0  0  0
   46.2808    8.1575   -7.9303 C   0  0  1  0  0  0  0  0  0  0  0  0
   46.4579    9.2856   -7.0011 O   0  0  0  0  0  0  0  0  0  0  0  0
   38.5384    7.8980    1.6320 C   0  0  0  0  0  0  0  0  0  0  0  0
   41.6395   -1.2815   -4.6531 C   0  0  2  0  0  0  0  0  0  0  0  0
   42.4325   -2.3806   -5.2549 O   0  0  0  0  0  0  0  0  0  0  0  0
   42.8920    3.0141   -2.3214 C   0  0  2  0  0  0  0  0  0  0  0  0
   40.6463    6.1653   -6.0660 C   0  0  1  0  0  0  0  0  0  0  0  0
   47.0237    6.8196   -7.3790 C   0  0  2  0  0  0  0  0  0  0  0  0
   46.8505    5.6876   -8.3026 O   0  0  0  0  0  0  0  0  0  0  0  0
   39.6177    8.5000    2.3247 C   0  0  0  0  0  0  0  0  0  0  0  0
   41.8800    0.0311   -5.4937 C   0  0  2  0  0  0  0  0  0  0  0  0
   41.0833    1.0665   -4.8550 O   0  0  0  0  0  0  0  0  0  0  0  0
   41.6624    3.9823   -2.2241 C   0  0  2  0  0  0  0  0  0  0  0  0
   41.5404    4.4737   -3.5533 O   0  0  0  0  0  0  0  0  0  0  0  0
   40.3973    5.0097   -7.0339 C   0  0  0  0  0  0  0  0  0  0  0  0
   41.0803    5.0904   -8.2620 O   0  0  0  0  0  0  0  0  0  0  0  0
   46.4324    6.4362   -5.9450 C   0  0  1  0  0  0  0  0  0  0  0  0
   44.9343    6.2537   -6.0762 O   0  0  0  0  0  0  0  0  0  0  0  0
   40.3305    9.6401    1.7032 C   0  0  0  0  0  0  0  0  0  0  0  0
   41.4665   -0.2381   -6.8803 C   0  0  0  0  0  0  0  0  0  0  0  0
   40.1301   -0.2167   -6.9595 O   0  0  0  0  0  0  0  0  0  0  0  0
   41.9413    5.1399   -1.1754 C   0  0  1  0  0  0  0  0  0  0  0  0
   40.8393    5.9827   -1.0932 O   0  0  0  0  0  0  0  0  0  0  0  0
   41.8084    8.6758   -2.4663 C   0  0  0  0  0  0  0  0  0  0  0  0
   47.1678    5.1513   -5.4763 C   0  0  0  0  0  0  0  0  0  0  0  0
   46.7320    4.0096   -6.2413 N   0  0  0  0  0  0  0  0  0  0  0  0
   41.1509   10.0580   -2.5346 C   0  0  0  0  0  0  0  0  0  0  0  0
   41.6710   10.9134   -1.4190 N   0  0  0  0  0  0  0  0  0  0  0  0
   40.6174   11.3640   -0.3716 C   0  0  0  0  0  0  0  0  0  0  0  0
  1  2  1  6  0  0  0
  1  9  1  0  0  0  0
  1 35  1  0  0  0  0
  3  4  1  1  0  0  0
  3 11  1  0  0  0  0
  3 45  1  0  0  0  0
  5  6  1  0  0  0  0
  5 12  1  0  0  0  0
  5 37  1  6  0  0  0
  6 30  1  0  0  0  0
  7 14  1  0  0  0  0
  7 41  1  0  0  0  0
  7 23  1  6  0  0  0
  8 16  2  0  0  0  0
  8 42  1  0  0  0  0
  9 10  1  1  0  0  0
  9 18  1  0  0  0  0
 11 20  1  0  0  0  0
 12 13  1  6  0  0  0
 12 22  1  0  0  0  0
 13 47  1  0  0  0  0
 14 15  1  6  0  0  0
 14 24  1  0  0  0  0
 16 17  1  0  0  0  0
 17 26  2  0  0  0  0
 18 19  1  1  0  0  0
 18 27  1  0  0  0  0
 20 21  1  6  0  0  0
 20 29  1  0  0  0  0
 22 23  1  6  0  0  0
 22 30  1  0  0  0  0
 24 25  1  1  0  0  0
 24 31  1  0  0  0  0
 26 33  1  0  0  0  0
 27 28  1  6  0  0  0
 27 34  1  0  0  0  0
 29  2  1  6  0  0  0
 29 36  1  0  0  0  0
 30 38  1  6  0  0  0
 31 32  1  6  0  0  0
 31 40  1  0  0  0  0
 33 42  2  0  0  0  0
 34 35  1  0  0  0  0
 34 43  1  6  0  0  0
 36 37  1  6  0  0  0
 36 45  1  0  0  0  0
 38 39  1  0  0  0  0
 40 41  1  0  0  0  0
 40 48  1  6  0  0  0
 43 44  1  0  0  0  0
 45 46  1  1  0  0  0
 47 50  1  0  0  0  0
 48 49  1  0  0  0  0
 50 51  1  0  0  0  0
 51 52  1  0  0  0  0
 52  8  1  0  0  0  0
M  END
>  <CHROM.1>
-97.21156129,-132.21488291,151.45250894,79.72151330,-178.18521396,62.82575764
87.08642493,-171.50239680,76.48450028,-148.46950744,-71.90490895,-157.70591545
-116.48124947,59.76591656,-82.50195552,42.34396482,5.01052551,-3.72592170
1.22060354,-1.02515093,-2.99485486

>  <Name>
2be0_lig

>  <RI>
2.10017e+07

>  <Rbt.Current_Directory>
/home/itssahil/PROJECTS/Mol_Feturizer/New_Systems/rnas/2be0

>  <Rbt.Executable>
rbdock ($Id: //depot/dev/client3/rdock/2013.1/src/exe/rbdock.cxx#4 $)

>  <Rbt.Library>
libRbt.so (2013.1, Build901 2013/11/27)

>  <Rbt.Parameter_File>
/export/apps/rDock/src/rDock_2013.1_src/data/scripts/dock_solv.prm

>  <Rbt.Receptor>
prm/pocket_docking_3.prm

>  <SCORE>
-11.4567

>  <SCORE.INTER>
-8.45881

>  <SCORE.INTER.CONST>
1

>  <SCORE.INTER.POLAR>
-1.0872

>  <SCORE.INTER.ROT>
15

>  <SCORE.INTER.SOLV>
15.8441

>  <SCORE.INTER.VDW>
-20.8966

>  <SCORE.INTER.norm>
-0.162669

>  <SCORE.INTRA>
-3.24996

>  <SCORE.INTRA.DIHEDRAL>
-18.8607

>  <SCORE.INTRA.DIHEDRAL.0>
47.8724

>  <SCORE.INTRA.POLAR>
0

>  <SCORE.INTRA.POLAR.0>
0

>  <SCORE.INTRA.REPUL>
0

>  <SCORE.INTRA.REPUL.0>
0

>  <SCORE.INTRA.SOLV>
3.70722

>  <SCORE.INTRA.SOLV.lig_0>
-115.677

>  <SCORE.INTRA.VDW>
4.32677

>  <SCORE.INTRA.VDW.0>
-7.4833

>  <SCORE.INTRA.norm>
-0.0624993

>  <SCORE.RESTR>
0.252046

>  <SCORE.RESTR.CAVITY>
0.252046

>  <SCORE.RESTR.norm>
0.00484704

>  <SCORE.SYSTEM>
0

>  <SCORE.SYSTEM.CONST>
0

>  <SCORE.SYSTEM.DIHEDRAL>
0

>  <SCORE.SYSTEM.SOLV>
0

>  <SCORE.SYSTEM.norm>
0

>  <SCORE.heavy>
52

>  <SCORE.norm>
-0.220322

>  <RMSD>
9.480

$$$$
2be0_lig
 OpenBabel11021811423D
libRbt.so/2013.1/901 2013/11/27
 52 56  0  0  0  0  0  0  0  0999 V2000
   42.7240    3.5668   -0.0675 C   0  0  2  0  0  0  0  0  0  0  0  0
   42.2167    4.5257   -0.9652 O   0  0  0  0  0  0  0  0  0  0  0  0
   43.3654    8.6891   -1.8122 C   0  0  2  0  0  0  0  0  0  0  0  0
   44.2288    9.8654   -2.1125 N   0  0  0  0  0  0  0  0  0  0  0  0
   42.7368    5.7109   -4.9641 C   0  0  2  0  0  0  0  0  0  0  0  0
   41.6087    6.4747   -5.4378 O   0  0  0  0  0  0  0  0  0  0  0  0
   41.5643    2.0037   -7.1861 C   0  0  1  0  0  0  0  0  0  0  0  0
   48.6480    4.5751   -7.2736 C   0  0  0  0  0  0  0  0  0  0  0  0
   43.6231    2.5002   -0.8157 C   0  0  2  0  0  0  0  0  0  0  0  0
   44.6736    3.1825   -1.5744 N   0  0  0  0  0  0  0  0  0  0  0  0
   43.8764    7.9951   -0.4685 C   0  0  0  0  0  0  0  0  0  0  0  0
   42.8278    4.4589   -5.8510 C   0  0  2  0  0  0  0  0  0  0  0  0
   43.6173    4.9245   -7.0331 O   0  0  0  0  0  0  0  0  0  0  0  0
   41.0860    1.3796   -8.6085 C   0  0  2  0  0  0  0  0  0  0  0  0
   39.5915    1.2701   -8.6067 N   0  0  0  0  0  0  0  0  0  0  0  0
   49.7784    3.7538   -6.9534 C   0  0  0  0  0  0  0  0  0  0  0  0
   50.2452    3.6910   -5.6143 N   0  0  0  0  0  0  0  0  0  0  0  0
   42.7054    1.5867   -1.7533 C   0  0  1  0  0  0  0  0  0  0  0  0
   43.5303    0.6436   -2.4198 O   0  0  0  0  0  0  0  0  0  0  0  0
   42.9623    6.6889   -0.1107 C   0  0  2  0  0  0  0  0  0  0  0  0
   43.4106    6.0565    1.0978 N   0  0  0  0  0  0  0  0  0  0  0  0
   41.3229    4.1674   -6.0023 C   0  0  2  0  0  0  0  0  0  0  0  0
   40.9378    3.2921   -7.0522 O   0  0  0  0  0  0  0  0  0  0  0  0
   41.7467   -0.0237   -8.7614 C   0  0  1  0  0  0  0  0  0  0  0  0
   43.2009    0.2057   -8.7669 O   0  0  0  0  0  0  0  0  0  0  0  0
   49.6409    4.4158   -4.5478 C   0  0  0  0  0  0  0  0  0  0  0  0
   41.6298    0.8923   -0.8684 C   0  0  2  0  0  0  0  0  0  0  0  0
   40.7420    0.0308   -1.6862 O   0  0  0  0  0  0  0  0  0  0  0  0
   43.0185    5.6503   -1.3055 C   0  0  2  0  0  0  0  0  0  0  0  0
   40.6936    5.5776   -6.1000 C   0  0  1  0  0  0  0  0  0  0  0  0
   41.3076   -0.9832   -7.5235 C   0  0  2  0  0  0  0  0  0  0  0  0
   39.8551   -1.2167   -7.5115 O   0  0  0  0  0  0  0  0  0  0  0  0
   48.5197    5.2431   -4.8035 C   0  0  0  0  0  0  0  0  0  0  0  0
   40.7452    1.9703   -0.1314 C   0  0  2  0  0  0  0  0  0  0  0  0
   41.6686    2.7813    0.6461 O   0  0  0  0  0  0  0  0  0  0  0  0
   42.5184    6.3828   -2.5987 C   0  0  2  0  0  0  0  0  0  0  0  0
   42.5983    5.3655   -3.5897 O   0  0  0  0  0  0  0  0  0  0  0  0
   39.3608    5.6737   -5.3593 C   0  0  0  0  0  0  0  0  0  0  0  0
   38.3041    4.9279   -5.9147 O   0  0  0  0  0  0  0  0  0  0  0  0
   41.7534   -0.3095   -6.1450 C   0  0  1  0  0  0  0  0  0  0  0  0
   41.1284    1.0678   -6.0593 O   0  0  0  0  0  0  0  0  0  0  0  0
   47.9945    5.3436   -6.1849 C   0  0  0  0  0  0  0  0  0  0  0  0
   39.7650    1.2568    0.7029 C   0  0  0  0  0  0  0  0  0  0  0  0
   40.3801    0.7485    1.7780 O   0  0  0  0  0  0  0  0  0  0  0  0
   43.4455    7.6261   -2.9333 C   0  0  1  0  0  0  0  0  0  0  0  0
   42.9836    8.2702   -4.0749 O   0  0  0  0  0  0  0  0  0  0  0  0
   44.4266    4.1142   -7.9737 C   0  0  0  0  0  0  0  0  0  0  0  0
   41.3001   -1.2605   -5.0042 C   0  0  0  0  0  0  0  0  0  0  0  0
   42.0090   -2.5138   -5.0766 N   0  0  0  0  0  0  0  0  0  0  0  0
   45.6116    4.9799   -8.4139 C   0  0  0  0  0  0  0  0  0  0  0  0
   46.6900    4.1020   -8.9733 N   0  0  0  0  0  0  0  0  0  0  0  0
   48.1407    4.6259   -8.7969 C   0  0  0  0  0  0  0  0  0  0  0  0
  1  2  1  6  0  0  0
  1  9  1  0  0  0  0
  1 35  1  0  0  0  0
  3  4  1  6  0  0  0
  3 11  1  0  0  0  0
  3 45  1  0  0  0  0
  5  6  1  0  0  0  0
  5 12  1  0  0  0  0
  5 37  1  1  0  0  0
  6 30  1  0  0  0  0
  7 14  1  0  0  0  0
  7 41  1  0  0  0  0
  7 23  1  1  0  0  0
  8 16  2  0  0  0  0
  8 42  1  0  0  0  0
  9 10  1  6  0  0  0
  9 18  1  0  0  0  0
 11 20  1  0  0  0  0
 12 13  1  6  0  0  0
 12 22  1  0  0  0  0
 13 47  1  0  0  0  0
 14 15  1  1  0  0  0
 14 24  1  0  0  0  0
 16 17  1  0  0  0  0
 17 26  2  0  0  0  0
 18 19  1  1  0  0  0
 18 27  1  0  0  0  0
 20 21  1  1  0  0  0
 20 29  1  0  0  0  0
 22 23  1  6  0  0  0
 22 30  1  0  0  0  0
 24 25  1  1  0  0  0
 24 31  1  0  0  0  0
 26 33  1  0  0  0  0
 27 28  1  6  0  0  0
 27 34  1  0  0  0  0
 29  2  1  1  0  0  0
 29 36  1  0  0  0  0
 30 38  1  1  0  0  0
 31 32  1  1  0  0  0
 31 40  1  0  0  0  0
 33 42  2  0  0  0  0
 34 35  1  0  0  0  0
 34 43  1  1  0  0  0
 36 37  1  6  0  0  0
 36 45  1  0  0  0  0
 38 39  1  0  0  0  0
 40 41  1  0  0  0  0
 40 48  1  1  0  0  0
 43 44  1  0  0  0  0
 45 46  1  6  0  0  0
 47 50  1  0  0  0  0
 48 49  1  0  0  0  0
 50 51  1  0  0  0  0
 51 52  1  0  0  0  0
 52  8  1  0  0  0  0
M  END
>  <CHROM.1>
-84.55533053,-61.71466713,-170.50808742,156.36572223,-146.86352687,51.90876969
-77.67420526,176.05348262,74.20325675,-155.51189686,65.12764988,160.97463237
-150.06677559,70.43763214,118.16340624,43.04416585,3.54593602,-4.36600899
1.87833677,0.73248163,1.04237346

>  <Name>
2be0_lig

>  <RI>
3.37048e+07

>  <Rbt.Current_Directory>
/home/itssahil/PROJECTS/Mol_Feturizer/New_Systems/rnas/2be0

>  <Rbt.Executable>
rbdock ($Id: //depot/dev/client3/rdock/2013.1/src/exe/rbdock.cxx#4 $)

>  <Rbt.Library>
libRbt.so (2013.1, Build901 2013/11/27)

>  <Rbt.Parameter_File>
/export/apps/rDock/src/rDock_2013.1_src/data/scripts/dock_solv.prm

>  <Rbt.Receptor>
prm/pocket_docking_8.prm

>  <SCORE>
-17.3513

>  <SCORE.INTER>
-4.64957

>  <SCORE.INTER.CONST>
1

>  <SCORE.INTER.POLAR>
-0.979796

>  <SCORE.INTER.ROT>
15

>  <SCORE.INTER.SOLV>
19.7355

>  <SCORE.INTER.VDW>
-20.0122

>  <SCORE.INTER.norm>
-0.0894148

>  <SCORE.INTRA>
-12.7018

>  <SCORE.INTRA.DIHEDRAL>
-30.2035

>  <SCORE.INTRA.DIHEDRAL.0>
47.8724

>  <SCORE.INTRA.POLAR>
0

>  <SCORE.INTRA.POLAR.0>
0

>  <SCORE.INTRA.REPUL>
0

>  <SCORE.INTRA.REPUL.0>
0

>  <SCORE.INTRA.SOLV>
-0.739666

>  <SCORE.INTRA.SOLV.lig_0>
-115.677

>  <SCORE.INTRA.VDW>
2.76984

>  <SCORE.INTRA.VDW.0>
-7.4833

>  <SCORE.INTRA.norm>
-0.244264

>  <SCORE.RESTR>
0

>  <SCORE.RESTR.CAVITY>
0

>  <SCORE.RESTR.norm>
0

>  <SCORE.SYSTEM>
0

>  <SCORE.SYSTEM.CONST>
0

>  <SCORE.SYSTEM.DIHEDRAL>
0

>  <SCORE.SYSTEM.SOLV>
0

>  <SCORE.SYSTEM.norm>
0

>  <SCORE.heavy>
52

>  <SCORE.norm>
-0.333679

>  <RMSD>
9.480

$$$$
2be0_lig
 OpenBabel11021811423D
libRbt.so/2013.1/901 2013/11/27
 52 56  0  0  0  0  0  0  0  0999 V2000
   39.7032   -2.1848   -4.7960 C   0  0  2  0  0  0  0  0  0  0  0  0
   38.9636   -1.1432   -4.2036 O   0  0  0  0  0  0  0  0  0  0  0  0
   37.5991    0.9317   -7.8373 C   0  0  2  0  0  0  0  0  0  0  0  0
   36.8483    1.8846   -8.7019 N   0  0  0  0  0  0  0  0  0  0  0  0
   40.9663    2.3520   -5.3044 C   0  0  2  0  0  0  0  0  0  0  0  0
   42.0900    2.4568   -4.4061 O   0  0  0  0  0  0  0  0  0  0  0  0
   39.4997    5.6645   -2.1490 C   0  0  1  0  0  0  0  0  0  0  0  0
   43.8828    8.1595   -8.9807 C   0  0  0  0  0  0  0  0  0  0  0  0
   40.1764   -3.2391   -3.7141 C   0  0  2  0  0  0  0  0  0  0  0  0
   39.0215   -3.7212   -2.9537 N   0  0  0  0  0  0  0  0  0  0  0  0
   36.5599    0.0546   -7.0011 C   0  0  0  0  0  0  0  0  0  0  0  0
   40.2505    3.7119   -5.2789 C   0  0  2  0  0  0  0  0  0  0  0  0
   41.0029    4.5219   -6.2865 O   0  0  0  0  0  0  0  0  0  0  0  0
   39.4942    7.2796   -1.9683 C   0  0  2  0  0  0  0  0  0  0  0  0
   40.9119    7.7643   -1.9365 N   0  0  0  0  0  0  0  0  0  0  0  0
   44.4634    8.5315   -7.7240 C   0  0  0  0  0  0  0  0  0  0  0  0
   45.0566    9.8126   -7.5752 N   0  0  0  0  0  0  0  0  0  0  0  0
   41.2823   -2.5781   -2.7675 C   0  0  1  0  0  0  0  0  0  0  0  0
   41.6871   -3.5357   -1.8014 O   0  0  0  0  0  0  0  0  0  0  0  0
   37.3453   -0.9963   -6.0271 C   0  0  2  0  0  0  0  0  0  0  0  0
   36.4212   -1.7933   -5.2707 N   0  0  0  0  0  0  0  0  0  0  0  0
   40.3983    4.0278   -3.7785 C   0  0  2  0  0  0  0  0  0  0  0  0
   40.1877    5.3742   -3.3790 O   0  0  0  0  0  0  0  0  0  0  0  0
   38.7634    7.6088   -0.6316 C   0  0  1  0  0  0  0  0  0  0  0  0
   37.3877    7.1064   -0.7814 O   0  0  0  0  0  0  0  0  0  0  0  0
   45.1099   10.7694   -8.6285 C   0  0  0  0  0  0  0  0  0  0  0  0
   42.4737   -2.1076   -3.6514 C   0  0  2  0  0  0  0  0  0  0  0  0
   43.5340   -1.4798   -2.8264 O   0  0  0  0  0  0  0  0  0  0  0  0
   38.2963   -0.2044   -5.0382 C   0  0  2  0  0  0  0  0  0  0  0  0
   41.8065    3.4859   -3.4360 C   0  0  1  0  0  0  0  0  0  0  0  0
   39.5223    6.8832    0.6107 C   0  0  2  0  0  0  0  0  0  0  0  0
   40.8982    7.3802    0.7663 O   0  0  0  0  0  0  0  0  0  0  0  0
   44.5514   10.4586   -9.8928 C   0  0  0  0  0  0  0  0  0  0  0  0
   41.9826   -1.0591   -4.7224 C   0  0  2  0  0  0  0  0  0  0  0  0
   40.9472   -1.7295   -5.4927 O   0  0  0  0  0  0  0  0  0  0  0  0
   39.2866    0.6462   -5.9070 C   0  0  2  0  0  0  0  0  0  0  0  0
   40.0889    1.2955   -4.9282 O   0  0  0  0  0  0  0  0  0  0  0  0
   41.8581    2.8265   -2.0588 C   0  0  0  0  0  0  0  0  0  0  0  0
   43.1136    2.3162   -1.6782 O   0  0  0  0  0  0  0  0  0  0  0  0
   39.5473    5.3040    0.3686 C   0  0  1  0  0  0  0  0  0  0  0  0
   40.2224    5.0323   -0.9599 O   0  0  0  0  0  0  0  0  0  0  0  0
   43.9213    9.1340  -10.0996 C   0  0  0  0  0  0  0  0  0  0  0  0
   43.1436   -0.6691   -5.5385 C   0  0  0  0  0  0  0  0  0  0  0  0
   42.7550    0.1982   -6.4817 O   0  0  0  0  0  0  0  0  0  0  0  0
   38.4927    1.6756   -6.8168 C   0  0  1  0  0  0  0  0  0  0  0  0
   39.3829    2.4139   -7.5875 O   0  0  0  0  0  0  0  0  0  0  0  0
   42.3690    5.0856   -6.1764 C   0  0  0  0  0  0  0  0  0  0  0  0
   40.2903    4.6686    1.5751 C   0  0  0  0  0  0  0  0  0  0  0  0
   39.5454    4.8702    2.7930 N   0  0  0  0  0  0  0  0  0  0  0  0
   42.3112    6.5211   -6.7088 C   0  0  0  0  0  0  0  0  0  0  0  0
   42.0028    6.4971   -8.1755 N   0  0  0  0  0  0  0  0  0  0  0  0
   43.2173    6.7042   -9.1201 C   0  0  0  0  0  0  0  0  0  0  0  0
  1  2  1  1  0  0  0
  1  9  1  0  0  0  0
  1 35  1  0  0  0  0
  3  4  1  1  0  0  0
  3 11  1  0  0  0  0
  3 45  1  0  0  0  0
  5  6  1  0  0  0  0
  5 12  1  0  0  0  0
  5 37  1  1  0  0  0
  6 30  1  0  0  0  0
  7 14  1  0  0  0  0
  7 41  1  0  0  0  0
  7 23  1  6  0  0  0
  8 16  2  0  0  0  0
  8 42  1  0  0  0  0
  9 10  1  1  0  0  0
  9 18  1  0  0  0  0
 11 20  1  0  0  0  0
 12 13  1  6  0  0  0
 12 22  1  0  0  0  0
 13 47  1  0  0  0  0
 14 15  1  1  0  0  0
 14 24  1  0  0  0  0
 16 17  1  0  0  0  0
 17 26  2  0  0  0  0
 18 19  1  1  0  0  0
 18 27  1  0  0  0  0
 20 21  1  1  0  0  0
 20 29  1  0  0  0  0
 22 23  1  6  0  0  0
 22 30  1  0  0  0  0
 24 25  1  6  0  0  0
 24 31  1  0  0  0  0
 26 33  1  0  0  0  0
 27 28  1  1  0  0  0
 27 34  1  0  0  0  0
 29  2  1  6  0  0  0
 29 36  1  0  0  0  0
 30 38  1  1  0  0  0
 31 32  1  6  0  0  0
 31 40  1  0  0  0  0
 33 42  2  0  0  0  0
 34 35  1  0  0  0  0
 34 43  1  6  0  0  0
 36 37  1  1  0  0  0
 36 45  1  0  0  0  0
 38 39  1  0  0  0  0
 40 41  1  0  0  0  0
 40 48  1  1  0  0  0
 43 44  1  0  0  0  0
 45 46  1  6  0  0  0
 47 50  1  0  0  0  0
 48 49  1  0  0  0  0
 50 51  1  0  0  0  0
 51 52  1  0  0  0  0
 52  8  1  0  0  0  0
M  END
>  <CHROM.1>
-171.22235308,-152.97255479,177.44079890,-71.96431673,-135.97858062,141.15425890
55.21177406,64.06439924,178.49809236,-168.78366065,65.01853005,-65.96703074
-101.05296945,-64.72546108,62.74457409,40.78077517,3.11601952,-4.46532184
-2.50232493,1.22620677,0.70224028

>  <Name>
2be0_lig

>  <RI>
0

>  <Rbt.Current_Directory>
/home/itssahil/PROJECTS/Mol_Feturizer/New_Systems/rnas/2be0

>  <Rbt.Executable>
rbdock ($Id: //depot/dev/client3/rdock/2013.1/src/exe/rbdock.cxx#4 $)

>  <Rbt.Library>
libRbt.so (2013.1, Build901 2013/11/27)

>  <Rbt.Parameter_File>
/export/apps/rDock/src/rDock_2013.1_src/data/scripts/dock_solv.prm

>  <Rbt.Receptor>
prm/pocket_docking_4.prm

>  <SCORE>
-26.2732

>  <SCORE.INTER>
-12.6936

>  <SCORE.INTER.CONST>
1

>  <SCORE.INTER.POLAR>
-0.959166

>  <SCORE.INTER.ROT>
15

>  <SCORE.INTER.SOLV>
15.1467

>  <SCORE.INTER.VDW>
-23.9141

>  <SCORE.INTER.norm>
-0.244109

>  <SCORE.INTRA>
-13.7369

>  <SCORE.INTRA.DIHEDRAL>
-29.4352

>  <SCORE.INTRA.DIHEDRAL.0>
47.8724

>  <SCORE.INTRA.POLAR>
0

>  <SCORE.INTRA.POLAR.0>
0

>  <SCORE.INTRA.REPUL>
0

>  <SCORE.INTRA.REPUL.0>
0

>  <SCORE.INTRA.SOLV>
-1.41692

>  <SCORE.INTRA.SOLV.lig_0>
-115.677

>  <SCORE.INTRA.VDW>
1.68918

>  <SCORE.INTRA.VDW.0>
-7.4833

>  <SCORE.INTRA.norm>
-0.26417

>  <SCORE.RESTR>
0.157282

>  <SCORE.RESTR.CAVITY>
0.157282

>  <SCORE.RESTR.norm>
0.00302465

>  <SCORE.SYSTEM>
0

>  <SCORE.SYSTEM.CONST>
0

>  <SCORE.SYSTEM.DIHEDRAL>
0

>  <SCORE.SYSTEM.SOLV>
0

>  <SCORE.SYSTEM.norm>
0

>  <SCORE.heavy>
52

>  <SCORE.norm>
-0.505254

>  <RMSD>
9.487

$$$$
2be0_lig
 OpenBabel11021811423D
libRbt.so/2013.1/901 2013/11/27
 52 56  0  0  0  0  0  0  0  0999 V2000
   41.6488    1.3537   -2.4998 C   0  0  2  0  0  0  0  0  0  0  0  0
   42.1101    2.5809   -3.0135 O   0  0  0  0  0  0  0  0  0  0  0  0
   41.9853    4.9954    0.6642 C   0  0  2  0  0  0  0  0  0  0  0  0
   42.1956    6.1468    1.5860 N   0  0  0  0  0  0  0  0  0  0  0  0
   39.9345    5.8550   -3.0262 C   0  0  2  0  0  0  0  0  0  0  0  0
   38.7866    6.0268   -3.8824 O   0  0  0  0  0  0  0  0  0  0  0  0
   42.8811    6.6667   -6.2616 C   0  0  1  0  0  0  0  0  0  0  0  0
   38.9534   10.1793    0.3497 C   0  0  0  0  0  0  0  0  0  0  0  0
   41.5496    0.2572   -3.6373 C   0  0  2  0  0  0  0  0  0  0  0  0
   42.8369    0.1392   -4.3253 N   0  0  0  0  0  0  0  0  0  0  0  0
   43.3967    4.5244    0.0859 C   0  0  0  0  0  0  0  0  0  0  0  0
   41.1479    6.3981   -3.7977 C   0  0  2  0  0  0  0  0  0  0  0  0
   41.1236    7.8639   -3.5003 O   0  0  0  0  0  0  0  0  0  0  0  0
   43.3208    7.3764   -7.6560 C   0  0  2  0  0  0  0  0  0  0  0  0
   42.9043    6.4963   -8.7951 N   0  0  0  0  0  0  0  0  0  0  0  0
   38.5245   10.6469    1.6350 C   0  0  0  0  0  0  0  0  0  0  0  0
   37.6905    9.8267    2.4394 N   0  0  0  0  0  0  0  0  0  0  0  0
   40.3655    0.6325   -4.6437 C   0  0  1  0  0  0  0  0  0  0  0  0
   40.2984   -0.3573   -5.6585 O   0  0  0  0  0  0  0  0  0  0  0  0
   43.2081    3.2693   -0.9431 C   0  0  2  0  0  0  0  0  0  0  0  0
   44.4713    2.8344   -1.4689 N   0  0  0  0  0  0  0  0  0  0  0  0
   40.7755    5.8965   -5.2057 C   0  0  2  0  0  0  0  0  0  0  0  0
   41.4534    6.4915   -6.3025 O   0  0  0  0  0  0  0  0  0  0  0  0
   44.8683    7.5604   -7.6317 C   0  0  1  0  0  0  0  0  0  0  0  0
   45.1584    8.4472   -6.4930 O   0  0  0  0  0  0  0  0  0  0  0  0
   37.2449    8.5373    2.0309 C   0  0  0  0  0  0  0  0  0  0  0  0
   39.0388    0.7243   -3.8353 C   0  0  2  0  0  0  0  0  0  0  0  0
   37.9000    1.0750   -4.7181 O   0  0  0  0  0  0  0  0  0  0  0  0
   42.2537    3.6906   -2.1353 C   0  0  2  0  0  0  0  0  0  0  0  0
   39.2385    6.0683   -5.2516 C   0  0  1  0  0  0  0  0  0  0  0  0
   45.5974    6.1173   -7.4537 C   0  0  2  0  0  0  0  0  0  0  0  0
   45.3115    5.2254   -8.5882 O   0  0  0  0  0  0  0  0  0  0  0  0
   37.6375    8.0217    0.7711 C   0  0  0  0  0  0  0  0  0  0  0  0
   39.1573    1.8206   -2.7076 C   0  0  2  0  0  0  0  0  0  0  0  0
   40.2873    1.4245   -1.8822 O   0  0  0  0  0  0  0  0  0  0  0  0
   40.8901    4.1534   -1.5144 C   0  0  2  0  0  0  0  0  0  0  0  0
   40.1187    4.4912   -2.6608 O   0  0  0  0  0  0  0  0  0  0  0  0
   38.5455    4.9209   -5.9846 C   0  0  0  0  0  0  0  0  0  0  0  0
   38.8067    3.6335   -5.4789 O   0  0  0  0  0  0  0  0  0  0  0  0
   45.1004    5.4347   -6.0972 C   0  0  1  0  0  0  0  0  0  0  0  0
   43.5908    5.3184   -6.1430 O   0  0  0  0  0  0  0  0  0  0  0  0
   38.5070    8.8392   -0.1063 C   0  0  0  0  0  0  0  0  0  0  0  0
   37.8860    1.8460   -1.9666 C   0  0  0  0  0  0  0  0  0  0  0  0
   37.9624    2.7481   -0.9802 O   0  0  0  0  0  0  0  0  0  0  0  0
   41.1060    5.3912   -0.5455 C   0  0  1  0  0  0  0  0  0  0  0  0
   39.8909    5.7824    0.0041 O   0  0  0  0  0  0  0  0  0  0  0  0
   41.1875    8.5342   -2.1801 C   0  0  0  0  0  0  0  0  0  0  0  0
   45.8180    4.0620   -5.9870 C   0  0  0  0  0  0  0  0  0  0  0  0
   45.2360    3.1104   -6.9005 N   0  0  0  0  0  0  0  0  0  0  0  0
   41.2655   10.0419   -2.4407 C   0  0  0  0  0  0  0  0  0  0  0  0
   39.9781   10.6873   -2.0248 N   0  0  0  0  0  0  0  0  0  0  0  0
   39.8978   11.1279   -0.5384 C   0  0  0  0  0  0  0  0  0  0  0  0
  1  2  1  6  0  0  0
  1  9  1  0  0  0  0
  1 35  1  0  0  0  0
  3  4  1  1  0  0  0
  3 11  1  0  0  0  0
  3 45  1  0  0  0  0
  5  6  1  0  0  0  0
  5 12  1  0  0  0  0
  5 37  1  6  0  0  0
  6 30  1  0  0  0  0
  7 14  1  0  0  0  0
  7 41  1  0  0  0  0
  7 23  1  6  0  0  0
  8 16  2  0  0  0  0
  8 42  1  0  0  0  0
  9 10  1  6  0  0  0
  9 18  1  0  0  0  0
 11 20  1  0  0  0  0
 12 13  1  6  0  0  0
 12 22  1  0  0  0  0
 13 47  1  0  0  0  0
 14 15  1  6  0  0  0
 14 24  1  0  0  0  0
 16 17  1  0  0  0  0
 17 26  2  0  0  0  0
 18 19  1  6  0  0  0
 18 27  1  0  0  0  0
 20 21  1  6  0  0  0
 20 29  1  0  0  0  0
 22 23  1  6  0  0  0
 22 30  1  0  0  0  0
 24 25  1  1  0  0  0
 24 31  1  0  0  0  0
 26 33  1  0  0  0  0
 27 28  1  6  0  0  0
 27 34  1  0  0  0  0
 29  2  1  6  0  0  0
 29 36  1  0  0  0  0
 30 38  1  6  0  0  0
 31 32  1  6  0  0  0
 31 40  1  0  0  0  0
 33 42  2  0  0  0  0
 34 35  1  0  0  0  0
 34 43  1  1  0  0  0
 36 37  1  6  0  0  0
 36 45  1  0  0  0  0
 38 39  1  0  0  0  0
 40 41  1  0  0  0  0
 40 48  1  6  0  0  0
 43 44  1  0  0  0  0
 45 46  1  1  0  0  0
 47 50  1  0  0  0  0
 48 49  1  0  0  0  0
 50 51  1  0  0  0  0
 51 52  1  0  0  0  0
 52  8  1  0  0  0  0
M  END
>  <CHROM.1>
179.55382063,-159.58225296,-179.64569812,58.56075752,174.57128767,46.12598841
55.89589256,-59.77007935,178.66306499,-102.43705934,-74.84089969,109.88924493
87.97237181,-106.42317900,-164.67028727,41.17143939,5.24052337,-3.27131504
0.73435809,-0.91586837,-2.92301135

>  <Name>
2be0_lig

>  <RI>
2.75444e+07

>  <Rbt.Current_Directory>
/home/itssahil/PROJECTS/Mol_Feturizer/New_Systems/rnas/2be0

>  <Rbt.Executable>
rbdock ($Id: //depot/dev/client3/rdock/2013.1/src/exe/rbdock.cxx#4 $)

>  <Rbt.Library>
libRbt.so (2013.1, Build901 2013/11/27)

>  <Rbt.Parameter_File>
/export/apps/rDock/src/rDock_2013.1_src/data/scripts/dock_solv.prm

>  <Rbt.Receptor>
prm/pocket_docking_5.prm

>  <SCORE>
-26.3911

>  <SCORE.INTER>
-12.1837

>  <SCORE.INTER.CONST>
1

>  <SCORE.INTER.POLAR>
-1.26391

>  <SCORE.INTER.ROT>
15

>  <SCORE.INTER.SOLV>
15.6676

>  <SCORE.INTER.VDW>
-22.732

>  <SCORE.INTER.norm>
-0.234302

>  <SCORE.INTRA>
-14.2214

>  <SCORE.INTRA.DIHEDRAL>
-30.3755

>  <SCORE.INTRA.DIHEDRAL.0>
47.8724

>  <SCORE.INTRA.POLAR>
0

>  <SCORE.INTRA.POLAR.0>
0

>  <SCORE.INTRA.REPUL>
0

>  <SCORE.INTRA.REPUL.0>
0

>  <SCORE.INTRA.SOLV>
0.197022

>  <SCORE.INTRA.SOLV.lig_0>
-115.677

>  <SCORE.INTRA.VDW>
0.867859

>  <SCORE.INTRA.VDW.0>
-7.4833

>  <SCORE.INTRA.norm>
-0.273489

>  <SCORE.RESTR>
0.0140219

>  <SCORE.RESTR.CAVITY>
0.0140219

>  <SCORE.RESTR.norm>
0.000269651

>  <SCORE.SYSTEM>
0

>  <SCORE.SYSTEM.CONST>
0

>  <SCORE.SYSTEM.DIHEDRAL>
0

>  <SCORE.SYSTEM.SOLV>
0

>  <SCORE.SYSTEM.norm>
0

>  <SCORE.heavy>
52

>  <SCORE.norm>
-0.507521

>  <RMSD>
9.487

$$$$
2be0_lig
 OpenBabel11021811423D
libRbt.so/2013.1/901 2013/11/27
 52 56  0  0  0  0  0  0  0  0999 V2000
   41.7697   -3.4750   -6.3615 C   0  0  2  0  0  0  0  0  0  0  0  0
   40.8270   -3.0824   -5.3920 O   0  0  0  0  0  0  0  0  0  0  0  0
   40.1873   -3.6917   -1.0803 C   0  0  2  0  0  0  0  0  0  0  0  0
   40.4895   -3.9958    0.3465 N   0  0  0  0  0  0  0  0  0  0  0  0
   41.1611    0.2703   -3.0519 C   0  0  2  0  0  0  0  0  0  0  0  0
   39.8179    0.7388   -3.2897 O   0  0  0  0  0  0  0  0  0  0  0  0
   41.3557    4.0943   -5.0856 C   0  0  1  0  0  0  0  0  0  0  0  0
   39.6338    3.2067    2.2442 C   0  0  0  0  0  0  0  0  0  0  0  0
   43.0162   -2.4994   -6.3773 C   0  0  2  0  0  0  0  0  0  0  0  0
   43.5878   -2.4042   -5.0324 N   0  0  0  0  0  0  0  0  0  0  0  0
   40.6416   -4.9258   -1.9852 C   0  0  0  0  0  0  0  0  0  0  0  0
   42.1085    1.3003   -3.6874 C   0  0  2  0  0  0  0  0  0  0  0  0
   42.2630    2.3378   -2.6211 O   0  0  0  0  0  0  0  0  0  0  0  0
   40.4013    4.8920   -6.1315 C   0  0  2  0  0  0  0  0  0  0  0  0
   41.1196    5.0133   -7.4411 N   0  0  0  0  0  0  0  0  0  0  0  0
   39.2995    4.4989    1.7215 C   0  0  0  0  0  0  0  0  0  0  0  0
   38.9010    5.5342    2.6072 N   0  0  0  0  0  0  0  0  0  0  0  0
   42.5733   -1.0707   -6.9416 C   0  0  1  0  0  0  0  0  0  0  0  0
   43.7017   -0.2100   -6.9403 O   0  0  0  0  0  0  0  0  0  0  0  0
   40.3396   -4.6258   -3.5628 C   0  0  2  0  0  0  0  0  0  0  0  0
   40.7419   -5.7299   -4.3877 N   0  0  0  0  0  0  0  0  0  0  0  0
   41.2929    1.6203   -4.9544 C   0  0  2  0  0  0  0  0  0  0  0  0
   41.6348    2.8045   -5.6595 O   0  0  0  0  0  0  0  0  0  0  0  0
   40.1014    6.2977   -5.5288 C   0  0  1  0  0  0  0  0  0  0  0  0
   39.3863    6.0581   -4.2644 O   0  0  0  0  0  0  0  0  0  0  0  0
   38.8109    5.3563    4.0172 C   0  0  0  0  0  0  0  0  0  0  0  0
   41.9920   -1.2619   -8.3726 C   0  0  2  0  0  0  0  0  0  0  0  0
   41.5585    0.0337   -8.9491 O   0  0  0  0  0  0  0  0  0  0  0  0
   41.1070   -3.3166   -4.0172 C   0  0  2  0  0  0  0  0  0  0  0  0
   39.8289    1.5898   -4.4543 C   0  0  1  0  0  0  0  0  0  0  0  0
   41.4921    7.1021   -5.2744 C   0  0  2  0  0  0  0  0  0  0  0  0
   42.2125    7.3448   -6.5340 O   0  0  0  0  0  0  0  0  0  0  0  0
   39.1299    4.1012    4.5916 C   0  0  0  0  0  0  0  0  0  0  0  0
   40.7525   -2.2365   -8.3363 C   0  0  2  0  0  0  0  0  0  0  0  0
   41.2387   -3.4804   -7.7609 O   0  0  0  0  0  0  0  0  0  0  0  0
   40.6343   -2.1412   -3.0930 C   0  0  2  0  0  0  0  0  0  0  0  0
   41.3682   -1.0302   -3.5935 O   0  0  0  0  0  0  0  0  0  0  0  0
   38.8781    0.9634   -5.4730 C   0  0  0  0  0  0  0  0  0  0  0  0
   38.6507    1.7229   -6.6361 O   0  0  0  0  0  0  0  0  0  0  0  0
   42.4184    6.2607   -4.2810 C   0  0  1  0  0  0  0  0  0  0  0  0
   42.6453    4.8888   -4.8818 O   0  0  0  0  0  0  0  0  0  0  0  0
   39.5506    2.9878    3.7098 C   0  0  0  0  0  0  0  0  0  0  0  0
   40.2616   -2.3947   -9.7148 C   0  0  0  0  0  0  0  0  0  0  0  0
   41.1394   -3.1185  -10.4207 O   0  0  0  0  0  0  0  0  0  0  0  0
   40.9701   -2.4520   -1.5738 C   0  0  1  0  0  0  0  0  0  0  0  0
   40.5361   -1.4066   -0.7674 O   0  0  0  0  0  0  0  0  0  0  0  0
   43.0206    2.2434   -1.3509 C   0  0  0  0  0  0  0  0  0  0  0  0
   43.7300    7.0686   -4.0850 C   0  0  0  0  0  0  0  0  0  0  0  0
   44.5113    6.5141   -3.0076 N   0  0  0  0  0  0  0  0  0  0  0  0
   42.0997    1.5792   -0.3223 C   0  0  0  0  0  0  0  0  0  0  0  0
   41.0586    2.5614    0.1229 N   0  0  0  0  0  0  0  0  0  0  0  0
   40.0828    2.0546    1.2188 C   0  0  0  0  0  0  0  0  0  0  0  0
  1  2  1  1  0  0  0
  1  9  1  0  0  0  0
  1 35  1  0  0  0  0
  3  4  1  1  0  0  0
  3 11  1  0  0  0  0
  3 45  1  0  0  0  0
  5  6  1  0  0  0  0
  5 12  1  0  0  0  0
  5 37  1  6  0  0  0
  6 30  1  0  0  0  0
  7 14  1  0  0  0  0
  7 41  1  0  0  0  0
  7 23  1  6  0  0  0
  8 16  2  0  0  0  0
  8 42  1  0  0  0  0
  9 10  1  1  0  0  0
  9 18  1  0  0  0  0
 11 20  1  0  0  0  0
 12 13  1  1  0  0  0
 12 22  1  0  0  0  0
 13 47  1  0  0  0  0
 14 15  1  6  0  0  0
 14 24  1  0  0  0  0
 16 17  1  0  0  0  0
 17 26  2  0  0  0  0
 18 19  1  6  0  0  0
 18 27  1  0  0  0  0
 20 21  1  6  0  0  0
 20 29  1  0  0  0  0
 22 23  1  1  0  0  0
 22 30  1  0  0  0  0
 24 25  1  1  0  0  0
 24 31  1  0  0  0  0
 26 33  1  0  0  0  0
 27 28  1  1  0  0  0
 27 34  1  0  0  0  0
 29  2  1  6  0  0  0
 29 36  1  0  0  0  0
 30 38  1  6  0  0  0
 31 32  1  6  0  0  0
 31 40  1  0  0  0  0
 33 42  2  0  0  0  0
 34 35  1  0  0  0  0
 34 43  1  6  0  0  0
 36 37  1  6  0  0  0
 36 45  1  0  0  0  0
 38 39  1  0  0  0  0
 40 41  1  0  0  0  0
 40 48  1  6  0  0  0
 43 44  1  0  0  0  0
 45 46  1  1  0  0  0
 47 50  1  0  0  0  0
 48 49  1  0  0  0  0
 50 51  1  0  0  0  0
 51 52  1  0  0  0  0
 52  8  1  0  0  0  0
M  END
>  <CHROM.1>
-74.26966782,-63.72621631,-122.05676966,72.71277661,-84.84196437,-69.68317379
-99.47530437,174.00673838,70.76444297,176.62921505,168.87263343,-74.49992281
-177.35587670,145.56768517,42.74686999,41.09271383,1.03975330,-3.79028338
1.14474463,-1.38922442,-2.85970661

>  <Name>
2be0_lig

>  <RI>
0

>  <Rbt.Current_Directory>
/home/itssahil/PROJECTS/Mol_Feturizer/New_Systems/rnas/2be0

>  <Rbt.Executable>
rbdock ($Id: //depot/dev/client3/rdock/2013.1/src/exe/rbdock.cxx#4 $)

>  <Rbt.Library>
libRbt.so (2013.1, Build901 2013/11/27)

>  <Rbt.Parameter_File>
/export/apps/rDock/src/rDock_2013.1_src/data/scripts/dock_solv.prm

>  <Rbt.Receptor>
prm/pocket_docking_7.prm

>  <SCORE>
-18.2562

>  <SCORE.INTER>
-4.94058

>  <SCORE.INTER.CONST>
1

>  <SCORE.INTER.POLAR>
-0.835948

>  <SCORE.INTER.ROT>
15

>  <SCORE.INTER.SOLV>
15.3629

>  <SCORE.INTER.VDW>
-19.2282

>  <SCORE.INTER.norm>
-0.0950112

>  <SCORE.INTRA>
-13.3156

>  <SCORE.INTRA.DIHEDRAL>
-26.8772

>  <SCORE.INTRA.DIHEDRAL.0>
47.8724

>  <SCORE.INTRA.POLAR>
0

>  <SCORE.INTRA.POLAR.0>
0

>  <SCORE.INTRA.REPUL>
0

>  <SCORE.INTRA.REPUL.0>
0

>  <SCORE.INTRA.SOLV>
0.516048

>  <SCORE.INTRA.SOLV.lig_0>
-115.677

>  <SCORE.INTRA.VDW>
-0.135025

>  <SCORE.INTRA.VDW.0>
-7.4833

>  <SCORE.INTRA.norm>
-0.256069

>  <SCORE.RESTR>
0

>  <SCORE.RESTR.CAVITY>
0

>  <SCORE.RESTR.norm>
0

>  <SCORE.SYSTEM>
0

>  <SCORE.SYSTEM.CONST>
0

>  <SCORE.SYSTEM.DIHEDRAL>
0

>  <SCORE.SYSTEM.SOLV>
0

>  <SCORE.SYSTEM.norm>
0

>  <SCORE.heavy>
52

>  <SCORE.norm>
-0.35108

>  <RMSD>
9.492

$$$$
2be0_lig
 OpenBabel11021811423D
libRbt.so/2013.1/901 2013/11/27
 52 56  0  0  0  0  0  0  0  0999 V2000
   42.1389    0.8088   -7.2727 C   0  0  2  0  0  0  0  0  0  0  0  0
   41.1453    0.5244   -8.2292 O   0  0  0  0  0  0  0  0  0  0  0  0
   36.8535    1.4997   -8.2060 C   0  0  2  0  0  0  0  0  0  0  0  0
   35.4155    1.4616   -7.8186 N   0  0  0  0  0  0  0  0  0  0  0  0
   40.1289    3.6664   -5.8699 C   0  0  2  0  0  0  0  0  0  0  0  0
   39.8144    4.6275   -6.8984 O   0  0  0  0  0  0  0  0  0  0  0  0
   44.6386    4.6191   -6.2914 C   0  0  1  0  0  0  0  0  0  0  0  0
   38.2633    8.1086   -0.8258 C   0  0  0  0  0  0  0  0  0  0  0  0
   43.5829    0.7814   -7.9207 C   0  0  2  0  0  0  0  0  0  0  0  0
   43.6261    1.6841   -9.0730 N   0  0  0  0  0  0  0  0  0  0  0  0
   37.3196    0.0329   -8.6299 C   0  0  0  0  0  0  0  0  0  0  0  0
   41.5047    4.0554   -5.3059 C   0  0  2  0  0  0  0  0  0  0  0  0
   41.1795    5.0839   -4.2696 O   0  0  0  0  0  0  0  0  0  0  0  0
   44.8972    4.5950   -4.6870 C   0  0  2  0  0  0  0  0  0  0  0  0
   44.8943    6.0047   -4.1787 N   0  0  0  0  0  0  0  0  0  0  0  0
   37.8754    7.8619    0.5319 C   0  0  0  0  0  0  0  0  0  0  0  0
   37.7395    8.9501    1.4333 N   0  0  0  0  0  0  0  0  0  0  0  0
   43.9637   -0.7187   -8.3214 C   0  0  1  0  0  0  0  0  0  0  0  0
   45.2567   -0.7203   -8.9066 O   0  0  0  0  0  0  0  0  0  0  0  0
   38.8988    0.0286   -9.0495 C   0  0  2  0  0  0  0  0  0  0  0  0
   39.3301   -1.2853   -9.4353 N   0  0  0  0  0  0  0  0  0  0  0  0
   42.1861    4.4816   -6.6199 C   0  0  2  0  0  0  0  0  0  0  0  0
   43.3689    5.2598   -6.5103 O   0  0  0  0  0  0  0  0  0  0  0  0
   46.2769    3.9152   -4.4352 C   0  0  1  0  0  0  0  0  0  0  0  0
   46.1593    2.5428   -4.9549 O   0  0  0  0  0  0  0  0  0  0  0  0
   37.9742   10.3031    1.0562 C   0  0  0  0  0  0  0  0  0  0  0  0
   43.9057   -1.6030   -7.0420 C   0  0  2  0  0  0  0  0  0  0  0  0
   44.2470   -3.0123   -7.3524 O   0  0  0  0  0  0  0  0  0  0  0  0
   39.7785    0.5408   -7.8357 C   0  0  2  0  0  0  0  0  0  0  0  0
   41.0482    5.1786   -7.4031 C   0  0  1  0  0  0  0  0  0  0  0  0
   47.4507    4.7369   -5.2052 C   0  0  2  0  0  0  0  0  0  0  0  0
   47.5737    6.1099   -4.6912 O   0  0  0  0  0  0  0  0  0  0  0  0
   38.3590   10.6085   -0.2726 C   0  0  0  0  0  0  0  0  0  0  0  0
   42.4607   -1.5625   -6.4112 C   0  0  2  0  0  0  0  0  0  0  0  0
   42.1846   -0.1618   -6.1342 O   0  0  0  0  0  0  0  0  0  0  0  0
   39.2746    1.9757   -7.4530 C   0  0  2  0  0  0  0  0  0  0  0  0
   40.1321    2.3357   -6.3767 O   0  0  0  0  0  0  0  0  0  0  0  0
   41.0956    4.8695   -8.8985 C   0  0  0  0  0  0  0  0  0  0  0  0
   42.2245    5.3582   -9.5825 O   0  0  0  0  0  0  0  0  0  0  0  0
   47.1317    4.7774   -6.7703 C   0  0  1  0  0  0  0  0  0  0  0  0
   45.7651    5.4009   -6.9661 O   0  0  0  0  0  0  0  0  0  0  0  0
   38.5153    9.5080   -1.2517 C   0  0  0  0  0  0  0  0  0  0  0  0
   42.4736   -2.3959   -5.1983 C   0  0  0  0  0  0  0  0  0  0  0  0
   43.2374   -1.8140   -4.2651 O   0  0  0  0  0  0  0  0  0  0  0  0
   37.7480    1.9379   -7.0222 C   0  0  1  0  0  0  0  0  0  0  0  0
   37.3141    3.2173   -6.6964 O   0  0  0  0  0  0  0  0  0  0  0  0
   40.4774    6.3768   -4.4478 C   0  0  0  0  0  0  0  0  0  0  0  0
   48.2748    5.5803   -7.4488 C   0  0  0  0  0  0  0  0  0  0  0  0
   48.0724    6.9971   -7.2746 N   0  0  0  0  0  0  0  0  0  0  0  0
   40.6144    7.1518   -3.1333 C   0  0  0  0  0  0  0  0  0  0  0  0
   39.8817    6.4243   -2.0467 N   0  0  0  0  0  0  0  0  0  0  0  0
   38.4079    6.8584   -1.8240 C   0  0  0  0  0  0  0  0  0  0  0  0
  1  2  1  6  0  0  0
  1  9  1  0  0  0  0
  1 35  1  0  0  0  0
  3  4  1  1  0  0  0
  3 11  1  0  0  0  0
  3 45  1  0  0  0  0
  5  6  1  0  0  0  0
  5 12  1  0  0  0  0
  5 37  1  6  0  0  0
  6 30  1  0  0  0  0
  7 14  1  0  0  0  0
  7 41  1  0  0  0  0
  7 23  1  1  0  0  0
  8 16  2  0  0  0  0
  8 42  1  0  0  0  0
  9 10  1  6  0  0  0
  9 18  1  0  0  0  0
 11 20  1  0  0  0  0
 12 13  1  1  0  0  0
 12 22  1  0  0  0  0
 13 47  1  0  0  0  0
 14 15  1  6  0  0  0
 14 24  1  0  0  0  0
 16 17  1  0  0  0  0
 17 26  2  0  0  0  0
 18 19  1  1  0  0  0
 18 27  1  0  0  0  0
 20 21  1  1  0  0  0
 20 29  1  0  0  0  0
 22 23  1  1  0  0  0
 22 30  1  0  0  0  0
 24 25  1  6  0  0  0
 24 31  1  0  0  0  0
 26 33  1  0  0  0  0
 27 28  1  6  0  0  0
 27 34  1  0  0  0  0
 29  2  1  6  0  0  0
 29 36  1  0  0  0  0
 30 38  1  6  0  0  0
 31 32  1  1  0  0  0
 31 40  1  0  0  0  0
 33 42  2  0  0  0  0
 34 35  1  0  0  0  0
 34 43  1  1  0  0  0
 36 37  1  1  0  0  0
 36 45  1  0  0  0  0
 38 39  1  0  0  0  0
 40 41  1  0  0  0  0
 40 48  1  6  0  0  0
 43 44  1  0  0  0  0
 45 46  1  6  0  0  0
 47 50  1  0  0  0  0
 48 49  1  0  0  0  0
 50 51  1  0  0  0  0
 51 52  1  0  0  0  0
 52  8  1  0  0  0  0
M  END
>  <CHROM.1>
-178.28948316,-30.87355673,-93.55764960,-59.07813373,-170.49170141,83.21755411
-173.57697527,178.67105322,68.07392517,170.56446676,-79.11217299,-65.22982349
-92.40876560,-86.35247205,-101.19609078,41.82618134,3.47670107,-5.81184854
1.22867168,-0.13551417,-2.53692809

>  <Name>
2be0_lig

>  <RI>
0

>  <Rbt.Current_Directory>
/home/itssahil/PROJECTS/Mol_Feturizer/New_Systems/rnas/2be0

>  <Rbt.Executable>
rbdock ($Id: //depot/dev/client3/rdock/2013.1/src/exe/rbdock.cxx#4 $)

>  <Rbt.Library>
libRbt.so (2013.1, Build901 2013/11/27)

>  <Rbt.Parameter_File>
/export/apps/rDock/src/rDock_2013.1_src/data/scripts/dock_solv.prm

>  <Rbt.Receptor>
prm/pocket_docking_7.prm

>  <SCORE>
-18.324

>  <SCORE.INTER>
-3.19515

>  <SCORE.INTER.CONST>
1

>  <SCORE.INTER.POLAR>
0

>  <SCORE.INTER.ROT>
15

>  <SCORE.INTER.SOLV>
16.8467

>  <SCORE.INTER.VDW>
-21.3457

>  <SCORE.INTER.norm>
-0.0614451

>  <SCORE.INTRA>
-15.1289

>  <SCORE.INTRA.DIHEDRAL>
-32.8302

>  <SCORE.INTRA.DIHEDRAL.0>
47.8724

>  <SCORE.INTRA.POLAR>
0

>  <SCORE.INTRA.POLAR.0>
0

>  <SCORE.INTRA.REPUL>
0

>  <SCORE.INTRA.REPUL.0>
0

>  <SCORE.INTRA.SOLV>
-0.16098

>  <SCORE.INTRA.SOLV.lig_0>
-115.677

>  <SCORE.INTRA.VDW>
1.36672

>  <SCORE.INTRA.VDW.0>
-7.4833

>  <SCORE.INTRA.norm>
-0.29094

>  <SCORE.RESTR>
0

>  <SCORE.RESTR.CAVITY>
0

>  <SCORE.RESTR.norm>
0

>  <SCORE.SYSTEM>
0

>  <SCORE.SYSTEM.CONST>
0

>  <SCORE.SYSTEM.DIHEDRAL>
0

>  <SCORE.SYSTEM.SOLV>
0

>  <SCORE.SYSTEM.norm>
0

>  <SCORE.heavy>
52

>  <SCORE.norm>
-0.352385

>  <RMSD>
9.498

$$$$
2be0_lig
 OpenBabel11021811423D
libRbt.so/2013.1/901 2013/11/27
 52 56  0  0  0  0  0  0  0  0999 V2000
   41.1985   -0.6752   -8.2664 C   0  0  2  0  0  0  0  0  0  0  0  0
   39.9452   -0.7307   -7.6269 O   0  0  0  0  0  0  0  0  0  0  0  0
   38.5299    1.6181   -4.1844 C   0  0  2  0  0  0  0  0  0  0  0  0
   38.3726    2.0722   -2.7743 N   0  0  0  0  0  0  0  0  0  0  0  0
   41.8938    2.4662   -7.4435 C   0  0  2  0  0  0  0  0  0  0  0  0
   43.2708    2.3394   -7.8535 O   0  0  0  0  0  0  0  0  0  0  0  0
   42.9832    5.5059   -4.1832 C   0  0  1  0  0  0  0  0  0  0  0  0
   44.0254    9.4684  -10.8189 C   0  0  0  0  0  0  0  0  0  0  0  0
   41.1351   -1.3235   -9.7092 C   0  0  2  0  0  0  0  0  0  0  0  0
   40.0687   -0.6923  -10.4895 N   0  0  0  0  0  0  0  0  0  0  0  0
   38.1589    0.0683   -4.2789 C   0  0  0  0  0  0  0  0  0  0  0  0
   41.7795    3.7954   -6.6803 C   0  0  2  0  0  0  0  0  0  0  0  0
   41.5677    4.8039   -7.7645 O   0  0  0  0  0  0  0  0  0  0  0  0
   43.6107    6.9857   -3.9429 C   0  0  2  0  0  0  0  0  0  0  0  0
   45.0966    6.8591   -3.7949 N   0  0  0  0  0  0  0  0  0  0  0  0
   45.4297    9.7557  -10.8297 C   0  0  0  0  0  0  0  0  0  0  0  0
   45.9512   10.6802  -11.7723 N   0  0  0  0  0  0  0  0  0  0  0  0
   40.9269   -2.9033   -9.5798 C   0  0  1  0  0  0  0  0  0  0  0  0
   40.8652   -3.4634  -10.8823 O   0  0  0  0  0  0  0  0  0  0  0  0
   38.3326   -0.4736   -5.8106 C   0  0  2  0  0  0  0  0  0  0  0  0
   37.9996   -1.8666   -5.9095 N   0  0  0  0  0  0  0  0  0  0  0  0
   43.1228    3.7513   -5.9277 C   0  0  2  0  0  0  0  0  0  0  0  0
   43.5915    4.9714   -5.3727 O   0  0  0  0  0  0  0  0  0  0  0  0
   42.9704    7.5722   -2.6486 C   0  0  1  0  0  0  0  0  0  0  0  0
   41.5250    7.6663   -2.9121 O   0  0  0  0  0  0  0  0  0  0  0  0
   45.1393   11.3518  -12.7304 C   0  0  0  0  0  0  0  0  0  0  0  0
   42.1056   -3.4919   -8.7512 C   0  0  2  0  0  0  0  0  0  0  0  0
   41.9652   -4.9597   -8.5933 O   0  0  0  0  0  0  0  0  0  0  0  0
   39.8243   -0.2489   -6.2941 C   0  0  2  0  0  0  0  0  0  0  0  0
   44.0892    3.1197   -6.9579 C   0  0  1  0  0  0  0  0  0  0  0  0
   43.2752    6.5945   -1.3848 C   0  0  2  0  0  0  0  0  0  0  0  0
   44.7181    6.4953   -1.1158 O   0  0  0  0  0  0  0  0  0  0  0  0
   43.7441   11.1089  -12.7668 C   0  0  0  0  0  0  0  0  0  0  0  0
   42.1524   -2.8339   -7.3186 C   0  0  2  0  0  0  0  0  0  0  0  0
   42.2862   -1.4029   -7.5401 O   0  0  0  0  0  0  0  0  0  0  0  0
   40.1403    1.2822   -6.1716 C   0  0  2  0  0  0  0  0  0  0  0  0
   41.4815    1.3669   -6.6378 O   0  0  0  0  0  0  0  0  0  0  0  0
   45.0837    2.1575   -6.3105 C   0  0  0  0  0  0  0  0  0  0  0  0
   45.9525    2.7312   -5.3632 O   0  0  0  0  0  0  0  0  0  0  0  0
   42.6847    5.1403   -1.6837 C   0  0  1  0  0  0  0  0  0  0  0  0
   43.2966    4.6287   -2.9716 O   0  0  0  0  0  0  0  0  0  0  0  0
   43.1508   10.1518  -11.8044 C   0  0  0  0  0  0  0  0  0  0  0  0
   43.2950   -3.4119   -6.5930 C   0  0  0  0  0  0  0  0  0  0  0  0
   43.4165   -2.8127   -5.4018 O   0  0  0  0  0  0  0  0  0  0  0  0
   39.9918    1.7673   -4.6682 C   0  0  1  0  0  0  0  0  0  0  0  0
   40.2647    3.1270   -4.5781 O   0  0  0  0  0  0  0  0  0  0  0  0
   42.5521    5.3168   -8.7465 C   0  0  0  0  0  0  0  0  0  0  0  0
   43.0139    4.2518   -0.4533 C   0  0  0  0  0  0  0  0  0  0  0  0
   42.4413    2.9378   -0.6085 N   0  0  0  0  0  0  0  0  0  0  0  0
   41.8520    6.4088   -9.5618 C   0  0  0  0  0  0  0  0  0  0  0  0
   42.8654    7.1413  -10.3884 N   0  0  0  0  0  0  0  0  0  0  0  0
   43.4629    8.4193   -9.7404 C   0  0  0  0  0  0  0  0  0  0  0  0
  1  2  1  1  0  0  0
  1  9  1  0  0  0  0
  1 35  1  0  0  0  0
  3  4  1  1  0  0  0
  3 11  1  0  0  0  0
  3 45  1  0  0  0  0
  5  6  1  0  0  0  0
  5 12  1  0  0  0  0
  5 37  1  1  0  0  0
  6 30  1  0  0  0  0
  7 14  1  0  0  0  0
  7 41  1  0  0  0  0
  7 23  1  6  0  0  0
  8 16  2  0  0  0  0
  8 42  1  0  0  0  0
  9 10  1  6  0  0  0
  9 18  1  0  0  0  0
 11 20  1  0  0  0  0
 12 13  1  6  0  0  0
 12 22  1  0  0  0  0
 13 47  1  0  0  0  0
 14 15  1  1  0  0  0
 14 24  1  0  0  0  0
 16 17  1  0  0  0  0
 17 26  2  0  0  0  0
 18 19  1  6  0  0  0
 18 27  1  0  0  0  0
 20 21  1  1  0  0  0
 20 29  1  0  0  0  0
 22 23  1  6  0  0  0
 22 30  1  0  0  0  0
 24 25  1  6  0  0  0
 24 31  1  0  0  0  0
 26 33  1  0  0  0  0
 27 28  1  1  0  0  0
 27 34  1  0  0  0  0
 29  2  1  6  0  0  0
 29 36  1  0  0  0  0
 30 38  1  1  0  0  0
 31 32  1  6  0  0  0
 31 40  1  0  0  0  0
 33 42  2  0  0  0  0
 34 35  1  0  0  0  0
 34 43  1  1  0  0  0
 36 37  1  1  0  0  0
 36 45  1  0  0  0  0
 38 39  1  0  0  0  0
 40 41  1  0  0  0  0
 40 48  1  1  0  0  0
 43 44  1  0  0  0  0
 45 46  1  6  0  0  0
 47 50  1  0  0  0  0
 48 49  1  0  0  0  0
 50 51  1  0  0  0  0
 51 52  1  0  0  0  0
 52  8  1  0  0  0  0
M  END
>  <CHROM.1>
177.16690709,-177.77537406,-172.42115331,-72.93659473,-175.70787824,74.65770425
-178.18585342,-178.15272241,176.06860086,141.15670775,176.49401461,169.30308166
-93.02952547,-155.80433487,-115.76499356,42.24947217,3.08498678,-6.62149643
-3.02737805,1.28035840,1.33839059

>  <Name>
2be0_lig

>  <RI>
0

>  <Rbt.Current_Directory>
/home/itssahil/PROJECTS/Mol_Feturizer/New_Systems/rnas/2be0

>  <Rbt.Executable>
rbdock ($Id: //depot/dev/client3/rdock/2013.1/src/exe/rbdock.cxx#4 $)

>  <Rbt.Library>
libRbt.so (2013.1, Build901 2013/11/27)

>  <Rbt.Parameter_File>
/export/apps/rDock/src/rDock_2013.1_src/data/scripts/dock_solv.prm

>  <Rbt.Receptor>
prm/pocket_docking_6.prm

>  <SCORE>
-29.0659

>  <SCORE.INTER>
-10.6533

>  <SCORE.INTER.CONST>
1

>  <SCORE.INTER.POLAR>
-1.28659

>  <SCORE.INTER.ROT>
15

>  <SCORE.INTER.SOLV>
15.1744

>  <SCORE.INTER.VDW>
-21.4717

>  <SCORE.INTER.norm>
-0.204872

>  <SCORE.INTRA>
-18.4125

>  <SCORE.INTRA.DIHEDRAL>
-37.6438

>  <SCORE.INTRA.DIHEDRAL.0>
47.8724

>  <SCORE.INTRA.POLAR>
0

>  <SCORE.INTRA.POLAR.0>
0

>  <SCORE.INTRA.REPUL>
0

>  <SCORE.INTRA.REPUL.0>
0

>  <SCORE.INTRA.SOLV>
-4.91726

>  <SCORE.INTRA.SOLV.lig_0>
-115.677

>  <SCORE.INTRA.VDW>
2.86798

>  <SCORE.INTRA.VDW.0>
-7.4833

>  <SCORE.INTRA.norm>
-0.354087

>  <SCORE.RESTR>
0

>  <SCORE.RESTR.CAVITY>
0

>  <SCORE.RESTR.norm>
0

>  <SCORE.SYSTEM>
0

>  <SCORE.SYSTEM.CONST>
0

>  <SCORE.SYSTEM.DIHEDRAL>
0

>  <SCORE.SYSTEM.SOLV>
0

>  <SCORE.SYSTEM.norm>
0

>  <SCORE.heavy>
52

>  <SCORE.norm>
-0.558959

>  <RMSD>
9.501

$$$$
2be0_lig
 OpenBabel11021811423D
libRbt.so/2013.1/901 2013/11/27
 52 56  0  0  0  0  0  0  0  0999 V2000
   40.1954   -0.8979   -5.9946 C   0  0  2  0  0  0  0  0  0  0  0  0
   40.2940    0.2833   -5.2346 O   0  0  0  0  0  0  0  0  0  0  0  0
   40.7482    0.7574   -0.8826 C   0  0  2  0  0  0  0  0  0  0  0  0
   41.3371    0.6380    0.4807 N   0  0  0  0  0  0  0  0  0  0  0  0
   42.2785    3.6632   -3.9912 C   0  0  2  0  0  0  0  0  0  0  0  0
   41.9992    4.4840   -5.1439 O   0  0  0  0  0  0  0  0  0  0  0  0
   45.9875    4.8422   -6.6489 C   0  0  1  0  0  0  0  0  0  0  0  0
   39.7062    8.1941   -0.6149 C   0  0  0  0  0  0  0  0  0  0  0  0
   40.5570   -0.6344   -7.5131 C   0  0  2  0  0  0  0  0  0  0  0  0
   41.8760   -0.0052   -7.6063 N   0  0  0  0  0  0  0  0  0  0  0  0
   40.5416   -0.7033   -1.4924 C   0  0  0  0  0  0  0  0  0  0  0  0
   43.7842    3.7913   -3.7105 C   0  0  2  0  0  0  0  0  0  0  0  0
   43.8800    5.0282   -2.8748 O   0  0  0  0  0  0  0  0  0  0  0  0
   47.5686    5.2100   -6.5717 C   0  0  2  0  0  0  0  0  0  0  0  0
   47.7813    6.1832   -5.4522 N   0  0  0  0  0  0  0  0  0  0  0  0
   38.4340    8.8037   -0.3608 C   0  0  0  0  0  0  0  0  0  0  0  0
   38.2544   10.1887   -0.6153 N   0  0  0  0  0  0  0  0  0  0  0  0
   39.4180    0.2608   -8.1892 C   0  0  1  0  0  0  0  0  0  0  0  0
   39.7644    0.4915   -9.5460 O   0  0  0  0  0  0  0  0  0  0  0  0
   39.9091   -0.6158   -2.9965 C   0  0  2  0  0  0  0  0  0  0  0  0
   39.7162   -1.9240   -3.5557 N   0  0  0  0  0  0  0  0  0  0  0  0
   44.2942    3.8083   -5.1639 C   0  0  2  0  0  0  0  0  0  0  0  0
   45.6169    4.2785   -5.3779 O   0  0  0  0  0  0  0  0  0  0  0  0
   47.9816    5.8348   -7.9385 C   0  0  1  0  0  0  0  0  0  0  0  0
   47.7477    4.7940   -8.9530 O   0  0  0  0  0  0  0  0  0  0  0  0
   39.2912   11.0253   -1.1183 C   0  0  0  0  0  0  0  0  0  0  0  0
   38.0583   -0.4849   -8.0571 C   0  0  2  0  0  0  0  0  0  0  0  0
   36.9579    0.3016   -8.6651 O   0  0  0  0  0  0  0  0  0  0  0  0
   40.8686    0.2261   -3.9346 C   0  0  2  0  0  0  0  0  0  0  0  0
   43.2116    4.6210   -5.9133 C   0  0  1  0  0  0  0  0  0  0  0  0
   47.0862    7.1594   -8.2379 C   0  0  2  0  0  0  0  0  0  0  0  0
   47.3146    8.2040   -7.2274 O   0  0  0  0  0  0  0  0  0  0  0  0
   40.5697   10.4786   -1.3895 C   0  0  0  0  0  0  0  0  0  0  0  0
   37.7160   -0.7385   -6.5385 C   0  0  2  0  0  0  0  0  0  0  0  0
   38.8279   -1.5064   -6.0010 O   0  0  0  0  0  0  0  0  0  0  0  0
   41.0464    1.6432   -3.2870 C   0  0  2  0  0  0  0  0  0  0  0  0
   41.9036    2.3068   -4.2080 O   0  0  0  0  0  0  0  0  0  0  0  0
   42.9219    4.0615   -7.3051 C   0  0  0  0  0  0  0  0  0  0  0  0
   44.0509    3.6590   -8.0431 O   0  0  0  0  0  0  0  0  0  0  0  0
   45.5389    6.7615   -8.2568 C   0  0  1  0  0  0  0  0  0  0  0  0
   45.1924    6.1166   -6.9306 O   0  0  0  0  0  0  0  0  0  0  0  0
   40.8085    9.0382   -1.1399 C   0  0  0  0  0  0  0  0  0  0  0  0
   36.4361   -1.4625   -6.4786 C   0  0  0  0  0  0  0  0  0  0  0  0
   36.5553   -2.6331   -7.1175 O   0  0  0  0  0  0  0  0  0  0  0  0
   41.6901    1.5229   -1.8418 C   0  0  1  0  0  0  0  0  0  0  0  0
   41.8315    2.7851   -1.2777 O   0  0  0  0  0  0  0  0  0  0  0  0
   43.3403    5.2612   -1.5144 C   0  0  0  0  0  0  0  0  0  0  0  0
   44.7363    8.0616   -8.5346 C   0  0  0  0  0  0  0  0  0  0  0  0
   44.8503    8.9751   -7.4249 N   0  0  0  0  0  0  0  0  0  0  0  0
   41.9200    5.8119   -1.6785 C   0  0  0  0  0  0  0  0  0  0  0  0
   41.3627    6.1636   -0.3322 N   0  0  0  0  0  0  0  0  0  0  0  0
   39.8803    6.6249   -0.3192 C   0  0  0  0  0  0  0  0  0  0  0  0
  1  2  1  1  0  0  0
  1  9  1  0  0  0  0
  1 35  1  0  0  0  0
  3  4  1  1  0  0  0
  3 11  1  0  0  0  0
  3 45  1  0  0  0  0
  5  6  1  0  0  0  0
  5 12  1  0  0  0  0
  5 37  1  6  0  0  0
  6 30  1  0  0  0  0
  7 14  1  0  0  0  0
  7 41  1  0  0  0  0
  7 23  1  1  0  0  0
  8 16  2  0  0  0  0
  8 42  1  0  0  0  0
  9 10  1  1  0  0  0
  9 18  1  0  0  0  0
 11 20  1  0  0  0  0
 12 13  1  6  0  0  0
 12 22  1  0  0  0  0
 13 47  1  0  0  0  0
 14 15  1  1  0  0  0
 14 24  1  0  0  0  0
 16 17  1  0  0  0  0
 17 26  2  0  0  0  0
 18 19  1  6  0  0  0
 18 27  1  0  0  0  0
 20 21  1  6  0  0  0
 20 29  1  0  0  0  0
 22 23  1  1  0  0  0
 22 30  1  0  0  0  0
 24 25  1  6  0  0  0
 24 31  1  0  0  0  0
 26 33  1  0  0  0  0
 27 28  1  1  0  0  0
 27 34  1  0  0  0  0
 29  2  1  6  0  0  0
 29 36  1  0  0  0  0
 30 38  1  6  0  0  0
 31 32  1  1  0  0  0
 31 40  1  0  0  0  0
 33 42  2  0  0  0  0
 34 35  1  0  0  0  0
 34 43  1  6  0  0  0
 36 37  1  6  0  0  0
 36 45  1  0  0  0  0
 38 39  1  0  0  0  0
 40 41  1  0  0  0  0
 40 48  1  1  0  0  0
 43 44  1  0  0  0  0
 45 46  1  1  0  0  0
 47 50  1  0  0  0  0
 48 49  1  0  0  0  0
 50 51  1  0  0  0  0
 51 52  1  0  0  0  0
 52  8  1  0  0  0  0
M  END
>  <CHROM.1>
-139.03345673,-126.73331113,-177.46868494,65.14400543,-89.59636874,-154.42316587
-66.97601542,-158.10054444,60.59753725,178.13462388,-67.17701982,-175.76473347
-175.02482262,-85.48164460,-167.19827415,42.00854272,3.61867952,-4.84822954
-2.39455826,0.71212174,0.70898256

>  <Name>
2be0_lig

>  <RI>
2.10017e+07

>  <Rbt.Current_Directory>
/home/itssahil/PROJECTS/Mol_Feturizer/New_Systems/rnas/2be0

>  <Rbt.Executable>
rbdock ($Id: //depot/dev/client3/rdock/2013.1/src/exe/rbdock.cxx#4 $)

>  <Rbt.Library>
libRbt.so (2013.1, Build901 2013/11/27)

>  <Rbt.Parameter_File>
/export/apps/rDock/src/rDock_2013.1_src/data/scripts/dock_solv.prm

>  <Rbt.Receptor>
prm/pocket_docking_3.prm

>  <SCORE>
-0.15138

>  <SCORE.INTER>
5.07199

>  <SCORE.INTER.CONST>
1

>  <SCORE.INTER.POLAR>
-0.959166

>  <SCORE.INTER.ROT>
15

>  <SCORE.INTER.SOLV>
16.2073

>  <SCORE.INTER.VDW>
-12.4239

>  <SCORE.INTER.norm>
0.0975383

>  <SCORE.INTRA>
-6.5038

>  <SCORE.INTRA.DIHEDRAL>
-25.1519

>  <SCORE.INTRA.DIHEDRAL.0>
47.8724

>  <SCORE.INTRA.POLAR>
0

>  <SCORE.INTRA.POLAR.0>
0

>  <SCORE.INTRA.REPUL>
9.00019e-05

>  <SCORE.INTRA.REPUL.0>
0

>  <SCORE.INTRA.SOLV>
2.19697

>  <SCORE.INTRA.SOLV.lig_0>
-115.677

>  <SCORE.INTRA.VDW>
4.97324

>  <SCORE.INTRA.VDW.0>
-7.4833

>  <SCORE.INTRA.norm>
-0.125073

>  <SCORE.RESTR>
1.28043

>  <SCORE.RESTR.CAVITY>
1.28043

>  <SCORE.RESTR.norm>
0.0246236

>  <SCORE.SYSTEM>
0

>  <SCORE.SYSTEM.CONST>
0

>  <SCORE.SYSTEM.DIHEDRAL>
0

>  <SCORE.SYSTEM.SOLV>
0

>  <SCORE.SYSTEM.norm>
0

>  <SCORE.heavy>
52

>  <SCORE.norm>
-0.00291115

>  <RMSD>
9.530

$$$$
2be0_lig
 OpenBabel11021811423D
libRbt.so/2013.1/901 2013/11/27
 52 56  0  0  0  0  0  0  0  0999 V2000
   42.6142    1.6123   -0.9041 C   0  0  2  0  0  0  0  0  0  0  0  0
   42.2667    2.9720   -1.0192 O   0  0  0  0  0  0  0  0  0  0  0  0
   39.9510    5.6584    1.5868 C   0  0  2  0  0  0  0  0  0  0  0  0
   39.4947    6.3520    2.8238 N   0  0  0  0  0  0  0  0  0  0  0  0
   43.6441    5.9521   -1.6454 C   0  0  2  0  0  0  0  0  0  0  0  0
   42.7199    6.9407   -2.1443 O   0  0  0  0  0  0  0  0  0  0  0  0
   42.2784    4.5971   -5.5095 C   0  0  1  0  0  0  0  0  0  0  0  0
   50.1080    5.5418   -5.6974 C   0  0  0  0  0  0  0  0  0  0  0  0
   44.1593    1.4388   -0.6066 C   0  0  2  0  0  0  0  0  0  0  0  0
   44.5278    2.2232    0.5738 N   0  0  0  0  0  0  0  0  0  0  0  0
   39.8524    4.0802    1.8059 C   0  0  0  0  0  0  0  0  0  0  0  0
   43.6691    4.8102   -2.6740 C   0  0  2  0  0  0  0  0  0  0  0  0
   44.6757    5.2686   -3.6809 O   0  0  0  0  0  0  0  0  0  0  0  0
   41.0362    5.3671   -6.2203 C   0  0  2  0  0  0  0  0  0  0  0  0
   39.8998    4.4029   -6.3773 N   0  0  0  0  0  0  0  0  0  0  0  0
   50.6723    4.2244   -5.6684 C   0  0  0  0  0  0  0  0  0  0  0  0
   51.9473    3.9926   -6.2476 N   0  0  0  0  0  0  0  0  0  0  0  0
   45.0055    1.8631   -1.8949 C   0  0  1  0  0  0  0  0  0  0  0  0
   46.3861    1.7077   -1.6053 O   0  0  0  0  0  0  0  0  0  0  0  0
   40.3585    3.2807    0.4738 C   0  0  2  0  0  0  0  0  0  0  0  0
   40.2726    1.8593    0.6572 N   0  0  0  0  0  0  0  0  0  0  0  0
   42.1732    4.7911   -3.0411 C   0  0  2  0  0  0  0  0  0  0  0  0
   41.8110    4.1156   -4.2365 O   0  0  0  0  0  0  0  0  0  0  0  0
   41.5242    5.8830   -7.6077 C   0  0  1  0  0  0  0  0  0  0  0  0
   42.6204    6.8264   -7.3324 O   0  0  0  0  0  0  0  0  0  0  0  0
   52.7135    5.0182   -6.8715 C   0  0  0  0  0  0  0  0  0  0  0  0
   44.5614    0.9754   -3.0936 C   0  0  2  0  0  0  0  0  0  0  0  0
   45.3118    1.3266   -4.3236 O   0  0  0  0  0  0  0  0  0  0  0  0
   41.8541    3.6835    0.1413 C   0  0  2  0  0  0  0  0  0  0  0  0
   41.7818    6.2880   -3.0244 C   0  0  1  0  0  0  0  0  0  0  0  0
   42.0368    4.6351   -8.5164 C   0  0  2  0  0  0  0  0  0  0  0  0
   40.9463    3.6877   -8.7952 O   0  0  0  0  0  0  0  0  0  0  0  0
   52.2077    6.3403   -6.9295 C   0  0  0  0  0  0  0  0  0  0  0  0
   43.0205    1.1616   -3.3739 C   0  0  2  0  0  0  0  0  0  0  0  0
   42.3435    0.8074   -2.1365 O   0  0  0  0  0  0  0  0  0  0  0  0
   41.8975    5.2389   -0.0532 C   0  0  2  0  0  0  0  0  0  0  0  0
   43.2660    5.4819   -0.3557 O   0  0  0  0  0  0  0  0  0  0  0  0
   40.3886    6.5197   -2.4417 C   0  0  0  0  0  0  0  0  0  0  0  0
   39.3166    6.0878   -3.2451 O   0  0  0  0  0  0  0  0  0  0  0  0
   43.2231    3.8786   -7.7592 C   0  0  1  0  0  0  0  0  0  0  0  0
   42.7210    3.4367   -6.4001 O   0  0  0  0  0  0  0  0  0  0  0  0
   50.8808    6.6339   -6.3400 C   0  0  0  0  0  0  0  0  0  0  0  0
   42.6567    0.2850   -4.4987 C   0  0  0  0  0  0  0  0  0  0  0  0
   41.3650    0.4624   -4.8030 O   0  0  0  0  0  0  0  0  0  0  0  0
   41.4295    5.9829    1.2677 C   0  0  1  0  0  0  0  0  0  0  0  0
   41.4638    7.3589    1.0759 O   0  0  0  0  0  0  0  0  0  0  0  0
   45.2735    4.4992   -4.7976 C   0  0  0  0  0  0  0  0  0  0  0  0
   43.6622    2.6960   -8.6648 C   0  0  0  0  0  0  0  0  0  0  0  0
   44.9081    2.1375   -8.2014 N   0  0  0  0  0  0  0  0  0  0  0  0
   46.1615    5.4649   -5.5890 C   0  0  0  0  0  0  0  0  0  0  0  0
   47.5500    4.9071   -5.6773 N   0  0  0  0  0  0  0  0  0  0  0  0
   48.6642    5.7753   -5.0330 C   0  0  0  0  0  0  0  0  0  0  0  0
  1  2  1  6  0  0  0
  1  9  1  0  0  0  0
  1 35  1  0  0  0  0
  3  4  1  1  0  0  0
  3 11  1  0  0  0  0
  3 45  1  0  0  0  0
  5  6  1  0  0  0  0
  5 12  1  0  0  0  0
  5 37  1  1  0  0  0
  6 30  1  0  0  0  0
  7 14  1  0  0  0  0
  7 41  1  0  0  0  0
  7 23  1  1  0  0  0
  8 16  2  0  0  0  0
  8 42  1  0  0  0  0
  9 10  1  1  0  0  0
  9 18  1  0  0  0  0
 11 20  1  0  0  0  0
 12 13  1  6  0  0  0
 12 22  1  0  0  0  0
 13 47  1  0  0  0  0
 14 15  1  6  0  0  0
 14 24  1  0  0  0  0
 16 17  1  0  0  0  0
 17 26  2  0  0  0  0
 18 19  1  1  0  0  0
 18 27  1  0  0  0  0
 20 21  1  1  0  0  0
 20 29  1  0  0  0  0
 22 23  1  6  0  0  0
 22 30  1  0  0  0  0
 24 25  1  1  0  0  0
 24 31  1  0  0  0  0
 26 33  1  0  0  0  0
 27 28  1  6  0  0  0
 27 34  1  0  0  0  0
 29  2  1  6  0  0  0
 29 36  1  0  0  0  0
 30 38  1  1  0  0  0
 31 32  1  1  0  0  0
 31 40  1  0  0  0  0
 33 42  2  0  0  0  0
 34 35  1  0  0  0  0
 34 43  1  6  0  0  0
 36 37  1  1  0  0  0
 36 45  1  0  0  0  0
 38 39  1  0  0  0  0
 40 41  1  0  0  0  0
 40 48  1  6  0  0  0
 43 44  1  0  0  0  0
 45 46  1  6  0  0  0
 47 50  1  0  0  0  0
 48 49  1  0  0  0  0
 50 51  1  0  0  0  0
 51 52  1  0  0  0  0
 52  8  1  0  0  0  0
M  END
>  <CHROM.1>
-90.56349111,40.26911692,-103.19129031,170.03385076,175.68713611,-64.04959812
-77.10157747,172.95061188,-177.25896145,113.45170276,167.60004509,124.69767989
-118.84523489,-153.36581323,-59.41697752,43.68757866,4.15059044,-3.54752960
-2.45413162,-0.04415070,-1.58736077

>  <Name>
2be0_lig

>  <RI>
0

>  <Rbt.Current_Directory>
/home/itssahil/PROJECTS/Mol_Feturizer/New_Systems/rnas/2be0

>  <Rbt.Executable>
rbdock ($Id: //depot/dev/client3/rdock/2013.1/src/exe/rbdock.cxx#4 $)

>  <Rbt.Library>
libRbt.so (2013.1, Build901 2013/11/27)

>  <Rbt.Parameter_File>
/export/apps/rDock/src/rDock_2013.1_src/data/scripts/dock_solv.prm

>  <Rbt.Receptor>
prm/pocket_docking_4.prm

>  <SCORE>
-16.6749

>  <SCORE.INTER>
-6.33828

>  <SCORE.INTER.CONST>
1

>  <SCORE.INTER.POLAR>
0

>  <SCORE.INTER.ROT>
15

>  <SCORE.INTER.SOLV>
13.2078

>  <SCORE.INTER.VDW>
-22.2281

>  <SCORE.INTER.norm>
-0.12189

>  <SCORE.INTRA>
-10.3827

>  <SCORE.INTRA.DIHEDRAL>
-18.5294

>  <SCORE.INTRA.DIHEDRAL.0>
47.8724

>  <SCORE.INTRA.POLAR>
0

>  <SCORE.INTRA.POLAR.0>
0

>  <SCORE.INTRA.REPUL>
0

>  <SCORE.INTRA.REPUL.0>
0

>  <SCORE.INTRA.SOLV>
2.11585

>  <SCORE.INTRA.SOLV.lig_0>
-115.677

>  <SCORE.INTRA.VDW>
-2.17591

>  <SCORE.INTRA.VDW.0>
-7.4833

>  <SCORE.INTRA.norm>
-0.199667

>  <SCORE.RESTR>
0.0460427

>  <SCORE.RESTR.CAVITY>
0.0460427

>  <SCORE.RESTR.norm>
0.000885436

>  <SCORE.SYSTEM>
0

>  <SCORE.SYSTEM.CONST>
0

>  <SCORE.SYSTEM.DIHEDRAL>
0

>  <SCORE.SYSTEM.SOLV>
0

>  <SCORE.SYSTEM.norm>
0

>  <SCORE.heavy>
52

>  <SCORE.norm>
-0.320671

>  <RMSD>
9.530

$$$$
2be0_lig
 OpenBabel11021811423D
libRbt.so/2013.1/901 2013/11/27
 52 56  0  0  0  0  0  0  0  0999 V2000
   39.7210    4.1226   -4.4960 C   0  0  2  0  0  0  0  0  0  0  0  0
   38.8494    4.0820   -3.3908 O   0  0  0  0  0  0  0  0  0  0  0  0
   39.3237    4.9374    0.9004 C   0  0  2  0  0  0  0  0  0  0  0  0
   39.8729    4.8749    2.2839 N   0  0  0  0  0  0  0  0  0  0  0  0
   41.5313    7.0940   -2.2921 C   0  0  2  0  0  0  0  0  0  0  0  0
   41.6822    7.8953   -3.4819 O   0  0  0  0  0  0  0  0  0  0  0  0
   45.6778    5.9772   -4.4470 C   0  0  1  0  0  0  0  0  0  0  0  0
   39.8703    9.8252    0.7393 C   0  0  0  0  0  0  0  0  0  0  0  0
   38.9218    4.0368   -5.8597 C   0  0  2  0  0  0  0  0  0  0  0  0
   37.8993    5.0844   -5.9016 N   0  0  0  0  0  0  0  0  0  0  0  0
   38.9037    3.4684    0.4379 C   0  0  0  0  0  0  0  0  0  0  0  0
   42.9476    6.7157   -1.8302 C   0  0  2  0  0  0  0  0  0  0  0  0
   43.3719    7.8900   -1.0065 O   0  0  0  0  0  0  0  0  0  0  0  0
   45.0900    4.4971   -4.7710 C   0  0  2  0  0  0  0  0  0  0  0  0
   45.3483    3.6089   -3.5919 N   0  0  0  0  0  0  0  0  0  0  0  0
   38.8231    9.2087   -0.0210 C   0  0  0  0  0  0  0  0  0  0  0  0
   37.6693    8.7151    0.6425 N   0  0  0  0  0  0  0  0  0  0  0  0
   38.2898    2.5773   -6.0214 C   0  0  1  0  0  0  0  0  0  0  0  0
   37.5724    2.5238   -7.2447 O   0  0  0  0  0  0  0  0  0  0  0  0
   38.3081    3.4913   -1.0835 C   0  0  2  0  0  0  0  0  0  0  0  0
   37.9243    2.1755   -1.5108 N   0  0  0  0  0  0  0  0  0  0  0  0
   43.5894    6.4766   -3.2099 C   0  0  2  0  0  0  0  0  0  0  0  0
   45.0082    6.4543   -3.2661 O   0  0  0  0  0  0  0  0  0  0  0  0
   45.8168    3.9613   -6.0413 C   0  0  1  0  0  0  0  0  0  0  0  0
   45.4818    4.8940   -7.1299 O   0  0  0  0  0  0  0  0  0  0  0  0
   37.4908    8.7984    2.0529 C   0  0  0  0  0  0  0  0  0  0  0  0
   39.4416    1.5314   -5.9790 C   0  0  2  0  0  0  0  0  0  0  0  0
   38.9148    0.1525   -6.1208 O   0  0  0  0  0  0  0  0  0  0  0  0
   39.3946    4.0761   -2.0770 C   0  0  2  0  0  0  0  0  0  0  0  0
   42.9444    7.5671   -4.0981 C   0  0  1  0  0  0  0  0  0  0  0  0
   47.4221    3.9104   -5.7839 C   0  0  2  0  0  0  0  0  0  0  0  0
   47.7644    2.9802   -4.6967 O   0  0  0  0  0  0  0  0  0  0  0  0
   38.4916    9.3982    2.8563 C   0  0  0  0  0  0  0  0  0  0  0  0
   40.2256    1.6326   -4.6143 C   0  0  2  0  0  0  0  0  0  0  0  0
   40.7113    3.0010   -4.5328 O   0  0  0  0  0  0  0  0  0  0  0  0
   39.7791    5.5105   -1.5733 C   0  0  2  0  0  0  0  0  0  0  0  0
   40.7371    5.9372   -2.5343 O   0  0  0  0  0  0  0  0  0  0  0  0
   42.6351    7.0636   -5.5070 C   0  0  0  0  0  0  0  0  0  0  0  0
   43.7535    6.8631   -6.3377 O   0  0  0  0  0  0  0  0  0  0  0  0
   47.9487    5.3748   -5.4218 C   0  0  1  0  0  0  0  0  0  0  0  0
   47.1847    5.8749   -4.2132 O   0  0  0  0  0  0  0  0  0  0  0  0
   39.7156    9.9282    2.2119 C   0  0  0  0  0  0  0  0  0  0  0  0
   41.3108    0.6388   -4.6417 C   0  0  0  0  0  0  0  0  0  0  0  0
   40.7970   -0.5874   -4.4832 O   0  0  0  0  0  0  0  0  0  0  0  0
   40.3814    5.4475   -0.1068 C   0  0  1  0  0  0  0  0  0  0  0  0
   40.7072    6.7264    0.3288 O   0  0  0  0  0  0  0  0  0  0  0  0
   43.5885    9.2890   -1.4451 C   0  0  0  0  0  0  0  0  0  0  0  0
   49.4781    5.2626   -5.1769 C   0  0  0  0  0  0  0  0  0  0  0  0
   50.1578    4.8667   -6.3852 N   0  0  0  0  0  0  0  0  0  0  0  0
   43.7315   10.1431   -0.1812 C   0  0  0  0  0  0  0  0  0  0  0  0
   42.4988   10.0004    0.6595 N   0  0  0  0  0  0  0  0  0  0  0  0
   41.1636   10.3759   -0.0379 C   0  0  0  0  0  0  0  0  0  0  0  0
  1  2  1  1  0  0  0
  1  9  1  0  0  0  0
  1 35  1  0  0  0  0
  3  4  1  1  0  0  0
  3 11  1  0  0  0  0
  3 45  1  0  0  0  0
  5  6  1  0  0  0  0
  5 12  1  0  0  0  0
  5 37  1  6  0  0  0
  6 30  1  0  0  0  0
  7 14  1  0  0  0  0
  7 41  1  0  0  0  0
  7 23  1  1  0  0  0
  8 16  2  0  0  0  0
  8 42  1  0  0  0  0
  9 10  1  1  0  0  0
  9 18  1  0  0  0  0
 11 20  1  0  0  0  0
 12 13  1  6  0  0  0
 12 22  1  0  0  0  0
 13 47  1  0  0  0  0
 14 15  1  1  0  0  0
 14 24  1  0  0  0  0
 16 17  1  0  0  0  0
 17 26  2  0  0  0  0
 18 19  1  6  0  0  0
 18 27  1  0  0  0  0
 20 21  1  6  0  0  0
 20 29  1  0  0  0  0
 22 23  1  1  0  0  0
 22 30  1  0  0  0  0
 24 25  1  6  0  0  0
 24 31  1  0  0  0  0
 26 33  1  0  0  0  0
 27 28  1  1  0  0  0
 27 34  1  0  0  0  0
 29  2  1  6  0  0  0
 29 36  1  0  0  0  0
 30 38  1  6  0  0  0
 31 32  1  1  0  0  0
 31 40  1  0  0  0  0
 33 42  2  0  0  0  0
 34 35  1  0  0  0  0
 34 43  1  6  0  0  0
 36 37  1  6  0  0  0
 36 45  1  0  0  0  0
 38 39  1  0  0  0  0
 40 41  1  0  0  0  0
 40 48  1  1  0  0  0
 43 44  1  0  0  0  0
 45 46  1  1  0  0  0
 47 50  1  0  0  0  0
 48 49  1  0  0  0  0
 50 51  1  0  0  0  0
 51 52  1  0  0  0  0
 52  8  1  0  0  0  0
M  END
>  <CHROM.1>
176.67460365,-139.27152194,-53.70604081,-64.26581194,168.64005997,167.57970913
-158.92799879,171.67795165,-73.86332495,-167.63058710,64.17621894,-58.21200122
-57.26129935,163.83370278,-135.37312724,41.88247835,5.46190932,-2.93807925
0.77064586,-0.33501267,-2.41934475

>  <Name>
2be0_lig

>  <RI>
2.75444e+07

>  <Rbt.Current_Directory>
/home/itssahil/PROJECTS/Mol_Feturizer/New_Systems/rnas/2be0

>  <Rbt.Executable>
rbdock ($Id: //depot/dev/client3/rdock/2013.1/src/exe/rbdock.cxx#4 $)

>  <Rbt.Library>
libRbt.so (2013.1, Build901 2013/11/27)

>  <Rbt.Parameter_File>
/export/apps/rDock/src/rDock_2013.1_src/data/scripts/dock_solv.prm

>  <Rbt.Receptor>
prm/pocket_docking_5.prm

>  <SCORE>
-26.3109

>  <SCORE.INTER>
-10.1603

>  <SCORE.INTER.CONST>
1

>  <SCORE.INTER.POLAR>
-0.671345

>  <SCORE.INTER.ROT>
15

>  <SCORE.INTER.SOLV>
18.3993

>  <SCORE.INTER.VDW>
-24.2688

>  <SCORE.INTER.norm>
-0.19539

>  <SCORE.INTRA>
-16.1513

>  <SCORE.INTRA.DIHEDRAL>
-35.5745

>  <SCORE.INTRA.DIHEDRAL.0>
47.8724

>  <SCORE.INTRA.POLAR>
0

>  <SCORE.INTRA.POLAR.0>
0

>  <SCORE.INTRA.REPUL>
0

>  <SCORE.INTRA.REPUL.0>
0

>  <SCORE.INTRA.SOLV>
-0.240564

>  <SCORE.INTRA.SOLV.lig_0>
-115.677

>  <SCORE.INTRA.VDW>
1.75622

>  <SCORE.INTRA.VDW.0>
-7.4833

>  <SCORE.INTRA.norm>
-0.310602

>  <SCORE.RESTR>
0.000652996

>  <SCORE.RESTR.CAVITY>
0.000652996

>  <SCORE.RESTR.norm>
1.25576e-05

>  <SCORE.SYSTEM>
0

>  <SCORE.SYSTEM.CONST>
0

>  <SCORE.SYSTEM.DIHEDRAL>
0

>  <SCORE.SYSTEM.SOLV>
0

>  <SCORE.SYSTEM.norm>
0

>  <SCORE.heavy>
52

>  <SCORE.norm>
-0.505979

>  <RMSD>
9.532

$$$$
2be0_lig
 OpenBabel11021811423D
libRbt.so/2013.1/901 2013/11/27
 52 56  0  0  0  0  0  0  0  0999 V2000
   40.1443    8.2902   -1.0865 C   0  0  2  0  0  0  0  0  0  0  0  0
   40.7427    7.5087   -0.0795 O   0  0  0  0  0  0  0  0  0  0  0  0
   39.9293    3.7465    2.0548 C   0  0  2  0  0  0  0  0  0  0  0  0
   39.1607    2.6211    2.6567 N   0  0  0  0  0  0  0  0  0  0  0  0
   41.3003    4.6368   -2.4174 C   0  0  2  0  0  0  0  0  0  0  0  0
   40.9924    5.0059   -3.7773 O   0  0  0  0  0  0  0  0  0  0  0  0
   41.1530    0.5439   -3.6175 C   0  0  1  0  0  0  0  0  0  0  0  0
   47.3160    5.3900   -5.6044 C   0  0  0  0  0  0  0  0  0  0  0  0
   41.1574    9.3652   -1.6557 C   0  0  2  0  0  0  0  0  0  0  0  0
   42.3843    8.7020   -2.1025 N   0  0  0  0  0  0  0  0  0  0  0  0
   39.4096    5.1237    2.6724 C   0  0  0  0  0  0  0  0  0  0  0  0
   41.3482    3.1011   -2.3753 C   0  0  2  0  0  0  0  0  0  0  0  0
   42.7477    2.7833   -2.7970 O   0  0  0  0  0  0  0  0  0  0  0  0
   41.6840    0.0307   -5.0653 C   0  0  2  0  0  0  0  0  0  0  0  0
   40.5399   -0.5977   -5.8014 N   0  0  0  0  0  0  0  0  0  0  0  0
   48.5140    5.5867   -4.8421 C   0  0  0  0  0  0  0  0  0  0  0  0
   49.6965    6.0277   -5.4919 N   0  0  0  0  0  0  0  0  0  0  0  0
   41.4482   10.4730   -0.5404 C   0  0  1  0  0  0  0  0  0  0  0  0
   42.3630   11.4216   -1.0673 O   0  0  0  0  0  0  0  0  0  0  0  0
   40.2194    6.3872    2.0262 C   0  0  2  0  0  0  0  0  0  0  0  0
   39.7626    7.6326    2.5755 N   0  0  0  0  0  0  0  0  0  0  0  0
   40.1753    2.8026   -3.3282 C   0  0  2  0  0  0  0  0  0  0  0  0
   40.0950    1.4885   -3.8603 O   0  0  0  0  0  0  0  0  0  0  0  0
   42.8224   -1.0046   -4.8177 C   0  0  1  0  0  0  0  0  0  0  0  0
   43.8898   -0.2793   -4.1092 O   0  0  0  0  0  0  0  0  0  0  0  0
   49.7612    6.2897   -6.8901 C   0  0  0  0  0  0  0  0  0  0  0  0
   40.0986   11.1332   -0.1344 C   0  0  2  0  0  0  0  0  0  0  0  0
   40.3044   12.1711    0.9047 O   0  0  0  0  0  0  0  0  0  0  0  0
   40.0295    6.3994    0.4536 C   0  0  2  0  0  0  0  0  0  0  0  0
   40.2988    3.9076   -4.4043 C   0  0  1  0  0  0  0  0  0  0  0  0
   42.2625   -2.2446   -3.9261 C   0  0  2  0  0  0  0  0  0  0  0  0
   41.1948   -2.9740   -4.6278 O   0  0  0  0  0  0  0  0  0  0  0  0
   48.6085    6.1141   -7.6948 C   0  0  0  0  0  0  0  0  0  0  0  0
   39.1034   10.0473    0.4293 C   0  0  2  0  0  0  0  0  0  0  0  0
   38.9463    9.0617   -0.6284 O   0  0  0  0  0  0  0  0  0  0  0  0
   40.5435    5.0251   -0.0999 C   0  0  2  0  0  0  0  0  0  0  0  0
   40.3393    5.1522   -1.5019 O   0  0  0  0  0  0  0  0  0  0  0  0
   38.9383    4.4379   -4.8538 C   0  0  0  0  0  0  0  0  0  0  0  0
   38.9766    5.4715   -5.8085 O   0  0  0  0  0  0  0  0  0  0  0  0
   41.7071   -1.6900   -2.5344 C   0  0  1  0  0  0  0  0  0  0  0  0
   40.6387   -0.6552   -2.8216 O   0  0  0  0  0  0  0  0  0  0  0  0
   47.3492    5.6544   -7.0645 C   0  0  0  0  0  0  0  0  0  0  0  0
   37.8434   10.7249    0.7745 C   0  0  0  0  0  0  0  0  0  0  0  0
   37.3790   11.3771   -0.2987 O   0  0  0  0  0  0  0  0  0  0  0  0
   39.7161    3.8239    0.5245 C   0  0  1  0  0  0  0  0  0  0  0  0
   40.1900    2.6136    0.0324 O   0  0  0  0  0  0  0  0  0  0  0  0
   43.5094    3.3352   -3.9422 C   0  0  0  0  0  0  0  0  0  0  0  0
   41.1782   -2.9114   -1.7343 C   0  0  0  0  0  0  0  0  0  0  0  0
   39.9994   -3.4563   -2.3607 N   0  0  0  0  0  0  0  0  0  0  0  0
   44.9242    2.7519   -3.8688 C   0  0  0  0  0  0  0  0  0  0  0  0
   45.7706    3.3588   -4.9467 N   0  0  0  0  0  0  0  0  0  0  0  0
   45.9924    4.8918   -4.8426 C   0  0  0  0  0  0  0  0  0  0  0  0
  1  2  1  1  0  0  0
  1  9  1  0  0  0  0
  1 35  1  0  0  0  0
  3  4  1  1  0  0  0
  3 11  1  0  0  0  0
  3 45  1  0  0  0  0
  5  6  1  0  0  0  0
  5 12  1  0  0  0  0
  5 37  1  1  0  0  0
  6 30  1  0  0  0  0
  7 14  1  0  0  0  0
  7 41  1  0  0  0  0
  7 23  1  6  0  0  0
  8 16  2  0  0  0  0
  8 42  1  0  0  0  0
  9 10  1  1  0  0  0
  9 18  1  0  0  0  0
 11 20  1  0  0  0  0
 12 13  1  6  0  0  0
 12 22  1  0  0  0  0
 13 47  1  0  0  0  0
 14 15  1  1  0  0  0
 14 24  1  0  0  0  0
 16 17  1  0  0  0  0
 17 26  2  0  0  0  0
 18 19  1  6  0  0  0
 18 27  1  0  0  0  0
 20 21  1  1  0  0  0
 20 29  1  0  0  0  0
 22 23  1  6  0  0  0
 22 30  1  0  0  0  0
 24 25  1  1  0  0  0
 24 31  1  0  0  0  0
 26 33  1  0  0  0  0
 27 28  1  1  0  0  0
 27 34  1  0  0  0  0
 29  2  1  6  0  0  0
 29 36  1  0  0  0  0
 30 38  1  1  0  0  0
 31 32  1  6  0  0  0
 31 40  1  0  0  0  0
 33 42  2  0  0  0  0
 34 35  1  0  0  0  0
 34 43  1  6  0  0  0
 36 37  1  6  0  0  0
 36 45  1  0  0  0  0
 38 39  1  0  0  0  0
 40 41  1  0  0  0  0
 40 48  1  1  0  0  0
 43 44  1  0  0  0  0
 45 46  1  6  0  0  0
 47 50  1  0  0  0  0
 48 49  1  0  0  0  0
 50 51  1  0  0  0  0
 51 52  1  0  0  0  0
 52  8  1  0  0  0  0
M  END
>  <CHROM.1>
-173.54864759,-173.01494500,-123.71137164,-46.84439469,176.14954658,-6.42276627
-137.48419184,62.18427498,55.72524802,140.88737574,-68.43141913,-175.73736448
63.10489436,156.78660666,-97.30770384,41.74862835,4.56005210,-2.37093637
1.94340439,0.63937920,0.22614250

>  <Name>
2be0_lig

>  <RI>
0

>  <Rbt.Current_Directory>
/home/itssahil/PROJECTS/Mol_Feturizer/New_Systems/rnas/2be0

>  <Rbt.Executable>
rbdock ($Id: //depot/dev/client3/rdock/2013.1/src/exe/rbdock.cxx#4 $)

>  <Rbt.Library>
libRbt.so (2013.1, Build901 2013/11/27)

>  <Rbt.Parameter_File>
/export/apps/rDock/src/rDock_2013.1_src/data/scripts/dock_solv.prm

>  <Rbt.Receptor>
prm/pocket_docking_4.prm

>  <SCORE>
-14.9544

>  <SCORE.INTER>
-8.89199

>  <SCORE.INTER.CONST>
1

>  <SCORE.INTER.POLAR>
-0.855772

>  <SCORE.INTER.ROT>
15

>  <SCORE.INTER.SOLV>
9.70955

>  <SCORE.INTER.VDW>
-19.9119

>  <SCORE.INTER.norm>
-0.171

>  <SCORE.INTRA>
-6.09317

>  <SCORE.INTRA.DIHEDRAL>
-19.4538

>  <SCORE.INTRA.DIHEDRAL.0>
47.8724

>  <SCORE.INTRA.POLAR>
0

>  <SCORE.INTRA.POLAR.0>
0

>  <SCORE.INTRA.REPUL>
0

>  <SCORE.INTRA.REPUL.0>
0

>  <SCORE.INTRA.SOLV>
0.054128

>  <SCORE.INTRA.SOLV.lig_0>
-115.677

>  <SCORE.INTRA.VDW>
3.60666

>  <SCORE.INTRA.VDW.0>
-7.4833

>  <SCORE.INTRA.norm>
-0.117176

>  <SCORE.RESTR>
0.0308029

>  <SCORE.RESTR.CAVITY>
0.0308029

>  <SCORE.RESTR.norm>
0.000592363

>  <SCORE.SYSTEM>
0

>  <SCORE.SYSTEM.CONST>
0

>  <SCORE.SYSTEM.DIHEDRAL>
0

>  <SCORE.SYSTEM.SOLV>
0

>  <SCORE.SYSTEM.norm>
0

>  <SCORE.heavy>
52

>  <SCORE.norm>
-0.287584

>  <RMSD>
9.534

$$$$
2be0_lig
 OpenBabel11021811423D
libRbt.so/2013.1/901 2013/11/27
 52 56  0  0  0  0  0  0  0  0999 V2000
   37.9932    0.5757   -5.6871 C   0  0  2  0  0  0  0  0  0  0  0  0
   38.3718   -0.3932   -4.7381 O   0  0  0  0  0  0  0  0  0  0  0  0
   42.1684   -1.6118   -2.8748 C   0  0  2  0  0  0  0  0  0  0  0  0
   43.5976   -2.0144   -2.7530 N   0  0  0  0  0  0  0  0  0  0  0  0
   40.5510    2.6807   -3.4192 C   0  0  2  0  0  0  0  0  0  0  0  0
   39.9155    3.8308   -4.0141 O   0  0  0  0  0  0  0  0  0  0  0  0
   43.7360    5.1100   -6.0684 C   0  0  1  0  0  0  0  0  0  0  0  0
   42.2253    7.5000    1.7249 C   0  0  0  0  0  0  0  0  0  0  0  0
   36.8537    0.0296   -6.6406 C   0  0  2  0  0  0  0  0  0  0  0  0
   35.7272   -0.4544   -5.8397 N   0  0  0  0  0  0  0  0  0  0  0  0
   41.4239   -2.6199   -3.8637 C   0  0  0  0  0  0  0  0  0  0  0  0
   42.0485    3.0093   -3.3096 C   0  0  2  0  0  0  0  0  0  0  0  0
   42.1490    3.7553   -2.0170 O   0  0  0  0  0  0  0  0  0  0  0  0
   43.8576    3.8676   -7.1090 C   0  0  2  0  0  0  0  0  0  0  0  0
   44.9081    2.9231   -6.6090 N   0  0  0  0  0  0  0  0  0  0  0  0
   42.5245    8.3542    0.6134 C   0  0  0  0  0  0  0  0  0  0  0  0
   41.9334    9.6425    0.5374 N   0  0  0  0  0  0  0  0  0  0  0  0
   37.4478   -1.1122   -7.5888 C   0  0  1  0  0  0  0  0  0  0  0  0
   36.4101   -1.5930   -8.4291 O   0  0  0  0  0  0  0  0  0  0  0  0
   39.8533   -2.2037   -4.0360 C   0  0  2  0  0  0  0  0  0  0  0  0
   39.1714   -3.1046   -4.9219 N   0  0  0  0  0  0  0  0  0  0  0  0
   42.2229    3.7611   -4.6427 C   0  0  2  0  0  0  0  0  0  0  0  0
   43.3881    4.5602   -4.7849 O   0  0  0  0  0  0  0  0  0  0  0  0
   44.2478    4.4471   -8.5022 C   0  0  1  0  0  0  0  0  0  0  0  0
   43.1464    5.3401   -8.8984 O   0  0  0  0  0  0  0  0  0  0  0  0
   41.0383   10.1443    1.5249 C   0  0  0  0  0  0  0  0  0  0  0  0
   38.6260   -0.5113   -8.4091 C   0  0  2  0  0  0  0  0  0  0  0  0
   39.2228   -1.5286   -9.3081 O   0  0  0  0  0  0  0  0  0  0  0  0
   39.7475   -0.7261   -4.5972 C   0  0  2  0  0  0  0  0  0  0  0  0
   40.9002    4.5516   -4.7831 C   0  0  1  0  0  0  0  0  0  0  0  0
   45.6528    5.2594   -8.3932 C   0  0  2  0  0  0  0  0  0  0  0  0
   46.7584    4.3731   -7.9971 O   0  0  0  0  0  0  0  0  0  0  0  0
   40.7061    9.3457    2.6468 C   0  0  0  0  0  0  0  0  0  0  0  0
   39.7499    0.0274   -7.4426 C   0  0  2  0  0  0  0  0  0  0  0  0
   39.1048    1.0125   -6.5892 O   0  0  0  0  0  0  0  0  0  0  0  0
   40.5012    0.2190   -3.5983 C   0  0  2  0  0  0  0  0  0  0  0  0
   40.3322    1.5024   -4.1881 O   0  0  0  0  0  0  0  0  0  0  0  0
   40.3965    4.5935   -6.2248 C   0  0  0  0  0  0  0  0  0  0  0  0
   40.7266    3.4761   -7.0145 O   0  0  0  0  0  0  0  0  0  0  0  0
   45.5031    6.4389   -7.3258 C   0  0  1  0  0  0  0  0  0  0  0  0
   45.0782    5.8378   -6.0019 O   0  0  0  0  0  0  0  0  0  0  0  0
   41.2960    7.9927    2.7722 C   0  0  0  0  0  0  0  0  0  0  0  0
   40.8225    0.6003   -8.2717 C   0  0  0  0  0  0  0  0  0  0  0  0
   41.8362    0.9854   -7.4862 O   0  0  0  0  0  0  0  0  0  0  0  0
   42.0283   -0.1943   -3.4785 C   0  0  1  0  0  0  0  0  0  0  0  0
   42.6794    0.6454   -2.5827 O   0  0  0  0  0  0  0  0  0  0  0  0
   41.5283    5.0512   -1.6540 C   0  0  0  0  0  0  0  0  0  0  0  0
   46.8722    7.1687   -7.2565 C   0  0  0  0  0  0  0  0  0  0  0  0
   47.8898    6.2898   -6.7361 N   0  0  0  0  0  0  0  0  0  0  0  0
   41.4507    5.1039   -0.1248 C   0  0  0  0  0  0  0  0  0  0  0  0
   42.8284    5.2799    0.4388 N   0  0  0  0  0  0  0  0  0  0  0  0
   42.9096    6.0479    1.7856 C   0  0  0  0  0  0  0  0  0  0  0  0
  1  2  1  1  0  0  0
  1  9  1  0  0  0  0
  1 35  1  0  0  0  0
  3  4  1  6  0  0  0
  3 11  1  0  0  0  0
  3 45  1  0  0  0  0
  5  6  1  0  0  0  0
  5 12  1  0  0  0  0
  5 37  1  6  0  0  0
  6 30  1  0  0  0  0
  7 14  1  0  0  0  0
  7 41  1  0  0  0  0
  7 23  1  1  0  0  0
  8 16  2  0  0  0  0
  8 42  1  0  0  0  0
  9 10  1  1  0  0  0
  9 18  1  0  0  0  0
 11 20  1  0  0  0  0
 12 13  1  1  0  0  0
 12 22  1  0  0  0  0
 13 47  1  0  0  0  0
 14 15  1  1  0  0  0
 14 24  1  0  0  0  0
 16 17  1  0  0  0  0
 17 26  2  0  0  0  0
 18 19  1  6  0  0  0
 18 27  1  0  0  0  0
 20 21  1  6  0  0  0
 20 29  1  0  0  0  0
 22 23  1  1  0  0  0
 22 30  1  0  0  0  0
 24 25  1  1  0  0  0
 24 31  1  0  0  0  0
 26 33  1  0  0  0  0
 27 28  1  6  0  0  0
 27 34  1  0  0  0  0
 29  2  1  1  0  0  0
 29 36  1  0  0  0  0
 30 38  1  6  0  0  0
 31 32  1  1  0  0  0
 31 40  1  0  0  0  0
 33 42  2  0  0  0  0
 34 35  1  0  0  0  0
 34 43  1  6  0  0  0
 36 37  1  6  0  0  0
 36 45  1  0  0  0  0
 38 39  1  0  0  0  0
 40 41  1  0  0  0  0
 40 48  1  1  0  0  0
 43 44  1  0  0  0  0
 45 46  1  1  0  0  0
 47 50  1  0  0  0  0
 48 49  1  0  0  0  0
 50 51  1  0  0  0  0
 51 52  1  0  0  0  0
 52  8  1  0  0  0  0
M  END
>  <CHROM.1>
127.77805942,-160.50621379,-56.62221272,-62.83547699,157.56521889,169.57714544
-153.92827172,-85.80963109,-175.80379453,162.84039896,-64.97058502,71.31271343
149.99846096,-55.55782753,-46.59865839,41.57780949,2.90714793,-4.58160240
2.09232626,-0.78826348,-2.13468809

>  <Name>
2be0_lig

>  <RI>
2.10017e+07

>  <Rbt.Current_Directory>
/home/itssahil/PROJECTS/Mol_Feturizer/New_Systems/rnas/2be0

>  <Rbt.Executable>
rbdock ($Id: //depot/dev/client3/rdock/2013.1/src/exe/rbdock.cxx#4 $)

>  <Rbt.Library>
libRbt.so (2013.1, Build901 2013/11/27)

>  <Rbt.Parameter_File>
/export/apps/rDock/src/rDock_2013.1_src/data/scripts/dock_solv.prm

>  <Rbt.Receptor>
prm/pocket_docking_3.prm

>  <SCORE>
-0.864467

>  <SCORE.INTER>
8.44843

>  <SCORE.INTER.CONST>
1

>  <SCORE.INTER.POLAR>
0

>  <SCORE.INTER.ROT>
15

>  <SCORE.INTER.SOLV>
10.4583

>  <SCORE.INTER.VDW>
-11.4538

>  <SCORE.INTER.norm>
0.16247

>  <SCORE.INTRA>
-10.5937

>  <SCORE.INTRA.DIHEDRAL>
-27.7495

>  <SCORE.INTRA.DIHEDRAL.0>
47.8724

>  <SCORE.INTRA.POLAR>
0

>  <SCORE.INTRA.POLAR.0>
0

>  <SCORE.INTRA.REPUL>
0

>  <SCORE.INTRA.REPUL.0>
0

>  <SCORE.INTRA.SOLV>
2.36214

>  <SCORE.INTRA.SOLV.lig_0>
-115.677

>  <SCORE.INTRA.VDW>
2.09994

>  <SCORE.INTRA.VDW.0>
-7.4833

>  <SCORE.INTRA.norm>
-0.203725

>  <SCORE.RESTR>
1.28083

>  <SCORE.RESTR.CAVITY>
1.28083

>  <SCORE.RESTR.norm>
0.0246313

>  <SCORE.SYSTEM>
0

>  <SCORE.SYSTEM.CONST>
0

>  <SCORE.SYSTEM.DIHEDRAL>
0

>  <SCORE.SYSTEM.SOLV>
0

>  <SCORE.SYSTEM.norm>
0

>  <SCORE.heavy>
52

>  <SCORE.norm>
-0.0166244

>  <RMSD>
9.549

$$$$
2be0_lig
 OpenBabel11021811423D
libRbt.so/2013.1/901 2013/11/27
 52 56  0  0  0  0  0  0  0  0999 V2000
   40.2232    0.9693    1.2425 C   0  0  2  0  0  0  0  0  0  0  0  0
   39.2424    0.7192    0.2636 O   0  0  0  0  0  0  0  0  0  0  0  0
   40.7575   -3.0841   -1.3519 C   0  0  2  0  0  0  0  0  0  0  0  0
   40.8546   -4.2936   -2.2163 N   0  0  0  0  0  0  0  0  0  0  0  0
   41.9884    0.9325   -2.8596 C   0  0  2  0  0  0  0  0  0  0  0  0
   43.2411    1.0252   -2.1508 O   0  0  0  0  0  0  0  0  0  0  0  0
   43.6167    4.6685   -4.1704 C   0  0  1  0  0  0  0  0  0  0  0  0
   44.3115    3.0079   -9.9513 C   0  0  0  0  0  0  0  0  0  0  0  0
   39.5710    1.1573    2.6726 C   0  0  2  0  0  0  0  0  0  0  0  0
   38.7310    0.0005    2.9900 N   0  0  0  0  0  0  0  0  0  0  0  0
   39.3151   -3.0442   -0.6690 C   0  0  0  0  0  0  0  0  0  0  0  0
   41.8203    2.2483   -3.6360 C   0  0  2  0  0  0  0  0  0  0  0  0
   42.5757    2.0051   -4.9038 O   0  0  0  0  0  0  0  0  0  0  0  0
   45.0064    5.3237   -3.6406 C   0  0  2  0  0  0  0  0  0  0  0  0
   44.7012    6.6419   -2.9965 N   0  0  0  0  0  0  0  0  0  0  0  0
   45.0347    3.8667  -10.8425 C   0  0  0  0  0  0  0  0  0  0  0  0
   44.8256    3.7635  -12.2428 N   0  0  0  0  0  0  0  0  0  0  0  0
   38.7445    2.5252    2.7107 C   0  0  1  0  0  0  0  0  0  0  0  0
   38.1625    2.6709    3.9968 O   0  0  0  0  0  0  0  0  0  0  0  0
   39.1625   -1.7219    0.2786 C   0  0  2  0  0  0  0  0  0  0  0  0
   37.8694   -1.6753    0.9009 N   0  0  0  0  0  0  0  0  0  0  0  0
   42.3867    3.2180   -2.5815 C   0  0  2  0  0  0  0  0  0  0  0  0
   42.7540    4.5146   -3.0290 O   0  0  0  0  0  0  0  0  0  0  0  0
   45.9468    5.5091   -4.8696 C   0  0  1  0  0  0  0  0  0  0  0  0
   46.1897    4.1604   -5.4077 O   0  0  0  0  0  0  0  0  0  0  0  0
   43.9187    2.8324  -12.8247 C   0  0  0  0  0  0  0  0  0  0  0  0
   39.7118    3.6978    2.3763 C   0  0  2  0  0  0  0  0  0  0  0  0
   38.9987    4.9979    2.3924 O   0  0  0  0  0  0  0  0  0  0  0  0
   39.3828   -0.4129   -0.5860 C   0  0  2  0  0  0  0  0  0  0  0  0
   43.5523    2.4194   -1.9510 C   0  0  1  0  0  0  0  0  0  0  0  0
   45.2337    6.4641   -5.9766 C   0  0  2  0  0  0  0  0  0  0  0  0
   44.9874    7.8138   -5.4456 O   0  0  0  0  0  0  0  0  0  0  0  0
   43.1752    1.9584  -11.9939 C   0  0  0  0  0  0  0  0  0  0  0  0
   40.3513    3.4924    0.9493 C   0  0  2  0  0  0  0  0  0  0  0  0
   41.0288    2.2064    0.9962 O   0  0  0  0  0  0  0  0  0  0  0  0
   40.8045   -0.5072   -1.2410 C   0  0  2  0  0  0  0  0  0  0  0  0
   40.8973    0.7092   -1.9725 O   0  0  0  0  0  0  0  0  0  0  0  0
   43.6615    2.6401   -0.4431 C   0  0  0  0  0  0  0  0  0  0  0  0
   44.5834    1.8124    0.2249 O   0  0  0  0  0  0  0  0  0  0  0  0
   43.8505    5.8072   -6.4328 C   0  0  1  0  0  0  0  0  0  0  0  0
   42.9880    5.6017   -5.2046 O   0  0  0  0  0  0  0  0  0  0  0  0
   43.3580    2.0260  -10.5254 C   0  0  0  0  0  0  0  0  0  0  0  0
   41.2686    4.6159    0.6993 C   0  0  0  0  0  0  0  0  0  0  0  0
   40.5599    5.7324    0.4900 O   0  0  0  0  0  0  0  0  0  0  0  0
   40.9074   -1.7842   -2.1771 C   0  0  1  0  0  0  0  0  0  0  0  0
   42.1752   -1.8591   -2.7414 O   0  0  0  0  0  0  0  0  0  0  0  0
   42.2187    1.1075   -6.0277 C   0  0  0  0  0  0  0  0  0  0  0  0
   43.2128    6.7640   -7.4766 C   0  0  0  0  0  0  0  0  0  0  0  0
   41.9572    6.2355   -7.9488 N   0  0  0  0  0  0  0  0  0  0  0  0
   43.2846    1.2934   -7.1124 C   0  0  0  0  0  0  0  0  0  0  0  0
   43.3381    2.7356   -7.5172 N   0  0  0  0  0  0  0  0  0  0  0  0
   44.5671    3.1477   -8.3716 C   0  0  0  0  0  0  0  0  0  0  0  0
  1  2  1  6  0  0  0
  1  9  1  0  0  0  0
  1 35  1  0  0  0  0
  3  4  1  6  0  0  0
  3 11  1  0  0  0  0
  3 45  1  0  0  0  0
  5  6  1  0  0  0  0
  5 12  1  0  0  0  0
  5 37  1  1  0  0  0
  6 30  1  0  0  0  0
  7 14  1  0  0  0  0
  7 41  1  0  0  0  0
  7 23  1  1  0  0  0
  8 16  2  0  0  0  0
  8 42  1  0  0  0  0
  9 10  1  6  0  0  0
  9 18  1  0  0  0  0
 11 20  1  0  0  0  0
 12 13  1  6  0  0  0
 12 22  1  0  0  0  0
 13 47  1  0  0  0  0
 14 15  1  6  0  0  0
 14 24  1  0  0  0  0
 16 17  1  0  0  0  0
 17 26  2  0  0  0  0
 18 19  1  1  0  0  0
 18 27  1  0  0  0  0
 20 21  1  6  0  0  0
 20 29  1  0  0  0  0
 22 23  1  6  0  0  0
 22 30  1  0  0  0  0
 24 25  1  6  0  0  0
 24 31  1  0  0  0  0
 26 33  1  0  0  0  0
 27 28  1  6  0  0  0
 27 34  1  0  0  0  0
 29  2  1  1  0  0  0
 29 36  1  0  0  0  0
 30 38  1  1  0  0  0
 31 32  1  1  0  0  0
 31 40  1  0  0  0  0
 33 42  2  0  0  0  0
 34 35  1  0  0  0  0
 34 43  1  1  0  0  0
 36 37  1  6  0  0  0
 36 45  1  0  0  0  0
 38 39  1  0  0  0  0
 40 41  1  0  0  0  0
 40 48  1  6  0  0  0
 43 44  1  0  0  0  0
 45 46  1  1  0  0  0
 47 50  1  0  0  0  0
 48 49  1  0  0  0  0
 50 51  1  0  0  0  0
 51 52  1  0  0  0  0
 52  8  1  0  0  0  0
M  END
>  <CHROM.1>
-127.74758712,-65.91272029,-114.11203495,70.56109811,176.62411305,-51.10869391
69.42179263,55.67926716,-71.54199704,-171.85756544,179.58793174,-57.42150398
167.05644716,90.45974979,151.95626686,42.12558084,2.46190572,-3.15231245
2.74272975,1.12935007,0.75751666

>  <Name>
2be0_lig

>  <RI>
3.37048e+07

>  <Rbt.Current_Directory>
/home/itssahil/PROJECTS/Mol_Feturizer/New_Systems/rnas/2be0

>  <Rbt.Executable>
rbdock ($Id: //depot/dev/client3/rdock/2013.1/src/exe/rbdock.cxx#4 $)

>  <Rbt.Library>
libRbt.so (2013.1, Build901 2013/11/27)

>  <Rbt.Parameter_File>
/export/apps/rDock/src/rDock_2013.1_src/data/scripts/dock_solv.prm

>  <Rbt.Receptor>
prm/pocket_docking_8.prm

>  <SCORE>
-20.3151

>  <SCORE.INTER>
-6.81616

>  <SCORE.INTER.CONST>
1

>  <SCORE.INTER.POLAR>
-1.13265

>  <SCORE.INTER.ROT>
15

>  <SCORE.INTER.SOLV>
14.7238

>  <SCORE.INTER.VDW>
-19.2765

>  <SCORE.INTER.norm>
-0.13108

>  <SCORE.INTRA>
-13.499

>  <SCORE.INTRA.DIHEDRAL>
-29.5904

>  <SCORE.INTRA.DIHEDRAL.0>
47.8724

>  <SCORE.INTRA.POLAR>
0

>  <SCORE.INTRA.POLAR.0>
0

>  <SCORE.INTRA.REPUL>
0

>  <SCORE.INTRA.REPUL.0>
0

>  <SCORE.INTRA.SOLV>
2.65134

>  <SCORE.INTRA.SOLV.lig_0>
-115.677

>  <SCORE.INTRA.VDW>
-0.0294302

>  <SCORE.INTRA.VDW.0>
-7.4833

>  <SCORE.INTRA.norm>
-0.259596

>  <SCORE.RESTR>
0

>  <SCORE.RESTR.CAVITY>
0

>  <SCORE.RESTR.norm>
0

>  <SCORE.SYSTEM>
0

>  <SCORE.SYSTEM.CONST>
0

>  <SCORE.SYSTEM.DIHEDRAL>
0

>  <SCORE.SYSTEM.SOLV>
0

>  <SCORE.SYSTEM.norm>
0

>  <SCORE.heavy>
52

>  <SCORE.norm>
-0.390676

>  <RMSD>
9.557

$$$$
2be0_lig
 OpenBabel11021811423D
libRbt.so/2013.1/901 2013/11/27
 52 56  0  0  0  0  0  0  0  0999 V2000
   40.0911    5.1539    0.4887 C   0  0  2  0  0  0  0  0  0  0  0  0
   40.4118    5.9557   -0.6236 O   0  0  0  0  0  0  0  0  0  0  0  0
   41.9932   10.0289   -1.1523 C   0  0  2  0  0  0  0  0  0  0  0  0
   42.8014   11.2556   -0.9044 N   0  0  0  0  0  0  0  0  0  0  0  0
   43.3084    6.0928   -3.2743 C   0  0  2  0  0  0  0  0  0  0  0  0
   42.2361    5.9021   -4.2199 O   0  0  0  0  0  0  0  0  0  0  0  0
   44.1540    2.2958   -5.0728 C   0  0  1  0  0  0  0  0  0  0  0  0
   44.4523    7.4940   -8.7395 C   0  0  0  0  0  0  0  0  0  0  0  0
   41.3237    4.2631    0.9278 C   0  0  2  0  0  0  0  0  0  0  0  0
   42.4933    5.1141    1.1570 N   0  0  0  0  0  0  0  0  0  0  0  0
   41.1572    9.6794    0.1620 C   0  0  0  0  0  0  0  0  0  0  0  0
   44.1570    4.8116   -3.3026 C   0  0  2  0  0  0  0  0  0  0  0  0
   45.0980    5.0408   -4.4425 O   0  0  0  0  0  0  0  0  0  0  0  0
   43.1542    2.5514   -6.3283 C   0  0  2  0  0  0  0  0  0  0  0  0
   42.0205    1.5748   -6.2461 N   0  0  0  0  0  0  0  0  0  0  0  0
   43.4626    7.1204   -9.7068 C   0  0  0  0  0  0  0  0  0  0  0  0
   42.9871    8.0839  -10.6345 N   0  0  0  0  0  0  0  0  0  0  0  0
   41.6037    3.1481   -0.1831 C   0  0  1  0  0  0  0  0  0  0  0  0
   42.7155    2.3663    0.2255 O   0  0  0  0  0  0  0  0  0  0  0  0
   40.2659    8.3288   -0.0641 C   0  0  2  0  0  0  0  0  0  0  0  0
   39.5069    8.0046    1.1108 N   0  0  0  0  0  0  0  0  0  0  0  0
   43.0217    3.7800   -3.4430 C   0  0  2  0  0  0  0  0  0  0  0  0
   43.3848    2.4753   -3.8700 O   0  0  0  0  0  0  0  0  0  0  0  0
   43.9712    2.3469   -7.6397 C   0  0  1  0  0  0  0  0  0  0  0  0
   45.0381    3.3612   -7.6210 O   0  0  0  0  0  0  0  0  0  0  0  0
   43.4472    9.4314  -10.6572 C   0  0  0  0  0  0  0  0  0  0  0  0
   40.3198    2.2851   -0.3532 C   0  0  2  0  0  0  0  0  0  0  0  0
   40.5178    1.2315   -1.3778 O   0  0  0  0  0  0  0  0  0  0  0  0
   41.2140    7.1151   -0.4349 C   0  0  2  0  0  0  0  0  0  0  0  0
   42.0105    4.4861   -4.3773 C   0  0  1  0  0  0  0  0  0  0  0  0
   44.5902    0.8432   -7.6807 C   0  0  2  0  0  0  0  0  0  0  0  0
   43.5294   -0.1760   -7.6991 O   0  0  0  0  0  0  0  0  0  0  0  0
   44.4256    9.8584   -9.7259 C   0  0  0  0  0  0  0  0  0  0  0  0
   39.1038    3.1895   -0.7899 C   0  0  2  0  0  0  0  0  0  0  0  0
   38.9639    4.1993    0.2472 O   0  0  0  0  0  0  0  0  0  0  0  0
   42.0174    7.5129   -1.7216 C   0  0  2  0  0  0  0  0  0  0  0  0
   42.8146    6.3604   -1.9659 O   0  0  0  0  0  0  0  0  0  0  0  0
   40.5609    4.2184   -3.9760 C   0  0  0  0  0  0  0  0  0  0  0  0
   39.5999    5.0421   -4.5918 O   0  0  0  0  0  0  0  0  0  0  0  0
   45.5263    0.6191   -6.4054 C   0  0  1  0  0  0  0  0  0  0  0  0
   44.7066    0.8734   -5.1571 O   0  0  0  0  0  0  0  0  0  0  0  0
   44.9535    8.8910   -8.7361 C   0  0  0  0  0  0  0  0  0  0  0  0
   37.9190    2.3251   -0.9133 C   0  0  0  0  0  0  0  0  0  0  0  0
   36.9101    3.0245   -1.4478 O   0  0  0  0  0  0  0  0  0  0  0  0
   42.8940    8.8087   -1.4575 C   0  0  1  0  0  0  0  0  0  0  0  0
   43.5912    9.1540   -2.6091 O   0  0  0  0  0  0  0  0  0  0  0  0
   46.3518    5.8309   -4.4536 C   0  0  0  0  0  0  0  0  0  0  0  0
   46.0773   -0.8301   -6.4922 C   0  0  0  0  0  0  0  0  0  0  0  0
   46.8634   -1.1448   -5.3253 N   0  0  0  0  0  0  0  0  0  0  0  0
   46.7897    5.9655   -5.9156 C   0  0  0  0  0  0  0  0  0  0  0  0
   45.9111    6.9619   -6.6099 N   0  0  0  0  0  0  0  0  0  0  0  0
   44.9731    6.3827   -7.7030 C   0  0  0  0  0  0  0  0  0  0  0  0
  1  2  1  6  0  0  0
  1  9  1  0  0  0  0
  1 35  1  0  0  0  0
  3  4  1  1  0  0  0
  3 11  1  0  0  0  0
  3 45  1  0  0  0  0
  5  6  1  0  0  0  0
  5 12  1  0  0  0  0
  5 37  1  1  0  0  0
  6 30  1  0  0  0  0
  7 14  1  0  0  0  0
  7 41  1  0  0  0  0
  7 23  1  1  0  0  0
  8 16  2  0  0  0  0
  8 42  1  0  0  0  0
  9 10  1  6  0  0  0
  9 18  1  0  0  0  0
 11 20  1  0  0  0  0
 12 13  1  6  0  0  0
 12 22  1  0  0  0  0
 13 47  1  0  0  0  0
 14 15  1  6  0  0  0
 14 24  1  0  0  0  0
 16 17  1  0  0  0  0
 17 26  2  0  0  0  0
 18 19  1  1  0  0  0
 18 27  1  0  0  0  0
 20 21  1  1  0  0  0
 20 29  1  0  0  0  0
 22 23  1  6  0  0  0
 22 30  1  0  0  0  0
 24 25  1  1  0  0  0
 24 31  1  0  0  0  0
 26 33  1  0  0  0  0
 27 28  1  6  0  0  0
 27 34  1  0  0  0  0
 29  2  1  6  0  0  0
 29 36  1  0  0  0  0
 30 38  1  1  0  0  0
 31 32  1  1  0  0  0
 31 40  1  0  0  0  0
 33 42  2  0  0  0  0
 34 35  1  0  0  0  0
 34 43  1  1  0  0  0
 36 37  1  1  0  0  0
 36 45  1  0  0  0  0
 38 39  1  0  0  0  0
 40 41  1  0  0  0  0
 40 48  1  1  0  0  0
 43 44  1  0  0  0  0
 45 46  1  6  0  0  0
 47 50  1  0  0  0  0
 48 49  1  0  0  0  0
 50 51  1  0  0  0  0
 51 52  1  0  0  0  0
 52  8  1  0  0  0  0
M  END
>  <CHROM.1>
-76.21152812,-61.45960829,-74.62242437,80.80264756,-169.48875170,-53.07647862
-87.21988003,50.81910992,-172.08192152,156.45386000,-176.10193659,74.78306799
-112.29270481,-159.94832654,-173.12274563,42.69325470,4.91593509,-3.83869446
3.01631653,1.05844331,-0.03112037

>  <Name>
2be0_lig

>  <RI>
0

>  <Rbt.Current_Directory>
/home/itssahil/PROJECTS/Mol_Feturizer/New_Systems/rnas/2be0

>  <Rbt.Executable>
rbdock ($Id: //depot/dev/client3/rdock/2013.1/src/exe/rbdock.cxx#4 $)

>  <Rbt.Library>
libRbt.so (2013.1, Build901 2013/11/27)

>  <Rbt.Parameter_File>
/export/apps/rDock/src/rDock_2013.1_src/data/scripts/dock_solv.prm

>  <Rbt.Receptor>
prm/pocket_docking_6.prm

>  <SCORE>
-28.2364

>  <SCORE.INTER>
-11.3285

>  <SCORE.INTER.CONST>
1

>  <SCORE.INTER.POLAR>
-1.55033

>  <SCORE.INTER.ROT>
15

>  <SCORE.INTER.SOLV>
15.411

>  <SCORE.INTER.VDW>
-21.1215

>  <SCORE.INTER.norm>
-0.217855

>  <SCORE.INTRA>
-16.9079

>  <SCORE.INTRA.DIHEDRAL>
-33.6811

>  <SCORE.INTRA.DIHEDRAL.0>
47.8724

>  <SCORE.INTRA.POLAR>
0

>  <SCORE.INTRA.POLAR.0>
0

>  <SCORE.INTRA.REPUL>
0

>  <SCORE.INTRA.REPUL.0>
0

>  <SCORE.INTRA.SOLV>
1.32149

>  <SCORE.INTRA.SOLV.lig_0>
-115.677

>  <SCORE.INTRA.VDW>
-0.728116

>  <SCORE.INTRA.VDW.0>
-7.4833

>  <SCORE.INTRA.norm>
-0.325152

>  <SCORE.RESTR>
0

>  <SCORE.RESTR.CAVITY>
0

>  <SCORE.RESTR.norm>
0

>  <SCORE.SYSTEM>
0

>  <SCORE.SYSTEM.CONST>
0

>  <SCORE.SYSTEM.DIHEDRAL>
0

>  <SCORE.SYSTEM.SOLV>
0

>  <SCORE.SYSTEM.norm>
0

>  <SCORE.heavy>
52

>  <SCORE.norm>
-0.543007

>  <RMSD>
9.580

$$$$
2be0_lig
 OpenBabel11021811423D
libRbt.so/2013.1/901 2013/11/27
 52 56  0  0  0  0  0  0  0  0999 V2000
   40.2945    1.5718   -6.0875 C   0  0  2  0  0  0  0  0  0  0  0  0
   40.2683    0.8066   -4.9057 O   0  0  0  0  0  0  0  0  0  0  0  0
   40.9557    2.1510   -0.7716 C   0  0  2  0  0  0  0  0  0  0  0  0
   41.6852    2.6031    0.4461 N   0  0  0  0  0  0  0  0  0  0  0  0
   40.0607    4.8599   -4.2881 C   0  0  2  0  0  0  0  0  0  0  0  0
   39.5343    5.2910   -5.5599 O   0  0  0  0  0  0  0  0  0  0  0  0
   43.2963    7.3706   -6.7728 C   0  0  1  0  0  0  0  0  0  0  0  0
   39.3986   10.8323    1.5981 C   0  0  0  0  0  0  0  0  0  0  0  0
   39.4339    0.8926   -7.2294 C   0  0  2  0  0  0  0  0  0  0  0  0
   38.0756    0.6414   -6.7432 N   0  0  0  0  0  0  0  0  0  0  0  0
   41.5508    0.7478   -1.2465 C   0  0  0  0  0  0  0  0  0  0  0  0
   41.1885    5.8376   -3.9211 C   0  0  2  0  0  0  0  0  0  0  0  0
   40.4684    6.9693   -3.2593 O   0  0  0  0  0  0  0  0  0  0  0  0
   44.3770    6.1744   -6.9788 C   0  0  2  0  0  0  0  0  0  0  0  0
   45.3578    6.2128   -5.8464 N   0  0  0  0  0  0  0  0  0  0  0  0
   38.1495   10.6977    2.2884 C   0  0  0  0  0  0  0  0  0  0  0  0
   38.0956   10.9049    3.6916 N   0  0  0  0  0  0  0  0  0  0  0  0
   40.1524   -0.4495   -7.7176 C   0  0  1  0  0  0  0  0  0  0  0  0
   39.3623   -1.0460   -8.7344 O   0  0  0  0  0  0  0  0  0  0  0  0
   40.7854    0.2226   -2.5912 C   0  0  2  0  0  0  0  0  0  0  0  0
   41.3102   -1.0406   -3.0275 N   0  0  0  0  0  0  0  0  0  0  0  0
   41.7965    6.0327   -5.3229 C   0  0  2  0  0  0  0  0  0  0  0  0
   42.6521    7.1513   -5.5049 O   0  0  0  0  0  0  0  0  0  0  0  0
   45.0931    6.4066   -8.3434 C   0  0  1  0  0  0  0  0  0  0  0  0
   44.0452    6.3321   -9.3748 O   0  0  0  0  0  0  0  0  0  0  0  0
   39.2390   11.2449    4.4696 C   0  0  0  0  0  0  0  0  0  0  0  0
   41.5784   -0.0906   -8.2275 C   0  0  2  0  0  0  0  0  0  0  0  0
   42.2985   -1.3009   -8.6919 O   0  0  0  0  0  0  0  0  0  0  0  0
   40.9416    1.2911   -3.7502 C   0  0  2  0  0  0  0  0  0  0  0  0
   40.5596    6.0326   -6.2524 C   0  0  1  0  0  0  0  0  0  0  0  0
   45.8213    7.8611   -8.3492 C   0  0  2  0  0  0  0  0  0  0  0  0
   46.8699    7.9430   -7.3205 O   0  0  0  0  0  0  0  0  0  0  0  0
   40.5005   11.3927    3.8422 C   0  0  0  0  0  0  0  0  0  0  0  0
   42.4194    0.5848   -7.0768 C   0  0  2  0  0  0  0  0  0  0  0  0
   41.6633    1.7564   -6.6639 O   0  0  0  0  0  0  0  0  0  0  0  0
   40.3538    2.6487   -3.2302 C   0  0  2  0  0  0  0  0  0  0  0  0
   40.5332    3.5178   -4.3420 O   0  0  0  0  0  0  0  0  0  0  0  0
   40.8213    5.3064   -7.5709 C   0  0  0  0  0  0  0  0  0  0  0  0
   41.5375    6.0406   -8.5349 O   0  0  0  0  0  0  0  0  0  0  0  0
   44.7316    9.0018   -8.0954 C   0  0  1  0  0  0  0  0  0  0  0  0
   44.0289    8.7119   -6.7852 O   0  0  0  0  0  0  0  0  0  0  0  0
   40.6099   11.1861    2.3795 C   0  0  0  0  0  0  0  0  0  0  0  0
   43.7446    0.9196   -7.6226 C   0  0  0  0  0  0  0  0  0  0  0  0
   43.6232    1.9146   -8.5103 O   0  0  0  0  0  0  0  0  0  0  0  0
   41.1391    3.1440   -1.9436 C   0  0  1  0  0  0  0  0  0  0  0  0
   40.6001    4.3418   -1.4894 O   0  0  0  0  0  0  0  0  0  0  0  0
   41.0104    7.9770   -2.3174 C   0  0  0  0  0  0  0  0  0  0  0  0
   45.4832   10.3607   -8.1004 C   0  0  0  0  0  0  0  0  0  0  0  0
   46.0608   10.6163   -9.3965 N   0  0  0  0  0  0  0  0  0  0  0  0
   39.8181    8.5977   -1.5822 C   0  0  0  0  0  0  0  0  0  0  0  0
   40.3121    9.3861   -0.4070 N   0  0  0  0  0  0  0  0  0  0  0  0
   39.4297   10.5934    0.0099 C   0  0  0  0  0  0  0  0  0  0  0  0
  1  2  1  1  0  0  0
  1  9  1  0  0  0  0
  1 35  1  0  0  0  0
  3  4  1  1  0  0  0
  3 11  1  0  0  0  0
  3 45  1  0  0  0  0
  5  6  1  0  0  0  0
  5 12  1  0  0  0  0
  5 37  1  6  0  0  0
  6 30  1  0  0  0  0
  7 14  1  0  0  0  0
  7 41  1  0  0  0  0
  7 23  1  1  0  0  0
  8 16  2  0  0  0  0
  8 42  1  0  0  0  0
  9 10  1  1  0  0  0
  9 18  1  0  0  0  0
 11 20  1  0  0  0  0
 12 13  1  6  0  0  0
 12 22  1  0  0  0  0
 13 47  1  0  0  0  0
 14 15  1  1  0  0  0
 14 24  1  0  0  0  0
 16 17  1  0  0  0  0
 17 26  2  0  0  0  0
 18 19  1  6  0  0  0
 18 27  1  0  0  0  0
 20 21  1  6  0  0  0
 20 29  1  0  0  0  0
 22 23  1  1  0  0  0
 22 30  1  0  0  0  0
 24 25  1  6  0  0  0
 24 31  1  0  0  0  0
 26 33  1  0  0  0  0
 27 28  1  1  0  0  0
 27 34  1  0  0  0  0
 29  2  1  6  0  0  0
 29 36  1  0  0  0  0
 30 38  1  6  0  0  0
 31 32  1  1  0  0  0
 31 40  1  0  0  0  0
 33 42  2  0  0  0  0
 34 35  1  0  0  0  0
 34 43  1  6  0  0  0
 36 37  1  6  0  0  0
 36 45  1  0  0  0  0
 38 39  1  0  0  0  0
 40 41  1  0  0  0  0
 40 48  1  1  0  0  0
 43 44  1  0  0  0  0
 45 46  1  1  0  0  0
 47 50  1  0  0  0  0
 48 49  1  0  0  0  0
 50 51  1  0  0  0  0
 51 52  1  0  0  0  0
 52  8  1  0  0  0  0
M  END
>  <CHROM.1>
-177.35981571,-142.82907585,-67.76645669,158.03854730,-161.29690645,177.68958858
-178.41611422,164.76689035,69.36888832,177.12268352,63.94535677,167.09246988
150.81614955,144.75627089,-116.77276472,41.62276628,5.12662918,-4.55923843
1.27194520,-1.02005863,-2.60212703

>  <Name>
2be0_lig

>  <RI>
0

>  <Rbt.Current_Directory>
/home/itssahil/PROJECTS/Mol_Feturizer/New_Systems/rnas/2be0

>  <Rbt.Executable>
rbdock ($Id: //depot/dev/client3/rdock/2013.1/src/exe/rbdock.cxx#4 $)

>  <Rbt.Library>
libRbt.so (2013.1, Build901 2013/11/27)

>  <Rbt.Parameter_File>
/export/apps/rDock/src/rDock_2013.1_src/data/scripts/dock_solv.prm

>  <Rbt.Receptor>
prm/pocket_docking_6.prm

>  <SCORE>
-23.8038

>  <SCORE.INTER>
-7.38835

>  <SCORE.INTER.CONST>
1

>  <SCORE.INTER.POLAR>
-0.9591

>  <SCORE.INTER.ROT>
15

>  <SCORE.INTER.SOLV>
9.22278

>  <SCORE.INTER.VDW>
-18.4028

>  <SCORE.INTER.norm>
-0.142084

>  <SCORE.INTRA>
-16.4154

>  <SCORE.INTRA.DIHEDRAL>
-34.7953

>  <SCORE.INTRA.DIHEDRAL.0>
47.8724

>  <SCORE.INTRA.POLAR>
0

>  <SCORE.INTRA.POLAR.0>
0

>  <SCORE.INTRA.REPUL>
0

>  <SCORE.INTRA.REPUL.0>
0

>  <SCORE.INTRA.SOLV>
-2.85008

>  <SCORE.INTRA.SOLV.lig_0>
-115.677

>  <SCORE.INTRA.VDW>
2.40728

>  <SCORE.INTRA.VDW.0>
-7.4833

>  <SCORE.INTRA.norm>
-0.315681

>  <SCORE.RESTR>
0

>  <SCORE.RESTR.CAVITY>
0

>  <SCORE.RESTR.norm>
0

>  <SCORE.SYSTEM>
0

>  <SCORE.SYSTEM.CONST>
0

>  <SCORE.SYSTEM.DIHEDRAL>
0

>  <SCORE.SYSTEM.SOLV>
0

>  <SCORE.SYSTEM.norm>
0

>  <SCORE.heavy>
52

>  <SCORE.norm>
-0.457765

>  <RMSD>
9.620

$$$$
2be0_lig
 OpenBabel11021811423D
libRbt.so/2013.1/901 2013/11/27
 52 56  0  0  0  0  0  0  0  0999 V2000
   38.9319    1.7070   -7.8420 C   0  0  2  0  0  0  0  0  0  0  0  0
   40.1174    0.9537   -7.9431 O   0  0  0  0  0  0  0  0  0  0  0  0
   44.0507    1.7786   -9.7375 C   0  0  2  0  0  0  0  0  0  0  0  0
   45.2983    2.5130  -10.0888 N   0  0  0  0  0  0  0  0  0  0  0  0
   43.4996    0.0502   -5.6725 C   0  0  2  0  0  0  0  0  0  0  0  0
   44.0055   -1.1771   -6.2365 O   0  0  0  0  0  0  0  0  0  0  0  0
   40.9707   -2.3808   -2.6330 C   0  0  1  0  0  0  0  0  0  0  0  0
   47.2948    4.8488   -5.5918 C   0  0  0  0  0  0  0  0  0  0  0  0
   38.9296    2.5995   -6.5347 C   0  0  2  0  0  0  0  0  0  0  0  0
   40.1364    3.4285   -6.4986 N   0  0  0  0  0  0  0  0  0  0  0  0
   42.7889    2.6470  -10.1869 C   0  0  0  0  0  0  0  0  0  0  0  0
   43.0347   -0.2772   -4.2445 C   0  0  2  0  0  0  0  0  0  0  0  0
   44.2853   -0.1551   -3.4331 O   0  0  0  0  0  0  0  0  0  0  0  0
   41.1020   -3.3483   -1.3337 C   0  0  2  0  0  0  0  0  0  0  0  0
   41.3347   -4.7527   -1.8021 N   0  0  0  0  0  0  0  0  0  0  0  0
   48.3886    5.1009   -4.7002 C   0  0  0  0  0  0  0  0  0  0  0  0
   49.5527    5.7546   -5.1824 N   0  0  0  0  0  0  0  0  0  0  0  0
   38.8084    1.6630   -5.2447 C   0  0  1  0  0  0  0  0  0  0  0  0
   38.8158    2.4808   -4.0849 O   0  0  0  0  0  0  0  0  0  0  0  0
   41.3968    1.8811   -9.8056 C   0  0  2  0  0  0  0  0  0  0  0  0
   40.2535    2.6512  -10.2069 N   0  0  0  0  0  0  0  0  0  0  0  0
   42.4259   -1.6674   -4.5078 C   0  0  2  0  0  0  0  0  0  0  0  0
   42.1967   -2.4959   -3.3775 O   0  0  0  0  0  0  0  0  0  0  0  0
   39.7744   -3.2444   -0.5240 C   0  0  1  0  0  0  0  0  0  0  0  0
   39.6584   -1.8380   -0.1045 O   0  0  0  0  0  0  0  0  0  0  0  0
   49.6986    6.1819   -6.5330 C   0  0  0  0  0  0  0  0  0  0  0  0
   37.4983    0.8306   -5.3584 C   0  0  2  0  0  0  0  0  0  0  0  0
   37.3321   -0.0641   -4.1875 O   0  0  0  0  0  0  0  0  0  0  0  0
   41.3383    1.6185   -8.2445 C   0  0  2  0  0  0  0  0  0  0  0  0
   43.3847   -2.2854   -5.5532 C   0  0  1  0  0  0  0  0  0  0  0  0
   38.5173   -3.6850   -1.4576 C   0  0  2  0  0  0  0  0  0  0  0  0
   38.6267   -5.0897   -1.8810 O   0  0  0  0  0  0  0  0  0  0  0  0
   48.6503    5.9610   -7.4600 C   0  0  0  0  0  0  0  0  0  0  0  0
   37.5192   -0.0509   -6.6662 C   0  0  2  0  0  0  0  0  0  0  0  0
   37.6874    0.8785   -7.7720 O   0  0  0  0  0  0  0  0  0  0  0  0
   42.6010    0.7741   -7.8548 C   0  0  2  0  0  0  0  0  0  0  0  0
   42.4386    0.5901   -6.4537 O   0  0  0  0  0  0  0  0  0  0  0  0
   42.6450   -3.1032   -6.6108 C   0  0  0  0  0  0  0  0  0  0  0  0
   41.8810   -4.1786   -6.1198 O   0  0  0  0  0  0  0  0  0  0  0  0
   38.4551   -2.7407   -2.7450 C   0  0  1  0  0  0  0  0  0  0  0  0
   39.7791   -2.8357   -3.4749 O   0  0  0  0  0  0  0  0  0  0  0  0
   47.4145    5.2817   -7.0065 C   0  0  0  0  0  0  0  0  0  0  0  0
   36.2512   -0.7954   -6.7296 C   0  0  0  0  0  0  0  0  0  0  0  0
   36.2759   -1.6304   -7.7760 O   0  0  0  0  0  0  0  0  0  0  0  0
   43.9328    1.5596   -8.2105 C   0  0  1  0  0  0  0  0  0  0  0  0
   45.0417    0.7945   -7.8690 O   0  0  0  0  0  0  0  0  0  0  0  0
   45.0279    1.0750   -3.0700 C   0  0  0  0  0  0  0  0  0  0  0  0
   37.2483   -3.2134   -3.6003 C   0  0  0  0  0  0  0  0  0  0  0  0
   37.5091   -4.5109   -4.1725 N   0  0  0  0  0  0  0  0  0  0  0  0
   45.6324    1.6370   -4.3608 C   0  0  0  0  0  0  0  0  0  0  0  0
   46.3270    2.9316   -4.0640 N   0  0  0  0  0  0  0  0  0  0  0  0
   45.9896    4.1086   -5.0184 C   0  0  0  0  0  0  0  0  0  0  0  0
  1  2  1  1  0  0  0
  1  9  1  0  0  0  0
  1 35  1  0  0  0  0
  3  4  1  1  0  0  0
  3 11  1  0  0  0  0
  3 45  1  0  0  0  0
  5  6  1  0  0  0  0
  5 12  1  0  0  0  0
  5 37  1  6  0  0  0
  6 30  1  0  0  0  0
  7 14  1  0  0  0  0
  7 41  1  0  0  0  0
  7 23  1  6  0  0  0
  8 16  2  0  0  0  0
  8 42  1  0  0  0  0
  9 10  1  1  0  0  0
  9 18  1  0  0  0  0
 11 20  1  0  0  0  0
 12 13  1  1  0  0  0
 12 22  1  0  0  0  0
 13 47  1  0  0  0  0
 14 15  1  6  0  0  0
 14 24  1  0  0  0  0
 16 17  1  0  0  0  0
 17 26  2  0  0  0  0
 18 19  1  1  0  0  0
 18 27  1  0  0  0  0
 20 21  1  1  0  0  0
 20 29  1  0  0  0  0
 22 23  1  1  0  0  0
 22 30  1  0  0  0  0
 24 25  1  6  0  0  0
 24 31  1  0  0  0  0
 26 33  1  0  0  0  0
 27 28  1  1  0  0  0
 27 34  1  0  0  0  0
 29  2  1  6  0  0  0
 29 36  1  0  0  0  0
 30 38  1  6  0  0  0
 31 32  1  6  0  0  0
 31 40  1  0  0  0  0
 33 42  2  0  0  0  0
 34 35  1  0  0  0  0
 34 43  1  6  0  0  0
 36 37  1  1  0  0  0
 36 45  1  0  0  0  0
 38 39  1  0  0  0  0
 40 41  1  0  0  0  0
 40 48  1  6  0  0  0
 43 44  1  0  0  0  0
 45 46  1  6  0  0  0
 47 50  1  0  0  0  0
 48 49  1  0  0  0  0
 50 51  1  0  0  0  0
 51 52  1  0  0  0  0
 52  8  1  0  0  0  0
M  END
>  <CHROM.1>
-71.07109781,-51.31164429,-174.21899456,71.23049658,-68.03332361,86.11473449
-80.12580482,-175.15512748,-175.42527424,-169.69543993,-68.86233841,176.56826630
-131.76859419,-130.10351720,-41.71396254,41.88269178,0.28510753,-5.51194216
2.49032917,0.37957115,2.24552842

>  <Name>
2be0_lig

>  <RI>
0

>  <Rbt.Current_Directory>
/home/itssahil/PROJECTS/Mol_Feturizer/New_Systems/rnas/2be0

>  <Rbt.Executable>
rbdock ($Id: //depot/dev/client3/rdock/2013.1/src/exe/rbdock.cxx#4 $)

>  <Rbt.Library>
libRbt.so (2013.1, Build901 2013/11/27)

>  <Rbt.Parameter_File>
/export/apps/rDock/src/rDock_2013.1_src/data/scripts/dock_solv.prm

>  <Rbt.Receptor>
prm/pocket_docking_7.prm

>  <SCORE>
-14.8106

>  <SCORE.INTER>
0.307061

>  <SCORE.INTER.CONST>
1

>  <SCORE.INTER.POLAR>
0

>  <SCORE.INTER.ROT>
15

>  <SCORE.INTER.SOLV>
10.8393

>  <SCORE.INTER.VDW>
-17.0084

>  <SCORE.INTER.norm>
0.00590502

>  <SCORE.INTRA>
-15.1177

>  <SCORE.INTRA.DIHEDRAL>
-36.8072

>  <SCORE.INTRA.DIHEDRAL.0>
47.8724

>  <SCORE.INTRA.POLAR>
0

>  <SCORE.INTRA.POLAR.0>
0

>  <SCORE.INTRA.REPUL>
0

>  <SCORE.INTRA.REPUL.0>
0

>  <SCORE.INTRA.SOLV>
1.69207

>  <SCORE.INTRA.SOLV.lig_0>
-115.677

>  <SCORE.INTRA.VDW>
2.43986

>  <SCORE.INTRA.VDW.0>
-7.4833

>  <SCORE.INTRA.norm>
-0.290725

>  <SCORE.RESTR>
0

>  <SCORE.RESTR.CAVITY>
0

>  <SCORE.RESTR.norm>
0

>  <SCORE.SYSTEM>
0

>  <SCORE.SYSTEM.CONST>
0

>  <SCORE.SYSTEM.DIHEDRAL>
0

>  <SCORE.SYSTEM.SOLV>
0

>  <SCORE.SYSTEM.norm>
0

>  <SCORE.heavy>
52

>  <SCORE.norm>
-0.28482

>  <RMSD>
9.644

$$$$
2be0_lig
 OpenBabel11021811423D
libRbt.so/2013.1/901 2013/11/27
 52 56  0  0  0  0  0  0  0  0999 V2000
   40.1722    4.6749   -0.2693 C   0  0  2  0  0  0  0  0  0  0  0  0
   41.0177    4.3182   -1.3374 O   0  0  0  0  0  0  0  0  0  0  0  0
   44.4812    1.6527   -1.8565 C   0  0  2  0  0  0  0  0  0  0  0  0
   45.3871    0.4865   -1.6592 N   0  0  0  0  0  0  0  0  0  0  0  0
   40.4823    2.1387   -4.3698 C   0  0  2  0  0  0  0  0  0  0  0  0
   39.1409    1.6600   -4.5975 O   0  0  0  0  0  0  0  0  0  0  0  0
   42.3666   -1.6953   -5.9339 C   0  0  1  0  0  0  0  0  0  0  0  0
   43.4609    6.6482   -5.1180 C   0  0  0  0  0  0  0  0  0  0  0  0
   38.8731    3.7709   -0.2401 C   0  0  2  0  0  0  0  0  0  0  0  0
   39.2537    2.3569   -0.2180 N   0  0  0  0  0  0  0  0  0  0  0  0
   44.2640    2.3885   -0.4566 C   0  0  0  0  0  0  0  0  0  0  0  0
   41.4160    1.2601   -5.2176 C   0  0  2  0  0  0  0  0  0  0  0  0
   41.3907    1.9177   -6.5608 O   0  0  0  0  0  0  0  0  0  0  0  0
   43.3337   -0.6363   -6.6985 C   0  0  2  0  0  0  0  0  0  0  0  0
   42.8128   -0.4263   -8.0878 N   0  0  0  0  0  0  0  0  0  0  0  0
   42.0804    6.8801   -5.4265 C   0  0  0  0  0  0  0  0  0  0  0  0
   41.2572    7.5655   -4.4950 N   0  0  0  0  0  0  0  0  0  0  0  0
   37.9462    4.1213   -1.4946 C   0  0  1  0  0  0  0  0  0  0  0  0
   36.7924    3.2960   -1.4540 O   0  0  0  0  0  0  0  0  0  0  0  0
   43.2624    3.6681   -0.6274 C   0  0  2  0  0  0  0  0  0  0  0  0
   43.0605    4.3404    0.6251 N   0  0  0  0  0  0  0  0  0  0  0  0
   40.7121   -0.0951   -5.0155 C   0  0  2  0  0  0  0  0  0  0  0  0
   41.0413   -1.1348   -5.9249 O   0  0  0  0  0  0  0  0  0  0  0  0
   44.7716   -1.2368   -6.7280 C   0  0  1  0  0  0  0  0  0  0  0  0
   45.1841   -1.3834   -5.3224 O   0  0  0  0  0  0  0  0  0  0  0  0
   41.7364    8.0447   -3.2425 C   0  0  0  0  0  0  0  0  0  0  0  0
   37.5799    5.6327   -1.4329 C   0  0  2  0  0  0  0  0  0  0  0  0
   36.7207    6.0199   -2.5779 O   0  0  0  0  0  0  0  0  0  0  0  0
   41.8671    3.1854   -1.2016 C   0  0  2  0  0  0  0  0  0  0  0  0
   39.2109    0.2793   -5.0088 C   0  0  1  0  0  0  0  0  0  0  0  0
   44.7589   -2.6738   -7.4899 C   0  0  2  0  0  0  0  0  0  0  0  0
   44.3471   -2.5351   -8.8954 O   0  0  0  0  0  0  0  0  0  0  0  0
   43.0923    7.8457   -2.8832 C   0  0  0  0  0  0  0  0  0  0  0  0
   38.8860    6.5162   -1.4626 C   0  0  2  0  0  0  0  0  0  0  0  0
   39.6838    6.0886   -0.3243 O   0  0  0  0  0  0  0  0  0  0  0  0
   42.1371    2.4624   -2.5667 C   0  0  2  0  0  0  0  0  0  0  0  0
   40.8317    2.0884   -2.9904 O   0  0  0  0  0  0  0  0  0  0  0  0
   38.4127   -0.5307   -3.9885 C   0  0  0  0  0  0  0  0  0  0  0  0
   38.3280   -1.9122   -4.2446 O   0  0  0  0  0  0  0  0  0  0  0  0
   43.7604   -3.6667   -6.7347 C   0  0  1  0  0  0  0  0  0  0  0  0
   42.3891   -3.0248   -6.6874 O   0  0  0  0  0  0  0  0  0  0  0  0
   43.9925    7.1350   -3.8206 C   0  0  0  0  0  0  0  0  0  0  0  0
   38.4786    7.9280   -1.3803 C   0  0  0  0  0  0  0  0  0  0  0  0
   39.5628    8.7103   -1.4528 O   0  0  0  0  0  0  0  0  0  0  0  0
   43.0872    1.2087   -2.3594 C   0  0  1  0  0  0  0  0  0  0  0  0
   43.3249    0.5855   -3.5786 O   0  0  0  0  0  0  0  0  0  0  0  0
   41.6585    3.3368   -6.8936 C   0  0  0  0  0  0  0  0  0  0  0  0
   43.7811   -5.0122   -7.5098 C   0  0  0  0  0  0  0  0  0  0  0  0
   42.8909   -5.9654   -6.8952 N   0  0  0  0  0  0  0  0  0  0  0  0
   43.0962    3.6405   -6.4600 C   0  0  0  0  0  0  0  0  0  0  0  0
   43.5521    4.9158   -7.1022 N   0  0  0  0  0  0  0  0  0  0  0  0
   44.3691    5.8712   -6.1913 C   0  0  0  0  0  0  0  0  0  0  0  0
  1  2  1  6  0  0  0
  1  9  1  0  0  0  0
  1 35  1  0  0  0  0
  3  4  1  1  0  0  0
  3 11  1  0  0  0  0
  3 45  1  0  0  0  0
  5  6  1  0  0  0  0
  5 12  1  0  0  0  0
  5 37  1  1  0  0  0
  6 30  1  0  0  0  0
  7 14  1  0  0  0  0
  7 41  1  0  0  0  0
  7 23  1  6  0  0  0
  8 16  2  0  0  0  0
  8 42  1  0  0  0  0
  9 10  1  6  0  0  0
  9 18  1  0  0  0  0
 11 20  1  0  0  0  0
 12 13  1  6  0  0  0
 12 22  1  0  0  0  0
 13 47  1  0  0  0  0
 14 15  1  6  0  0  0
 14 24  1  0  0  0  0
 16 17  1  0  0  0  0
 17 26  2  0  0  0  0
 18 19  1  1  0  0  0
 18 27  1  0  0  0  0
 20 21  1  1  0  0  0
 20 29  1  0  0  0  0
 22 23  1  6  0  0  0
 22 30  1  0  0  0  0
 24 25  1  1  0  0  0
 24 31  1  0  0  0  0
 26 33  1  0  0  0  0
 27 28  1  6  0  0  0
 27 34  1  0  0  0  0
 29  2  1  6  0  0  0
 29 36  1  0  0  0  0
 30 38  1  1  0  0  0
 31 32  1  6  0  0  0
 31 40  1  0  0  0  0
 33 42  2  0  0  0  0
 34 35  1  0  0  0  0
 34 43  1  1  0  0  0
 36 37  1  1  0  0  0
 36 45  1  0  0  0  0
 38 39  1  0  0  0  0
 40 41  1  0  0  0  0
 40 48  1  6  0  0  0
 43 44  1  0  0  0  0
 45 46  1  6  0  0  0
 47 50  1  0  0  0  0
 48 49  1  0  0  0  0
 50 51  1  0  0  0  0
 51 52  1  0  0  0  0
 52  8  1  0  0  0  0
M  END
>  <CHROM.1>
-79.86885953,177.18580513,-76.88475749,53.07317024,60.76113335,66.48233618
-91.49647502,178.08691870,-177.73190905,143.03310635,-179.48781938,164.35993713
138.61895749,-74.88532598,-26.70830985,41.60019951,2.31706608,-3.93107492
1.93989191,0.59230468,0.30199463

>  <Name>
2be0_lig

>  <RI>
0

>  <Rbt.Current_Directory>
/home/itssahil/PROJECTS/Mol_Feturizer/New_Systems/rnas/2be0

>  <Rbt.Executable>
rbdock ($Id: //depot/dev/client3/rdock/2013.1/src/exe/rbdock.cxx#4 $)

>  <Rbt.Library>
libRbt.so (2013.1, Build901 2013/11/27)

>  <Rbt.Parameter_File>
/export/apps/rDock/src/rDock_2013.1_src/data/scripts/dock_solv.prm

>  <Rbt.Receptor>
prm/pocket_docking_6.prm

>  <SCORE>
-18.8159

>  <SCORE.INTER>
-4.17477

>  <SCORE.INTER.CONST>
1

>  <SCORE.INTER.POLAR>
0

>  <SCORE.INTER.ROT>
15

>  <SCORE.INTER.SOLV>
14.6574

>  <SCORE.INTER.VDW>
-21.269

>  <SCORE.INTER.norm>
-0.080284

>  <SCORE.INTRA>
-14.6412

>  <SCORE.INTRA.DIHEDRAL>
-32.3428

>  <SCORE.INTRA.DIHEDRAL.0>
47.8724

>  <SCORE.INTRA.POLAR>
0

>  <SCORE.INTRA.POLAR.0>
0

>  <SCORE.INTRA.REPUL>
0

>  <SCORE.INTRA.REPUL.0>
0

>  <SCORE.INTRA.SOLV>
1.74289

>  <SCORE.INTRA.SOLV.lig_0>
-115.677

>  <SCORE.INTRA.VDW>
0.658778

>  <SCORE.INTRA.VDW.0>
-7.4833

>  <SCORE.INTRA.norm>
-0.281561

>  <SCORE.RESTR>
0

>  <SCORE.RESTR.CAVITY>
0

>  <SCORE.RESTR.norm>
0

>  <SCORE.SYSTEM>
0

>  <SCORE.SYSTEM.CONST>
0

>  <SCORE.SYSTEM.DIHEDRAL>
0

>  <SCORE.SYSTEM.SOLV>
0

>  <SCORE.SYSTEM.norm>
0

>  <SCORE.heavy>
52

>  <SCORE.norm>
-0.361845

>  <RMSD>
9.663

$$$$
2be0_lig
 OpenBabel11021811423D
libRbt.so/2013.1/901 2013/11/27
 52 56  0  0  0  0  0  0  0  0999 V2000
   43.4400   -0.0115   -2.6452 C   0  0  2  0  0  0  0  0  0  0  0  0
   42.9959    1.3230   -2.7142 O   0  0  0  0  0  0  0  0  0  0  0  0
   39.9706    1.2448    0.4815 C   0  0  2  0  0  0  0  0  0  0  0  0
   38.9238    1.7284    1.4249 N   0  0  0  0  0  0  0  0  0  0  0  0
   39.4245    2.1299   -3.7291 C   0  0  2  0  0  0  0  0  0  0  0  0
   39.0971    2.0696   -5.1325 O   0  0  0  0  0  0  0  0  0  0  0  0
   42.6732    5.3349   -4.7305 C   0  0  1  0  0  0  0  0  0  0  0  0
   38.2154    9.3602    0.6806 C   0  0  0  0  0  0  0  0  0  0  0  0
   44.7123   -0.2402   -3.5588 C   0  0  2  0  0  0  0  0  0  0  0  0
   45.7549    0.7263   -3.2073 N   0  0  0  0  0  0  0  0  0  0  0  0
   41.2946    2.1144    0.6796 C   0  0  0  0  0  0  0  0  0  0  0  0
   40.0656    3.5049   -3.4825 C   0  0  2  0  0  0  0  0  0  0  0  0
   38.8905    4.4045   -3.2649 O   0  0  0  0  0  0  0  0  0  0  0  0
   42.8121    6.9076   -5.1158 C   0  0  2  0  0  0  0  0  0  0  0  0
   42.6117    7.0598   -6.5931 N   0  0  0  0  0  0  0  0  0  0  0  0
   38.2080   10.2674   -0.4293 C   0  0  0  0  0  0  0  0  0  0  0  0
   38.1076   11.6639   -0.1955 N   0  0  0  0  0  0  0  0  0  0  0  0
   44.2942   -0.1356   -5.0983 C   0  0  1  0  0  0  0  0  0  0  0  0
   45.4487   -0.3358   -5.8991 O   0  0  0  0  0  0  0  0  0  0  0  0
   42.4656    1.6239   -0.3490 C   0  0  2  0  0  0  0  0  0  0  0  0
   43.6633    2.3972   -0.1793 N   0  0  0  0  0  0  0  0  0  0  0  0
   40.8863    3.6185   -4.7811 C   0  0  2  0  0  0  0  0  0  0  0  0
   41.3590    4.9101   -5.1344 O   0  0  0  0  0  0  0  0  0  0  0  0
   44.2372    7.3788   -4.6960 C   0  0  1  0  0  0  0  0  0  0  0  0
   44.3149    7.2012   -3.2367 O   0  0  0  0  0  0  0  0  0  0  0  0
   38.0099   12.2265    1.1091 C   0  0  0  0  0  0  0  0  0  0  0  0
   43.1970   -1.2010   -5.3870 C   0  0  2  0  0  0  0  0  0  0  0  0
   42.7643   -1.1497   -6.8044 O   0  0  0  0  0  0  0  0  0  0  0  0
   41.9570    1.7544   -1.8436 C   0  0  2  0  0  0  0  0  0  0  0  0
   39.9637    2.9766   -5.8445 C   0  0  1  0  0  0  0  0  0  0  0  0
   45.3647    6.4874   -5.4576 C   0  0  2  0  0  0  0  0  0  0  0  0
   45.2927    6.6597   -6.9169 O   0  0  0  0  0  0  0  0  0  0  0  0
   38.0133   11.3795    2.2446 C   0  0  0  0  0  0  0  0  0  0  0  0
   41.9390   -0.9570   -4.4676 C   0  0  2  0  0  0  0  0  0  0  0  0
   42.4267   -1.0153   -3.0989 O   0  0  0  0  0  0  0  0  0  0  0  0
   40.6536    0.8935   -1.9812 C   0  0  2  0  0  0  0  0  0  0  0  0
   40.2985    1.0728   -3.3469 O   0  0  0  0  0  0  0  0  0  0  0  0
   40.7400    2.1440   -6.8634 C   0  0  0  0  0  0  0  0  0  0  0  0
   39.9540    1.4391   -7.7943 O   0  0  0  0  0  0  0  0  0  0  0  0
   45.1612    4.9460   -5.0895 C   0  0  1  0  0  0  0  0  0  0  0  0
   43.7513    4.5433   -5.4699 O   0  0  0  0  0  0  0  0  0  0  0  0
   38.1153    9.9141    2.0540 C   0  0  0  0  0  0  0  0  0  0  0  0
   40.9490   -2.0034   -4.7695 C   0  0  0  0  0  0  0  0  0  0  0  0
   40.3876   -1.7565   -5.9597 O   0  0  0  0  0  0  0  0  0  0  0  0
   39.5290    1.4158   -0.9912 C   0  0  1  0  0  0  0  0  0  0  0  0
   38.3850    0.6368   -1.1177 O   0  0  0  0  0  0  0  0  0  0  0  0
   38.8884    5.8548   -2.9602 C   0  0  0  0  0  0  0  0  0  0  0  0
   46.2535    4.1465   -5.8505 C   0  0  0  0  0  0  0  0  0  0  0  0
   47.5693    4.5486   -5.4195 N   0  0  0  0  0  0  0  0  0  0  0  0
   38.5993    6.0029   -1.4629 C   0  0  0  0  0  0  0  0  0  0  0  0
   38.4420    7.4551   -1.1265 N   0  0  0  0  0  0  0  0  0  0  0  0
   38.3314    7.7853    0.3864 C   0  0  0  0  0  0  0  0  0  0  0  0
  1  2  1  6  0  0  0
  1  9  1  0  0  0  0
  1 35  1  0  0  0  0
  3  4  1  1  0  0  0
  3 11  1  0  0  0  0
  3 45  1  0  0  0  0
  5  6  1  0  0  0  0
  5 12  1  0  0  0  0
  5 37  1  6  0  0  0
  6 30  1  0  0  0  0
  7 14  1  0  0  0  0
  7 41  1  0  0  0  0
  7 23  1  6  0  0  0
  8 16  2  0  0  0  0
  8 42  1  0  0  0  0
  9 10  1  1  0  0  0
  9 18  1  0  0  0  0
 11 20  1  0  0  0  0
 12 13  1  6  0  0  0
 12 22  1  0  0  0  0
 13 47  1  0  0  0  0
 14 15  1  6  0  0  0
 14 24  1  0  0  0  0
 16 17  1  0  0  0  0
 17 26  2  0  0  0  0
 18 19  1  6  0  0  0
 18 27  1  0  0  0  0
 20 21  1  6  0  0  0
 20 29  1  0  0  0  0
 22 23  1  6  0  0  0
 22 30  1  0  0  0  0
 24 25  1  1  0  0  0
 24 31  1  0  0  0  0
 26 33  1  0  0  0  0
 27 28  1  6  0  0  0
 27 34  1  0  0  0  0
 29  2  1  6  0  0  0
 29 36  1  0  0  0  0
 30 38  1  6  0  0  0
 31 32  1  6  0  0  0
 31 40  1  0  0  0  0
 33 42  2  0  0  0  0
 34 35  1  0  0  0  0
 34 43  1  1  0  0  0
 36 37  1  6  0  0  0
 36 45  1  0  0  0  0
 38 39  1  0  0  0  0
 40 41  1  0  0  0  0
 40 48  1  6  0  0  0
 43 44  1  0  0  0  0
 45 46  1  1  0  0  0
 47 50  1  0  0  0  0
 48 49  1  0  0  0  0
 50 51  1  0  0  0  0
 51 52  1  0  0  0  0
 52  8  1  0  0  0  0
M  END
>  <CHROM.1>
-172.88397758,-174.92726398,-172.44179846,179.00370981,-102.73269694,93.22927321
62.61892848,58.63252115,-73.32144907,-90.94438660,62.00593281,-174.06784064
-172.21388735,178.03635564,0.75080812,41.53529151,3.61749369,-3.25702665
1.01605500,-0.74938366,-3.04349241

>  <Name>
2be0_lig

>  <RI>
2.75444e+07

>  <Rbt.Current_Directory>
/home/itssahil/PROJECTS/Mol_Feturizer/New_Systems/rnas/2be0

>  <Rbt.Executable>
rbdock ($Id: //depot/dev/client3/rdock/2013.1/src/exe/rbdock.cxx#4 $)

>  <Rbt.Library>
libRbt.so (2013.1, Build901 2013/11/27)

>  <Rbt.Parameter_File>
/export/apps/rDock/src/rDock_2013.1_src/data/scripts/dock_solv.prm

>  <Rbt.Receptor>
prm/pocket_docking_5.prm

>  <SCORE>
-22.2899

>  <SCORE.INTER>
-7.22592

>  <SCORE.INTER.CONST>
1

>  <SCORE.INTER.POLAR>
-0.699346

>  <SCORE.INTER.ROT>
15

>  <SCORE.INTER.SOLV>
11.6555

>  <SCORE.INTER.VDW>
-19.9713

>  <SCORE.INTER.norm>
-0.13896

>  <SCORE.INTRA>
-15.0716

>  <SCORE.INTRA.DIHEDRAL>
-31.3418

>  <SCORE.INTRA.DIHEDRAL.0>
47.8724

>  <SCORE.INTRA.POLAR>
0

>  <SCORE.INTRA.POLAR.0>
0

>  <SCORE.INTRA.REPUL>
0

>  <SCORE.INTRA.REPUL.0>
0

>  <SCORE.INTRA.SOLV>
-2.37123

>  <SCORE.INTRA.SOLV.lig_0>
-115.677

>  <SCORE.INTRA.VDW>
1.78494

>  <SCORE.INTRA.VDW.0>
-7.4833

>  <SCORE.INTRA.norm>
-0.289838

>  <SCORE.RESTR>
0.00756102

>  <SCORE.RESTR.CAVITY>
0.00756102

>  <SCORE.RESTR.norm>
0.000145404

>  <SCORE.SYSTEM>
0

>  <SCORE.SYSTEM.CONST>
0

>  <SCORE.SYSTEM.DIHEDRAL>
0

>  <SCORE.SYSTEM.SOLV>
0

>  <SCORE.SYSTEM.norm>
0

>  <SCORE.heavy>
52

>  <SCORE.norm>
-0.428653

>  <RMSD>
9.664

$$$$
2be0_lig
 OpenBabel11021811423D
libRbt.so/2013.1/901 2013/11/27
 52 56  0  0  0  0  0  0  0  0999 V2000
   38.2732    0.1556   -7.7560 C   0  0  2  0  0  0  0  0  0  0  0  0
   38.5372   -1.1653   -8.1665 O   0  0  0  0  0  0  0  0  0  0  0  0
   41.2775   -2.8324  -11.1802 C   0  0  2  0  0  0  0  0  0  0  0  0
   41.8961   -3.0985  -12.5091 N   0  0  0  0  0  0  0  0  0  0  0  0
   41.9839    0.9719   -8.8376 C   0  0  2  0  0  0  0  0  0  0  0  0
   42.8629    0.2317   -7.9660 O   0  0  0  0  0  0  0  0  0  0  0  0
   40.8302    3.8358   -5.4169 C   0  0  1  0  0  0  0  0  0  0  0  0
   47.7088    4.3119   -8.3116 C   0  0  0  0  0  0  0  0  0  0  0  0
   37.4818    0.1826   -6.3854 C   0  0  2  0  0  0  0  0  0  0  0  0
   38.2089   -0.5927   -5.3780 N   0  0  0  0  0  0  0  0  0  0  0  0
   39.7271   -3.2076  -11.2408 C   0  0  0  0  0  0  0  0  0  0  0  0
   41.7896    2.3564   -8.1989 C   0  0  2  0  0  0  0  0  0  0  0  0
   42.9658    3.1374   -8.6929 O   0  0  0  0  0  0  0  0  0  0  0  0
   40.6100    4.8164   -6.6941 C   0  0  2  0  0  0  0  0  0  0  0  0
   41.8850    5.5596   -6.9546 N   0  0  0  0  0  0  0  0  0  0  0  0
   47.5199    3.6452   -7.0567 C   0  0  0  0  0  0  0  0  0  0  0  0
   47.9844    4.2526   -5.8607 N   0  0  0  0  0  0  0  0  0  0  0  0
   35.9987   -0.3705   -6.6102 C   0  0  1  0  0  0  0  0  0  0  0  0
   35.3095   -0.3451   -5.3699 O   0  0  0  0  0  0  0  0  0  0  0  0
   39.0069   -2.9162   -9.8034 C   0  0  2  0  0  0  0  0  0  0  0  0
   37.6115   -3.2519   -9.8441 N   0  0  0  0  0  0  0  0  0  0  0  0
   41.7222    1.9267   -6.7212 C   0  0  2  0  0  0  0  0  0  0  0  0
   41.9085    2.9414   -5.7453 O   0  0  0  0  0  0  0  0  0  0  0  0
   39.4527    5.8009   -6.3473 C   0  0  1  0  0  0  0  0  0  0  0  0
   38.2577    4.9692   -6.1293 O   0  0  0  0  0  0  0  0  0  0  0  0
   48.6437    5.5147   -5.8376 C   0  0  0  0  0  0  0  0  0  0  0  0
   35.2972    0.5146   -7.6811 C   0  0  2  0  0  0  0  0  0  0  0  0
   33.9135    0.0460   -7.9363 O   0  0  0  0  0  0  0  0  0  0  0  0
   39.1742   -1.3886   -9.4186 C   0  0  2  0  0  0  0  0  0  0  0  0
   42.7552    0.7780   -6.6353 C   0  0  1  0  0  0  0  0  0  0  0  0
   39.8278    6.6525   -5.0131 C   0  0  2  0  0  0  0  0  0  0  0  0
   41.0216    7.4860   -5.2236 O   0  0  0  0  0  0  0  0  0  0  0  0
   48.8577    6.2210   -7.0468 C   0  0  0  0  0  0  0  0  0  0  0  0
   36.1001    0.4752   -9.0380 C   0  0  2  0  0  0  0  0  0  0  0  0
   37.4416    0.9395   -8.7224 O   0  0  0  0  0  0  0  0  0  0  0  0
   40.7093   -1.0706   -9.3834 C   0  0  2  0  0  0  0  0  0  0  0  0
   40.7395    0.3043   -9.0201 O   0  0  0  0  0  0  0  0  0  0  0  0
   42.2906   -0.3567   -5.7239 C   0  0  0  0  0  0  0  0  0  0  0  0
   42.2377   -0.0483   -4.3516 O   0  0  0  0  0  0  0  0  0  0  0  0
   40.0830    5.6486   -3.7965 C   0  0  1  0  0  0  0  0  0  0  0  0
   41.1798    4.6820   -4.1932 O   0  0  0  0  0  0  0  0  0  0  0  0
   48.3924    5.6293   -8.3226 C   0  0  0  0  0  0  0  0  0  0  0  0
   35.4035    1.3437  -10.0006 C   0  0  0  0  0  0  0  0  0  0  0  0
   35.9032    1.1421  -11.2263 O   0  0  0  0  0  0  0  0  0  0  0  0
   41.3698   -1.3352  -10.8016 C   0  0  1  0  0  0  0  0  0  0  0  0
   42.7309   -1.0589  -10.7512 O   0  0  0  0  0  0  0  0  0  0  0  0
   43.2941    3.5202  -10.0865 C   0  0  0  0  0  0  0  0  0  0  0  0
   40.4461    6.5136   -2.5590 C   0  0  0  0  0  0  0  0  0  0  0  0
   39.3122    7.2982   -2.1380 N   0  0  0  0  0  0  0  0  0  0  0  0
   44.6854    4.1613  -10.0645 C   0  0  0  0  0  0  0  0  0  0  0  0
   45.6843    3.1680   -9.5524 N   0  0  0  0  0  0  0  0  0  0  0  0
   47.1719    3.6017   -9.6486 C   0  0  0  0  0  0  0  0  0  0  0  0
  1  2  1  6  0  0  0
  1  9  1  0  0  0  0
  1 35  1  0  0  0  0
  3  4  1  6  0  0  0
  3 11  1  0  0  0  0
  3 45  1  0  0  0  0
  5  6  1  0  0  0  0
  5 12  1  0  0  0  0
  5 37  1  1  0  0  0
  6 30  1  0  0  0  0
  7 14  1  0  0  0  0
  7 41  1  0  0  0  0
  7 23  1  6  0  0  0
  8 16  2  0  0  0  0
  8 42  1  0  0  0  0
  9 10  1  1  0  0  0
  9 18  1  0  0  0  0
 11 20  1  0  0  0  0
 12 13  1  1  0  0  0
 12 22  1  0  0  0  0
 13 47  1  0  0  0  0
 14 15  1  1  0  0  0
 14 24  1  0  0  0  0
 16 17  1  0  0  0  0
 17 26  2  0  0  0  0
 18 19  1  1  0  0  0
 18 27  1  0  0  0  0
 20 21  1  6  0  0  0
 20 29  1  0  0  0  0
 22 23  1  1  0  0  0
 22 30  1  0  0  0  0
 24 25  1  1  0  0  0
 24 31  1  0  0  0  0
 26 33  1  0  0  0  0
 27 28  1  6  0  0  0
 27 34  1  0  0  0  0
 29  2  1  1  0  0  0
 29 36  1  0  0  0  0
 30 38  1  1  0  0  0
 31 32  1  6  0  0  0
 31 40  1  0  0  0  0
 33 42  2  0  0  0  0
 34 35  1  0  0  0  0
 34 43  1  6  0  0  0
 36 37  1  6  0  0  0
 36 45  1  0  0  0  0
 38 39  1  0  0  0  0
 40 41  1  0  0  0  0
 40 48  1  1  0  0  0
 43 44  1  0  0  0  0
 45 46  1  1  0  0  0
 47 50  1  0  0  0  0
 48 49  1  0  0  0  0
 50 51  1  0  0  0  0
 51 52  1  0  0  0  0
 52  8  1  0  0  0  0
M  END
>  <CHROM.1>
176.39980644,-50.05146136,-70.45635157,64.30375247,-173.23075264,78.77079155
-165.26707261,174.65815273,-168.42355420,177.95243619,67.06177069,60.52470229
172.11434258,93.08637926,51.89820025,40.99107286,1.93781415,-7.63256349,2.53469415
-0.23880406,-2.46759425

>  <Name>
2be0_lig

>  <RI>
0

>  <Rbt.Current_Directory>
/home/itssahil/PROJECTS/Mol_Feturizer/New_Systems/rnas/2be0

>  <Rbt.Executable>
rbdock ($Id: //depot/dev/client3/rdock/2013.1/src/exe/rbdock.cxx#4 $)

>  <Rbt.Library>
libRbt.so (2013.1, Build901 2013/11/27)

>  <Rbt.Parameter_File>
/export/apps/rDock/src/rDock_2013.1_src/data/scripts/dock_solv.prm

>  <Rbt.Receptor>
prm/pocket_docking_6.prm

>  <SCORE>
-18.9929

>  <SCORE.INTER>
1.04673

>  <SCORE.INTER.CONST>
1

>  <SCORE.INTER.POLAR>
0

>  <SCORE.INTER.ROT>
15

>  <SCORE.INTER.SOLV>
8.08936

>  <SCORE.INTER.VDW>
-15.5986

>  <SCORE.INTER.norm>
0.0201295

>  <SCORE.INTRA>
-20.0817

>  <SCORE.INTRA.DIHEDRAL>
-41.1751

>  <SCORE.INTRA.DIHEDRAL.0>
47.8724

>  <SCORE.INTRA.POLAR>
0

>  <SCORE.INTRA.POLAR.0>
0

>  <SCORE.INTRA.REPUL>
0

>  <SCORE.INTRA.REPUL.0>
0

>  <SCORE.INTRA.SOLV>
-1.51713

>  <SCORE.INTRA.SOLV.lig_0>
-115.677

>  <SCORE.INTRA.VDW>
1.2644

>  <SCORE.INTRA.VDW.0>
-7.4833

>  <SCORE.INTRA.norm>
-0.386187

>  <SCORE.RESTR>
0.0421296

>  <SCORE.RESTR.CAVITY>
0.0421296

>  <SCORE.RESTR.norm>
0.000810185

>  <SCORE.SYSTEM>
0

>  <SCORE.SYSTEM.CONST>
0

>  <SCORE.SYSTEM.DIHEDRAL>
0

>  <SCORE.SYSTEM.SOLV>
0

>  <SCORE.SYSTEM.norm>
0

>  <SCORE.heavy>
52

>  <SCORE.norm>
-0.365248

>  <RMSD>
9.669

$$$$
2be0_lig
 OpenBabel11021811423D
libRbt.so/2013.1/901 2013/11/27
 52 56  0  0  0  0  0  0  0  0999 V2000
   41.0731    0.7053   -3.0658 C   0  0  2  0  0  0  0  0  0  0  0  0
   42.3011    1.3495   -2.8208 O   0  0  0  0  0  0  0  0  0  0  0  0
   40.9733    5.5436   -2.6882 C   0  0  2  0  0  0  0  0  0  0  0  0
   40.9742    6.9986   -2.3684 N   0  0  0  0  0  0  0  0  0  0  0  0
   43.3565    3.4206   -6.0445 C   0  0  2  0  0  0  0  0  0  0  0  0
   43.3912    2.1814   -6.7817 O   0  0  0  0  0  0  0  0  0  0  0  0
   47.8383    4.1188   -6.6527 C   0  0  1  0  0  0  0  0  0  0  0  0
   43.7665    9.0606   -9.4602 C   0  0  0  0  0  0  0  0  0  0  0  0
   41.2942   -0.7880   -3.5422 C   0  0  2  0  0  0  0  0  0  0  0  0
   42.1273   -1.4998   -2.5707 N   0  0  0  0  0  0  0  0  0  0  0  0
   41.0665    4.7099   -1.3301 C   0  0  0  0  0  0  0  0  0  0  0  0
   44.6112    4.2113   -6.4479 C   0  0  2  0  0  0  0  0  0  0  0  0
   44.1909    4.9214   -7.6954 O   0  0  0  0  0  0  0  0  0  0  0  0
   48.8445    4.5557   -7.8519 C   0  0  2  0  0  0  0  0  0  0  0  0
   49.4316    3.3188   -8.4611 N   0  0  0  0  0  0  0  0  0  0  0  0
   44.1352    8.8985   -8.0845 C   0  0  0  0  0  0  0  0  0  0  0  0
   44.9551    9.8725   -7.4568 N   0  0  0  0  0  0  0  0  0  0  0  0
   41.9410   -0.7955   -5.0042 C   0  0  1  0  0  0  0  0  0  0  0  0
   42.1378   -2.1414   -5.4090 O   0  0  0  0  0  0  0  0  0  0  0  0
   41.0824    3.1054   -1.6387 C   0  0  2  0  0  0  0  0  0  0  0  0
   41.1639    2.3438   -0.4243 N   0  0  0  0  0  0  0  0  0  0  0  0
   45.6098    3.0415   -6.5326 C   0  0  2  0  0  0  0  0  0  0  0  0
   46.8233    3.2786   -7.2309 O   0  0  0  0  0  0  0  0  0  0  0  0
   49.9583    5.4562   -7.2375 C   0  0  1  0  0  0  0  0  0  0  0  0
   49.2740    6.6382   -6.6880 O   0  0  0  0  0  0  0  0  0  0  0  0
   45.4443   11.0265   -8.1329 C   0  0  0  0  0  0  0  0  0  0  0  0
   40.9890   -0.0329   -5.9708 C   0  0  2  0  0  0  0  0  0  0  0  0
   41.5397   -0.0029   -7.3474 O   0  0  0  0  0  0  0  0  0  0  0  0
   42.3124    2.7499   -2.5716 C   0  0  2  0  0  0  0  0  0  0  0  0
   44.7620    1.8898   -7.1231 C   0  0  1  0  0  0  0  0  0  0  0  0
   50.7524    4.6429   -6.0739 C   0  0  2  0  0  0  0  0  0  0  0  0
   51.4386    3.4597   -6.6158 O   0  0  0  0  0  0  0  0  0  0  0  0
   45.1119   11.2408   -9.4933 C   0  0  0  0  0  0  0  0  0  0  0  0
   40.7809    1.4513   -5.4796 C   0  0  2  0  0  0  0  0  0  0  0  0
   40.2459    1.3547   -4.1308 O   0  0  0  0  0  0  0  0  0  0  0  0
   42.1789    3.6005   -3.8822 C   0  0  2  0  0  0  0  0  0  0  0  0
   43.3132    3.1956   -4.6391 O   0  0  0  0  0  0  0  0  0  0  0  0
   45.0992    0.5375   -6.4972 C   0  0  0  0  0  0  0  0  0  0  0  0
   45.1640    0.5202   -5.0912 O   0  0  0  0  0  0  0  0  0  0  0  0
   49.7192    4.1913   -4.9419 C   0  0  1  0  0  0  0  0  0  0  0  0
   48.6307    3.3599   -5.5888 O   0  0  0  0  0  0  0  0  0  0  0  0
   44.2594   10.2527  -10.1942 C   0  0  0  0  0  0  0  0  0  0  0  0
   39.8589    2.1125   -6.4171 C   0  0  0  0  0  0  0  0  0  0  0  0
   40.4815    2.3188   -7.5843 O   0  0  0  0  0  0  0  0  0  0  0  0
   42.1976    5.1516   -3.5488 C   0  0  1  0  0  0  0  0  0  0  0  0
   42.0682    5.8909   -4.7185 O   0  0  0  0  0  0  0  0  0  0  0  0
   43.7302    4.3338   -8.9756 C   0  0  0  0  0  0  0  0  0  0  0  0
   50.5286    3.4135   -3.8688 C   0  0  0  0  0  0  0  0  0  0  0  0
   51.0724    2.1995   -4.4247 N   0  0  0  0  0  0  0  0  0  0  0  0
   43.6019    5.4825   -9.9813 C   0  0  0  0  0  0  0  0  0  0  0  0
   42.8209    6.6023   -9.3626 N   0  0  0  0  0  0  0  0  0  0  0  0
   42.8367    7.9435  -10.1444 C   0  0  0  0  0  0  0  0  0  0  0  0
  1  2  1  6  0  0  0
  1  9  1  0  0  0  0
  1 35  1  0  0  0  0
  3  4  1  1  0  0  0
  3 11  1  0  0  0  0
  3 45  1  0  0  0  0
  5  6  1  0  0  0  0
  5 12  1  0  0  0  0
  5 37  1  1  0  0  0
  6 30  1  0  0  0  0
  7 14  1  0  0  0  0
  7 41  1  0  0  0  0
  7 23  1  6  0  0  0
  8 16  2  0  0  0  0
  8 42  1  0  0  0  0
  9 10  1  1  0  0  0
  9 18  1  0  0  0  0
 11 20  1  0  0  0  0
 12 13  1  6  0  0  0
 12 22  1  0  0  0  0
 13 47  1  0  0  0  0
 14 15  1  1  0  0  0
 14 24  1  0  0  0  0
 16 17  1  0  0  0  0
 17 26  2  0  0  0  0
 18 19  1  6  0  0  0
 18 27  1  0  0  0  0
 20 21  1  1  0  0  0
 20 29  1  0  0  0  0
 22 23  1  6  0  0  0
 22 30  1  0  0  0  0
 24 25  1  1  0  0  0
 24 31  1  0  0  0  0
 26 33  1  0  0  0  0
 27 28  1  6  0  0  0
 27 34  1  0  0  0  0
 29  2  1  6  0  0  0
 29 36  1  0  0  0  0
 30 38  1  1  0  0  0
 31 32  1  6  0  0  0
 31 40  1  0  0  0  0
 33 42  2  0  0  0  0
 34 35  1  0  0  0  0
 34 43  1  6  0  0  0
 36 37  1  6  0  0  0
 36 45  1  0  0  0  0
 38 39  1  0  0  0  0
 40 41  1  0  0  0  0
 40 48  1  1  0  0  0
 43 44  1  0  0  0  0
 45 46  1  6  0  0  0
 47 50  1  0  0  0  0
 48 49  1  0  0  0  0
 50 51  1  0  0  0  0
 51 52  1  0  0  0  0
 52  8  1  0  0  0  0
M  END
>  <CHROM.1>
171.01059650,-115.81053784,-162.54732372,-60.49837279,-172.67205702,72.10992611
40.74272136,-68.54951779,-71.13345903,160.96632822,-64.68050660,-49.14673253
168.58901270,-105.68022117,-18.40791786,44.29659831,3.79850570,-5.88467470
-2.30295123,0.13880516,-0.47891561

>  <Name>
2be0_lig

>  <RI>
0

>  <Rbt.Current_Directory>
/home/itssahil/PROJECTS/Mol_Feturizer/New_Systems/rnas/2be0

>  <Rbt.Executable>
rbdock ($Id: //depot/dev/client3/rdock/2013.1/src/exe/rbdock.cxx#4 $)

>  <Rbt.Library>
libRbt.so (2013.1, Build901 2013/11/27)

>  <Rbt.Parameter_File>
/export/apps/rDock/src/rDock_2013.1_src/data/scripts/dock_solv.prm

>  <Rbt.Receptor>
prm/pocket_docking_4.prm

>  <SCORE>
-23.8251

>  <SCORE.INTER>
-9.79358

>  <SCORE.INTER.CONST>
1

>  <SCORE.INTER.POLAR>
-0.959166

>  <SCORE.INTER.ROT>
15

>  <SCORE.INTER.SOLV>
12.8841

>  <SCORE.INTER.VDW>
-21.2265

>  <SCORE.INTER.norm>
-0.188338

>  <SCORE.INTRA>
-14.0316

>  <SCORE.INTRA.DIHEDRAL>
-31.1334

>  <SCORE.INTRA.DIHEDRAL.0>
47.8724

>  <SCORE.INTRA.POLAR>
0

>  <SCORE.INTRA.POLAR.0>
0

>  <SCORE.INTRA.REPUL>
0.0785212

>  <SCORE.INTRA.REPUL.0>
0

>  <SCORE.INTRA.SOLV>
0.962478

>  <SCORE.INTRA.SOLV.lig_0>
-115.677

>  <SCORE.INTRA.VDW>
0.661292

>  <SCORE.INTRA.VDW.0>
-7.4833

>  <SCORE.INTRA.norm>
-0.269838

>  <SCORE.RESTR>
0

>  <SCORE.RESTR.CAVITY>
0

>  <SCORE.RESTR.norm>
0

>  <SCORE.SYSTEM>
0

>  <SCORE.SYSTEM.CONST>
0

>  <SCORE.SYSTEM.DIHEDRAL>
0

>  <SCORE.SYSTEM.SOLV>
0

>  <SCORE.SYSTEM.norm>
0

>  <SCORE.heavy>
52

>  <SCORE.norm>
-0.458176

>  <RMSD>
9.672

$$$$
2be0_lig
 OpenBabel11021811423D
libRbt.so/2013.1/901 2013/11/27
 52 56  0  0  0  0  0  0  0  0999 V2000
   41.8894    3.9133   -7.5806 C   0  0  2  0  0  0  0  0  0  0  0  0
   41.6654    2.5321   -7.7385 O   0  0  0  0  0  0  0  0  0  0  0  0
   40.1543    0.5395  -11.3602 C   0  0  2  0  0  0  0  0  0  0  0  0
   40.1204    0.0169  -12.7550 N   0  0  0  0  0  0  0  0  0  0  0  0
   42.3084   -0.0548   -6.8541 C   0  0  2  0  0  0  0  0  0  0  0  0
   43.5918   -0.3453   -6.2635 O   0  0  0  0  0  0  0  0  0  0  0  0
   40.6530   -4.1721   -5.8460 C   0  0  1  0  0  0  0  0  0  0  0  0
   38.9524    1.8202   -0.3760 C   0  0  0  0  0  0  0  0  0  0  0  0
   42.8188    4.2044   -6.3327 C   0  0  2  0  0  0  0  0  0  0  0  0
   44.0597    3.4355   -6.4491 N   0  0  0  0  0  0  0  0  0  0  0  0
   40.4505    2.1077  -11.3967 C   0  0  0  0  0  0  0  0  0  0  0  0
   41.3175   -1.0854   -6.2897 C   0  0  2  0  0  0  0  0  0  0  0  0
   40.8794   -0.4766   -4.9955 O   0  0  0  0  0  0  0  0  0  0  0  0
   39.3686   -3.2272   -5.5318 C   0  0  2  0  0  0  0  0  0  0  0  0
   39.3790   -2.8708   -4.0763 N   0  0  0  0  0  0  0  0  0  0  0  0
   40.1258    1.9172    0.4416 C   0  0  0  0  0  0  0  0  0  0  0  0
   40.2177    1.1517    1.6335 N   0  0  0  0  0  0  0  0  0  0  0  0
   42.0295    3.8659   -4.9843 C   0  0  1  0  0  0  0  0  0  0  0  0
   42.8815    4.1261   -3.8795 O   0  0  0  0  0  0  0  0  0  0  0  0
   40.5099    2.7184   -9.8823 C   0  0  2  0  0  0  0  0  0  0  0  0
   40.7737    4.1296   -9.9014 N   0  0  0  0  0  0  0  0  0  0  0  0
   42.2398   -2.3191   -6.2817 C   0  0  2  0  0  0  0  0  0  0  0  0
   41.8305   -3.4252   -5.4908 O   0  0  0  0  0  0  0  0  0  0  0  0
   38.0837   -4.0291   -5.8994 C   0  0  1  0  0  0  0  0  0  0  0  0
   38.1725   -4.3080   -7.3422 O   0  0  0  0  0  0  0  0  0  0  0  0
   39.1855    0.2746    2.0731 C   0  0  0  0  0  0  0  0  0  0  0  0
   40.7374    4.7321   -4.9360 C   0  0  2  0  0  0  0  0  0  0  0  0
   39.9580    4.4581   -3.7045 O   0  0  0  0  0  0  0  0  0  0  0  0
   41.6362    1.9792   -9.0488 C   0  0  2  0  0  0  0  0  0  0  0  0
   43.6146   -1.7352   -5.8781 C   0  0  1  0  0  0  0  0  0  0  0  0
   38.0220   -5.4069   -5.0370 C   0  0  2  0  0  0  0  0  0  0  0  0
   37.9334   -5.1358   -3.5937 O   0  0  0  0  0  0  0  0  0  0  0  0
   38.0027    0.1366    1.3056 C   0  0  0  0  0  0  0  0  0  0  0  0
   39.8255    4.4285   -6.1865 C   0  0  2  0  0  0  0  0  0  0  0  0
   40.6431    4.7111   -7.3555 O   0  0  0  0  0  0  0  0  0  0  0  0
   41.3049    0.4465   -9.0532 C   0  0  2  0  0  0  0  0  0  0  0  0
   42.3597   -0.1076   -8.2761 O   0  0  0  0  0  0  0  0  0  0  0  0
   44.7701   -2.3885   -6.6345 C   0  0  0  0  0  0  0  0  0  0  0  0
   44.8571   -3.7884   -6.5159 O   0  0  0  0  0  0  0  0  0  0  0  0
   39.3247   -6.2813   -5.3389 C   0  0  1  0  0  0  0  0  0  0  0  0
   40.5479   -5.4493   -5.0132 O   0  0  0  0  0  0  0  0  0  0  0  0
   37.8576    0.9147    0.0535 C   0  0  0  0  0  0  0  0  0  0  0  0
   38.6348    5.2889   -6.0971 C   0  0  0  0  0  0  0  0  0  0  0  0
   39.0032    6.5723   -6.1963 O   0  0  0  0  0  0  0  0  0  0  0  0
   41.2854   -0.1191  -10.5355 C   0  0  1  0  0  0  0  0  0  0  0  0
   40.9805   -1.4750  -10.5231 O   0  0  0  0  0  0  0  0  0  0  0  0
   39.9856    0.6865   -4.7839 C   0  0  0  0  0  0  0  0  0  0  0  0
   39.2163   -7.5729   -4.4835 C   0  0  0  0  0  0  0  0  0  0  0  0
   40.3904   -8.3927   -4.6514 N   0  0  0  0  0  0  0  0  0  0  0  0
   39.8159    0.8583   -3.2710 C   0  0  0  0  0  0  0  0  0  0  0  0
   38.7115    1.8349   -3.0006 N   0  0  0  0  0  0  0  0  0  0  0  0
   38.8764    2.6969   -1.7199 C   0  0  0  0  0  0  0  0  0  0  0  0
  1  2  1  1  0  0  0
  1  9  1  0  0  0  0
  1 35  1  0  0  0  0
  3  4  1  6  0  0  0
  3 11  1  0  0  0  0
  3 45  1  0  0  0  0
  5  6  1  0  0  0  0
  5 12  1  0  0  0  0
  5 37  1  6  0  0  0
  6 30  1  0  0  0  0
  7 14  1  0  0  0  0
  7 41  1  0  0  0  0
  7 23  1  1  0  0  0
  8 16  2  0  0  0  0
  8 42  1  0  0  0  0
  9 10  1  6  0  0  0
  9 18  1  0  0  0  0
 11 20  1  0  0  0  0
 12 13  1  1  0  0  0
 12 22  1  0  0  0  0
 13 47  1  0  0  0  0
 14 15  1  1  0  0  0
 14 24  1  0  0  0  0
 16 17  1  0  0  0  0
 17 26  2  0  0  0  0
 18 19  1  1  0  0  0
 18 27  1  0  0  0  0
 20 21  1  6  0  0  0
 20 29  1  0  0  0  0
 22 23  1  1  0  0  0
 22 30  1  0  0  0  0
 24 25  1  6  0  0  0
 24 31  1  0  0  0  0
 26 33  1  0  0  0  0
 27 28  1  1  0  0  0
 27 34  1  0  0  0  0
 29  2  1  1  0  0  0
 29 36  1  0  0  0  0
 30 38  1  6  0  0  0
 31 32  1  1  0  0  0
 31 40  1  0  0  0  0
 33 42  2  0  0  0  0
 34 35  1  0  0  0  0
 34 43  1  1  0  0  0
 36 37  1  1  0  0  0
 36 45  1  0  0  0  0
 38 39  1  0  0  0  0
 40 41  1  0  0  0  0
 40 48  1  1  0  0  0
 43 44  1  0  0  0  0
 45 46  1  1  0  0  0
 47 50  1  0  0  0  0
 48 49  1  0  0  0  0
 50 51  1  0  0  0  0
 51 52  1  0  0  0  0
 52  8  1  0  0  0  0
M  END
>  <CHROM.1>
-141.07582645,-165.16136725,-71.14014583,72.47798913,177.68329813,66.76917443
-57.82661075,-172.58734143,64.44141991,80.17339510,-177.29939514,-168.59993382
-148.01226391,-60.45304356,120.28093466,40.63969273,0.03175044,-5.68752889
-1.09460908,-1.32162923,-2.93579875

>  <Name>
2be0_lig

>  <RI>
0

>  <Rbt.Current_Directory>
/home/itssahil/PROJECTS/Mol_Feturizer/New_Systems/rnas/2be0

>  <Rbt.Executable>
rbdock ($Id: //depot/dev/client3/rdock/2013.1/src/exe/rbdock.cxx#4 $)

>  <Rbt.Library>
libRbt.so (2013.1, Build901 2013/11/27)

>  <Rbt.Parameter_File>
/export/apps/rDock/src/rDock_2013.1_src/data/scripts/dock_solv.prm

>  <Rbt.Receptor>
prm/pocket_docking_7.prm

>  <SCORE>
-9.38326

>  <SCORE.INTER>
4.49351

>  <SCORE.INTER.CONST>
1

>  <SCORE.INTER.POLAR>
0

>  <SCORE.INTER.ROT>
15

>  <SCORE.INTER.SOLV>
7.44959

>  <SCORE.INTER.VDW>
-13.0875

>  <SCORE.INTER.norm>
0.0864137

>  <SCORE.INTRA>
-13.8768

>  <SCORE.INTRA.DIHEDRAL>
-35.6256

>  <SCORE.INTRA.DIHEDRAL.0>
47.8724

>  <SCORE.INTRA.POLAR>
0

>  <SCORE.INTRA.POLAR.0>
0

>  <SCORE.INTRA.REPUL>
0

>  <SCORE.INTRA.REPUL.0>
0

>  <SCORE.INTRA.SOLV>
2.55351

>  <SCORE.INTRA.SOLV.lig_0>
-115.677

>  <SCORE.INTRA.VDW>
2.65926

>  <SCORE.INTRA.VDW.0>
-7.4833

>  <SCORE.INTRA.norm>
-0.266861

>  <SCORE.RESTR>
0

>  <SCORE.RESTR.CAVITY>
0

>  <SCORE.RESTR.norm>
0

>  <SCORE.SYSTEM>
0

>  <SCORE.SYSTEM.CONST>
0

>  <SCORE.SYSTEM.DIHEDRAL>
0

>  <SCORE.SYSTEM.SOLV>
0

>  <SCORE.SYSTEM.norm>
0

>  <SCORE.heavy>
52

>  <SCORE.norm>
-0.180447

>  <RMSD>
9.692

$$$$
2be0_lig
 OpenBabel11021811423D
libRbt.so/2013.1/901 2013/11/27
 52 56  0  0  0  0  0  0  0  0999 V2000
   38.6768   -1.0421   -4.0367 C   0  0  2  0  0  0  0  0  0  0  0  0
   38.3144    0.3186   -4.0433 O   0  0  0  0  0  0  0  0  0  0  0  0
   37.4475    0.8426   -8.3264 C   0  0  2  0  0  0  0  0  0  0  0  0
   36.9125    1.4470   -9.5786 N   0  0  0  0  0  0  0  0  0  0  0  0
   41.0591    2.5058   -6.2539 C   0  0  2  0  0  0  0  0  0  0  0  0
   42.2767    2.0369   -5.6390 O   0  0  0  0  0  0  0  0  0  0  0  0
   42.1760    6.0026   -3.1501 C   0  0  1  0  0  0  0  0  0  0  0  0
   45.4100    8.9885   -8.3109 C   0  0  0  0  0  0  0  0  0  0  0  0
   39.1590   -1.5000   -2.6002 C   0  0  2  0  0  0  0  0  0  0  0  0
   38.1318   -1.1790   -1.6071 N   0  0  0  0  0  0  0  0  0  0  0  0
   36.2422    0.5943   -7.3095 C   0  0  0  0  0  0  0  0  0  0  0  0
   41.0959    4.0413   -6.1950 C   0  0  2  0  0  0  0  0  0  0  0  0
   41.8773    4.4192   -7.4131 O   0  0  0  0  0  0  0  0  0  0  0  0
   43.0469    7.3739   -3.1015 C   0  0  2  0  0  0  0  0  0  0  0  0
   44.4648    7.0557   -3.4678 N   0  0  0  0  0  0  0  0  0  0  0  0
   46.6981    8.8359   -8.9210 C   0  0  0  0  0  0  0  0  0  0  0  0
   47.4574    9.9869   -9.2581 N   0  0  0  0  0  0  0  0  0  0  0  0
   40.5591   -0.8085   -2.2577 C   0  0  1  0  0  0  0  0  0  0  0  0
   40.9696   -1.2255   -0.9647 O   0  0  0  0  0  0  0  0  0  0  0  0
   36.7899   -0.0564   -5.9144 C   0  0  2  0  0  0  0  0  0  0  0  0
   35.7145   -0.2868   -4.9914 N   0  0  0  0  0  0  0  0  0  0  0  0
   41.7259    4.2084   -4.7992 C   0  0  2  0  0  0  0  0  0  0  0  0
   42.2745    5.4806   -4.4874 O   0  0  0  0  0  0  0  0  0  0  0  0
   42.9606    7.9443   -1.6537 C   0  0  1  0  0  0  0  0  0  0  0  0
   41.5377    8.2334   -1.4105 O   0  0  0  0  0  0  0  0  0  0  0  0
   47.0000   11.3145   -9.0204 C   0  0  0  0  0  0  0  0  0  0  0  0
   41.5910   -1.2112   -3.3510 C   0  0  2  0  0  0  0  0  0  0  0  0
   42.9137   -0.5943   -3.0884 O   0  0  0  0  0  0  0  0  0  0  0  0
   37.8581    0.9093   -5.2541 C   0  0  2  0  0  0  0  0  0  0  0  0
   42.7495    3.0504   -4.7279 C   0  0  1  0  0  0  0  0  0  0  0  0
   43.5286    6.8519   -0.5906 C   0  0  2  0  0  0  0  0  0  0  0  0
   44.9504    6.5577   -0.8279 O   0  0  0  0  0  0  0  0  0  0  0  0
   45.7351   11.5276   -8.4189 C   0  0  0  0  0  0  0  0  0  0  0  0
   41.0930   -0.7474   -4.7738 C   0  0  2  0  0  0  0  0  0  0  0  0
   39.7978   -1.3789   -4.9695 O   0  0  0  0  0  0  0  0  0  0  0  0
   39.0109    1.1283   -6.2944 C   0  0  2  0  0  0  0  0  0  0  0  0
   39.9058    1.9879   -5.5989 O   0  0  0  0  0  0  0  0  0  0  0  0
   42.8101    2.4105   -3.3419 C   0  0  0  0  0  0  0  0  0  0  0  0
   41.5949    1.8855   -2.8636 O   0  0  0  0  0  0  0  0  0  0  0  0
   42.6764    5.5053   -0.7062 C   0  0  1  0  0  0  0  0  0  0  0  0
   42.7487    5.0123   -2.1367 O   0  0  0  0  0  0  0  0  0  0  0  0
   44.9036   10.3589   -8.0490 C   0  0  0  0  0  0  0  0  0  0  0  0
   42.0950   -1.1732   -5.7642 C   0  0  0  0  0  0  0  0  0  0  0  0
   41.6272   -0.9461   -6.9981 O   0  0  0  0  0  0  0  0  0  0  0  0
   38.4495    1.7886   -7.6234 C   0  0  1  0  0  0  0  0  0  0  0  0
   39.4805    1.9666   -8.5382 O   0  0  0  0  0  0  0  0  0  0  0  0
   42.2236    5.7763   -7.8975 C   0  0  0  0  0  0  0  0  0  0  0  0
   43.2685    4.5006    0.3192 C   0  0  0  0  0  0  0  0  0  0  0  0
   43.6812    3.2867   -0.3402 N   0  0  0  0  0  0  0  0  0  0  0  0
   43.3511    5.6176   -8.9227 C   0  0  0  0  0  0  0  0  0  0  0  0
   43.9807    6.9528   -9.1824 N   0  0  0  0  0  0  0  0  0  0  0  0
   44.5735    7.6686   -7.9389 C   0  0  0  0  0  0  0  0  0  0  0  0
  1  2  1  1  0  0  0
  1  9  1  0  0  0  0
  1 35  1  0  0  0  0
  3  4  1  6  0  0  0
  3 11  1  0  0  0  0
  3 45  1  0  0  0  0
  5  6  1  0  0  0  0
  5 12  1  0  0  0  0
  5 37  1  1  0  0  0
  6 30  1  0  0  0  0
  7 14  1  0  0  0  0
  7 41  1  0  0  0  0
  7 23  1  6  0  0  0
  8 16  2  0  0  0  0
  8 42  1  0  0  0  0
  9 10  1  1  0  0  0
  9 18  1  0  0  0  0
 11 20  1  0  0  0  0
 12 13  1  6  0  0  0
 12 22  1  0  0  0  0
 13 47  1  0  0  0  0
 14 15  1  1  0  0  0
 14 24  1  0  0  0  0
 16 17  1  0  0  0  0
 17 26  2  0  0  0  0
 18 19  1  1  0  0  0
 18 27  1  0  0  0  0
 20 21  1  1  0  0  0
 20 29  1  0  0  0  0
 22 23  1  6  0  0  0
 22 30  1  0  0  0  0
 24 25  1  1  0  0  0
 24 31  1  0  0  0  0
 26 33  1  0  0  0  0
 27 28  1  1  0  0  0
 27 34  1  0  0  0  0
 29  2  1  1  0  0  0
 29 36  1  0  0  0  0
 30 38  1  1  0  0  0
 31 32  1  6  0  0  0
 31 40  1  0  0  0  0
 33 42  2  0  0  0  0
 34 35  1  0  0  0  0
 34 43  1  6  0  0  0
 36 37  1  1  0  0  0
 36 45  1  0  0  0  0
 38 39  1  0  0  0  0
 40 41  1  0  0  0  0
 40 48  1  1  0  0  0
 43 44  1  0  0  0  0
 45 46  1  6  0  0  0
 47 50  1  0  0  0  0
 48 49  1  0  0  0  0
 50 51  1  0  0  0  0
 51 52  1  0  0  0  0
 52  8  1  0  0  0  0
M  END
>  <CHROM.1>
179.80845138,-116.39335303,173.47122770,179.07171478,163.77703760,144.26209623
46.59611436,-58.11955835,172.28346057,-175.47464623,-122.93620746,-165.49597080
58.31200608,171.94821135,-73.09644255,41.64962640,3.47487006,-5.00932931
-2.71091407,-0.93551247,-1.25810707

>  <Name>
2be0_lig

>  <RI>
0

>  <Rbt.Current_Directory>
/home/itssahil/PROJECTS/Mol_Feturizer/New_Systems/rnas/2be0

>  <Rbt.Executable>
rbdock ($Id: //depot/dev/client3/rdock/2013.1/src/exe/rbdock.cxx#4 $)

>  <Rbt.Library>
libRbt.so (2013.1, Build901 2013/11/27)

>  <Rbt.Parameter_File>
/export/apps/rDock/src/rDock_2013.1_src/data/scripts/dock_solv.prm

>  <Rbt.Receptor>
prm/pocket_docking_6.prm

>  <SCORE>
-24.0678

>  <SCORE.INTER>
-12.171

>  <SCORE.INTER.CONST>
1

>  <SCORE.INTER.POLAR>
-1.45548

>  <SCORE.INTER.ROT>
15

>  <SCORE.INTER.SOLV>
17.2881

>  <SCORE.INTER.VDW>
-22.6251

>  <SCORE.INTER.norm>
-0.234058

>  <SCORE.INTRA>
-11.8968

>  <SCORE.INTRA.DIHEDRAL>
-26.1875

>  <SCORE.INTRA.DIHEDRAL.0>
47.8724

>  <SCORE.INTRA.POLAR>
0

>  <SCORE.INTRA.POLAR.0>
0

>  <SCORE.INTRA.REPUL>
0.0404483

>  <SCORE.INTRA.REPUL.0>
0

>  <SCORE.INTRA.SOLV>
1.82637

>  <SCORE.INTRA.SOLV.lig_0>
-115.677

>  <SCORE.INTRA.VDW>
0.081526

>  <SCORE.INTRA.VDW.0>
-7.4833

>  <SCORE.INTRA.norm>
-0.228785

>  <SCORE.RESTR>
0

>  <SCORE.RESTR.CAVITY>
0

>  <SCORE.RESTR.norm>
0

>  <SCORE.SYSTEM>
0

>  <SCORE.SYSTEM.CONST>
0

>  <SCORE.SYSTEM.DIHEDRAL>
0

>  <SCORE.SYSTEM.SOLV>
0

>  <SCORE.SYSTEM.norm>
0

>  <SCORE.heavy>
52

>  <SCORE.norm>
-0.462843

>  <RMSD>
9.693

$$$$
2be0_lig
 OpenBabel11021811423D
libRbt.so/2013.1/901 2013/11/27
 52 56  0  0  0  0  0  0  0  0999 V2000
   42.5724    5.8071    1.0110 C   0  0  2  0  0  0  0  0  0  0  0  0
   41.2504    6.0151    0.5732 O   0  0  0  0  0  0  0  0  0  0  0  0
   39.0423    4.3493    3.9967 C   0  0  2  0  0  0  0  0  0  0  0  0
   37.8947    3.8806    4.8231 N   0  0  0  0  0  0  0  0  0  0  0  0
   39.5212    3.4249   -0.3945 C   0  0  2  0  0  0  0  0  0  0  0  0
   38.3295    2.7062   -0.0154 O   0  0  0  0  0  0  0  0  0  0  0  0
   40.7445    0.3812   -3.4697 C   0  0  1  0  0  0  0  0  0  0  0  0
   40.9858    5.8812   -7.5384 C   0  0  0  0  0  0  0  0  0  0  0  0
   43.5979    6.6688    0.1674 C   0  0  2  0  0  0  0  0  0  0  0  0
   43.2028    8.0786    0.1974 N   0  0  0  0  0  0  0  0  0  0  0  0
   38.7936    5.8673    3.5701 C   0  0  0  0  0  0  0  0  0  0  0  0
   39.9906    2.8301   -1.7318 C   0  0  2  0  0  0  0  0  0  0  0  0
   39.1922    3.5826   -2.7485 O   0  0  0  0  0  0  0  0  0  0  0  0
   40.4056   -0.7890   -4.5454 C   0  0  2  0  0  0  0  0  0  0  0  0
   40.1751   -2.0708   -3.8042 N   0  0  0  0  0  0  0  0  0  0  0  0
   42.0279    6.5339   -6.8017 C   0  0  0  0  0  0  0  0  0  0  0  0
   43.2015    6.9641   -7.4746 N   0  0  0  0  0  0  0  0  0  0  0  0
   43.6766    6.1012   -1.3250 C   0  0  1  0  0  0  0  0  0  0  0  0
   44.5941    6.8910   -2.0656 O   0  0  0  0  0  0  0  0  0  0  0  0
   40.0260    6.4162    2.6483 C   0  0  2  0  0  0  0  0  0  0  0  0
   39.8154    7.7822    2.2595 N   0  0  0  0  0  0  0  0  0  0  0  0
   39.6745    1.3482   -1.4544 C   0  0  2  0  0  0  0  0  0  0  0  0
   39.6208    0.4792   -2.5762 O   0  0  0  0  0  0  0  0  0  0  0  0
   41.6211   -0.9161   -5.5126 C   0  0  1  0  0  0  0  0  0  0  0  0
   41.7424    0.3840   -6.1925 O   0  0  0  0  0  0  0  0  0  0  0  0
   43.4067    6.7776   -8.8714 C   0  0  0  0  0  0  0  0  0  0  0  0
   44.1137    4.6087   -1.2649 C   0  0  2  0  0  0  0  0  0  0  0  0
   44.2009    4.0238   -2.6248 O   0  0  0  0  0  0  0  0  0  0  0  0
   40.1734    5.5131    1.3552 C   0  0  2  0  0  0  0  0  0  0  0  0
   38.3569    1.4090   -0.6456 C   0  0  1  0  0  0  0  0  0  0  0  0
   42.9678   -1.2670   -4.6705 C   0  0  2  0  0  0  0  0  0  0  0  0
   42.8537   -2.5652   -3.9878 O   0  0  0  0  0  0  0  0  0  0  0  0
   42.4111    6.1397   -9.6517 C   0  0  0  0  0  0  0  0  0  0  0  0
   43.0808    3.7674   -0.4206 C   0  0  2  0  0  0  0  0  0  0  0  0
   43.0377    4.3894    0.8932 O   0  0  0  0  0  0  0  0  0  0  0  0
   40.4043    4.0360    1.8284 C   0  0  2  0  0  0  0  0  0  0  0  0
   40.5338    3.3273    0.6018 O   0  0  0  0  0  0  0  0  0  0  0  0
   38.3110    0.3691    0.4727 C   0  0  0  0  0  0  0  0  0  0  0  0
   38.4063   -0.9722    0.0568 O   0  0  0  0  0  0  0  0  0  0  0  0
   43.2358   -0.1173   -3.5938 C   0  0  1  0  0  0  0  0  0  0  0  0
   42.0140    0.0043   -2.7067 O   0  0  0  0  0  0  0  0  0  0  0  0
   41.1679    5.6714   -8.9964 C   0  0  0  0  0  0  0  0  0  0  0  0
   43.5567    2.3752   -0.3815 C   0  0  0  0  0  0  0  0  0  0  0  0
   42.6399    1.6070    0.2202 O   0  0  0  0  0  0  0  0  0  0  0  0
   39.1764    3.5257    2.6940 C   0  0  1  0  0  0  0  0  0  0  0  0
   39.4007    2.2200    3.1140 O   0  0  0  0  0  0  0  0  0  0  0  0
   39.0581    5.0499   -2.9081 C   0  0  0  0  0  0  0  0  0  0  0  0
   44.5213   -0.5102   -2.8163 C   0  0  0  0  0  0  0  0  0  0  0  0
   45.6822   -0.3936   -3.6634 N   0  0  0  0  0  0  0  0  0  0  0  0
   38.6774    5.3140   -4.3684 C   0  0  0  0  0  0  0  0  0  0  0  0
   39.9024    5.2236   -5.2275 N   0  0  0  0  0  0  0  0  0  0  0  0
   39.6684    5.4064   -6.7513 C   0  0  0  0  0  0  0  0  0  0  0  0
  1  2  1  6  0  0  0
  1  9  1  0  0  0  0
  1 35  1  0  0  0  0
  3  4  1  1  0  0  0
  3 11  1  0  0  0  0
  3 45  1  0  0  0  0
  5  6  1  0  0  0  0
  5 12  1  0  0  0  0
  5 37  1  1  0  0  0
  6 30  1  0  0  0  0
  7 14  1  0  0  0  0
  7 41  1  0  0  0  0
  7 23  1  1  0  0  0
  8 16  2  0  0  0  0
  8 42  1  0  0  0  0
  9 10  1  6  0  0  0
  9 18  1  0  0  0  0
 11 20  1  0  0  0  0
 12 13  1  6  0  0  0
 12 22  1  0  0  0  0
 13 47  1  0  0  0  0
 14 15  1  1  0  0  0
 14 24  1  0  0  0  0
 16 17  1  0  0  0  0
 17 26  2  0  0  0  0
 18 19  1  6  0  0  0
 18 27  1  0  0  0  0
 20 21  1  6  0  0  0
 20 29  1  0  0  0  0
 22 23  1  6  0  0  0
 22 30  1  0  0  0  0
 24 25  1  1  0  0  0
 24 31  1  0  0  0  0
 26 33  1  0  0  0  0
 27 28  1  6  0  0  0
 27 34  1  0  0  0  0
 29  2  1  1  0  0  0
 29 36  1  0  0  0  0
 30 38  1  1  0  0  0
 31 32  1  1  0  0  0
 31 40  1  0  0  0  0
 33 42  2  0  0  0  0
 34 35  1  0  0  0  0
 34 43  1  1  0  0  0
 36 37  1  6  0  0  0
 36 45  1  0  0  0  0
 38 39  1  0  0  0  0
 40 41  1  0  0  0  0
 40 48  1  1  0  0  0
 43 44  1  0  0  0  0
 45 46  1  1  0  0  0
 47 50  1  0  0  0  0
 48 49  1  0  0  0  0
 50 51  1  0  0  0  0
 51 52  1  0  0  0  0
 52  8  1  0  0  0  0
M  END
>  <CHROM.1>
-169.06036618,-72.59733712,174.78215631,52.75658993,155.81134381,55.62985272
73.33561141,-176.53394919,-174.21327665,-54.17777344,69.98375862,-79.09393004
177.39726083,157.02049062,-22.09126483,41.20301510,3.28296594,-1.88839981
-2.64916967,-1.28093021,-2.78040723

>  <Name>
2be0_lig

>  <RI>
0

>  <Rbt.Current_Directory>
/home/itssahil/PROJECTS/Mol_Feturizer/New_Systems/rnas/2be0

>  <Rbt.Executable>
rbdock ($Id: //depot/dev/client3/rdock/2013.1/src/exe/rbdock.cxx#4 $)

>  <Rbt.Library>
libRbt.so (2013.1, Build901 2013/11/27)

>  <Rbt.Parameter_File>
/export/apps/rDock/src/rDock_2013.1_src/data/scripts/dock_solv.prm

>  <Rbt.Receptor>
prm/pocket_docking_6.prm

>  <SCORE>
-36.601

>  <SCORE.INTER>
-17.6449

>  <SCORE.INTER.CONST>
1

>  <SCORE.INTER.POLAR>
-0.894427

>  <SCORE.INTER.ROT>
15

>  <SCORE.INTER.SOLV>
10.9267

>  <SCORE.INTER.VDW>
-26.0241

>  <SCORE.INTER.norm>
-0.339326

>  <SCORE.INTRA>
-18.9561

>  <SCORE.INTRA.DIHEDRAL>
-39.1805

>  <SCORE.INTRA.DIHEDRAL.0>
47.8724

>  <SCORE.INTRA.POLAR>
0

>  <SCORE.INTRA.POLAR.0>
0

>  <SCORE.INTRA.REPUL>
0

>  <SCORE.INTRA.REPUL.0>
0

>  <SCORE.INTRA.SOLV>
-1.53378

>  <SCORE.INTRA.SOLV.lig_0>
-115.677

>  <SCORE.INTRA.VDW>
1.4011

>  <SCORE.INTRA.VDW.0>
-7.4833

>  <SCORE.INTRA.norm>
-0.364539

>  <SCORE.RESTR>
0

>  <SCORE.RESTR.CAVITY>
0

>  <SCORE.RESTR.norm>
0

>  <SCORE.SYSTEM>
0

>  <SCORE.SYSTEM.CONST>
0

>  <SCORE.SYSTEM.DIHEDRAL>
0

>  <SCORE.SYSTEM.SOLV>
0

>  <SCORE.SYSTEM.norm>
0

>  <SCORE.heavy>
52

>  <SCORE.norm>
-0.703865

>  <RMSD>
9.696

$$$$
2be0_lig
 OpenBabel11021811423D
libRbt.so/2013.1/901 2013/11/27
 52 56  0  0  0  0  0  0  0  0999 V2000
   43.4113   -0.1754   -4.0732 C   0  0  2  0  0  0  0  0  0  0  0  0
   42.6149    0.9394   -4.3984 O   0  0  0  0  0  0  0  0  0  0  0  0
   41.7363    2.4494   -0.3587 C   0  0  2  0  0  0  0  0  0  0  0  0
   41.3306    3.3914    0.7218 N   0  0  0  0  0  0  0  0  0  0  0  0
   39.0875    2.0036   -3.7858 C   0  0  2  0  0  0  0  0  0  0  0  0
   38.0555    1.5412   -4.6811 O   0  0  0  0  0  0  0  0  0  0  0  0
   41.2821    4.2564   -7.0305 C   0  0  1  0  0  0  0  0  0  0  0  0
   38.6978    7.5490   -0.1182 C   0  0  0  0  0  0  0  0  0  0  0  0
   43.5826   -1.1398   -5.3167 C   0  0  2  0  0  0  0  0  0  0  0  0
   44.0980   -0.3856   -6.4613 N   0  0  0  0  0  0  0  0  0  0  0  0
   42.9375    3.0933   -1.1898 C   0  0  0  0  0  0  0  0  0  0  0  0
   39.7997    3.1671   -4.4939 C   0  0  2  0  0  0  0  0  0  0  0  0
   38.9520    4.3526   -4.1572 O   0  0  0  0  0  0  0  0  0  0  0  0
   41.1418    5.3699   -8.2061 C   0  0  2  0  0  0  0  0  0  0  0  0
   40.8606    4.6691   -9.5005 N   0  0  0  0  0  0  0  0  0  0  0  0
   37.7358    8.4890    0.3774 C   0  0  0  0  0  0  0  0  0  0  0  0
   37.4861    8.5703    1.7725 N   0  0  0  0  0  0  0  0  0  0  0  0
   42.1865   -1.8460   -5.6454 C   0  0  1  0  0  0  0  0  0  0  0  0
   42.3596   -2.6992   -6.7662 O   0  0  0  0  0  0  0  0  0  0  0  0
   43.4038    2.0951   -2.3964 C   0  0  2  0  0  0  0  0  0  0  0  0
   44.4859    2.6622   -3.1507 N   0  0  0  0  0  0  0  0  0  0  0  0
   39.7967    2.6068   -5.9288 C   0  0  2  0  0  0  0  0  0  0  0  0
   40.0422    3.5279   -6.9813 O   0  0  0  0  0  0  0  0  0  0  0  0
   42.4840    6.1586   -8.2803 C   0  0  1  0  0  0  0  0  0  0  0  0
   42.6478    6.8140   -6.9723 O   0  0  0  0  0  0  0  0  0  0  0  0
   38.1514    7.7508    2.7283 C   0  0  0  0  0  0  0  0  0  0  0  0
   41.7204   -2.6320   -4.3855 C   0  0  2  0  0  0  0  0  0  0  0  0
   40.4232   -3.3081   -4.6290 O   0  0  0  0  0  0  0  0  0  0  0  0
   42.1791    1.8076   -3.3593 C   0  0  2  0  0  0  0  0  0  0  0  0
   38.4292    1.8901   -6.0299 C   0  0  1  0  0  0  0  0  0  0  0  0
   43.7132    5.1377   -8.5845 C   0  0  2  0  0  0  0  0  0  0  0  0
   43.5559    4.4786   -9.8903 O   0  0  0  0  0  0  0  0  0  0  0  0
   39.1134    6.8040    2.2978 C   0  0  0  0  0  0  0  0  0  0  0  0
   41.5561   -1.6551   -3.1583 C   0  0  2  0  0  0  0  0  0  0  0  0
   42.8529   -1.0235   -2.9736 O   0  0  0  0  0  0  0  0  0  0  0  0
   41.0271    1.1882   -2.4944 C   0  0  2  0  0  0  0  0  0  0  0  0
   39.9993    0.9622   -3.4514 O   0  0  0  0  0  0  0  0  0  0  0  0
   38.5120    0.5857   -6.8210 C   0  0  0  0  0  0  0  0  0  0  0  0
   39.4860   -0.3296   -6.3796 O   0  0  0  0  0  0  0  0  0  0  0  0
   43.7840    4.0332   -7.4320 C   0  0  1  0  0  0  0  0  0  0  0  0
   42.4469    3.3245   -7.3631 O   0  0  0  0  0  0  0  0  0  0  0  0
   39.4095    6.6796    0.8517 C   0  0  0  0  0  0  0  0  0  0  0  0
   41.1365   -2.4554   -1.9966 C   0  0  0  0  0  0  0  0  0  0  0  0
   39.8330   -2.7432   -2.1004 O   0  0  0  0  0  0  0  0  0  0  0  0
   40.5788    2.1950   -1.3530 C   0  0  1  0  0  0  0  0  0  0  0  0
   39.5653    1.6278   -0.5897 O   0  0  0  0  0  0  0  0  0  0  0  0
   39.2004    5.7788   -4.4743 C   0  0  0  0  0  0  0  0  0  0  0  0
   44.9633    3.0847   -7.7801 C   0  0  0  0  0  0  0  0  0  0  0  0
   46.2089    3.8105   -7.8011 N   0  0  0  0  0  0  0  0  0  0  0  0
   40.3109    6.2647   -3.5372 C   0  0  0  0  0  0  0  0  0  0  0  0
   39.8120    6.2519   -2.1238 N   0  0  0  0  0  0  0  0  0  0  0  0
   38.9611    7.4797   -1.7013 C   0  0  0  0  0  0  0  0  0  0  0  0
  1  2  1  6  0  0  0
  1  9  1  0  0  0  0
  1 35  1  0  0  0  0
  3  4  1  1  0  0  0
  3 11  1  0  0  0  0
  3 45  1  0  0  0  0
  5  6  1  0  0  0  0
  5 12  1  0  0  0  0
  5 37  1  6  0  0  0
  6 30  1  0  0  0  0
  7 14  1  0  0  0  0
  7 41  1  0  0  0  0
  7 23  1  6  0  0  0
  8 16  2  0  0  0  0
  8 42  1  0  0  0  0
  9 10  1  6  0  0  0
  9 18  1  0  0  0  0
 11 20  1  0  0  0  0
 12 13  1  6  0  0  0
 12 22  1  0  0  0  0
 13 47  1  0  0  0  0
 14 15  1  6  0  0  0
 14 24  1  0  0  0  0
 16 17  1  0  0  0  0
 17 26  2  0  0  0  0
 18 19  1  6  0  0  0
 18 27  1  0  0  0  0
 20 21  1  6  0  0  0
 20 29  1  0  0  0  0
 22 23  1  6  0  0  0
 22 30  1  0  0  0  0
 24 25  1  1  0  0  0
 24 31  1  0  0  0  0
 26 33  1  0  0  0  0
 27 28  1  6  0  0  0
 27 34  1  0  0  0  0
 29  2  1  6  0  0  0
 29 36  1  0  0  0  0
 30 38  1  6  0  0  0
 31 32  1  6  0  0  0
 31 40  1  0  0  0  0
 33 42  2  0  0  0  0
 34 35  1  0  0  0  0
 34 43  1  1  0  0  0
 36 37  1  6  0  0  0
 36 45  1  0  0  0  0
 38 39  1  0  0  0  0
 40 41  1  0  0  0  0
 40 48  1  6  0  0  0
 43 44  1  0  0  0  0
 45 46  1  1  0  0  0
 47 50  1  0  0  0  0
 48 49  1  0  0  0  0
 50 51  1  0  0  0  0
 51 52  1  0  0  0  0
 52  8  1  0  0  0  0
M  END
>  <CHROM.1>
170.35623724,-174.90292607,-171.42784465,174.71856667,-74.13533380,60.24264672
44.63145583,-62.64308624,-77.49297908,-85.89674899,61.73085414,-66.15082641
-81.62449176,-168.89195305,-169.03126060,41.09848568,2.70290230,-4.12837446
0.43755320,-1.16801328,2.82869540

>  <Name>
2be0_lig

>  <RI>
0

>  <Rbt.Current_Directory>
/home/itssahil/PROJECTS/Mol_Feturizer/New_Systems/rnas/2be0

>  <Rbt.Executable>
rbdock ($Id: //depot/dev/client3/rdock/2013.1/src/exe/rbdock.cxx#4 $)

>  <Rbt.Library>
libRbt.so (2013.1, Build901 2013/11/27)

>  <Rbt.Parameter_File>
/export/apps/rDock/src/rDock_2013.1_src/data/scripts/dock_solv.prm

>  <Rbt.Receptor>
prm/pocket_docking_4.prm

>  <SCORE>
-23.748

>  <SCORE.INTER>
-5.67304

>  <SCORE.INTER.CONST>
1

>  <SCORE.INTER.POLAR>
0

>  <SCORE.INTER.ROT>
15

>  <SCORE.INTER.SOLV>
9.56521

>  <SCORE.INTER.VDW>
-20.5704

>  <SCORE.INTER.norm>
-0.109097

>  <SCORE.INTRA>
-18.0898

>  <SCORE.INTRA.DIHEDRAL>
-39.0783

>  <SCORE.INTRA.DIHEDRAL.0>
47.8724

>  <SCORE.INTRA.POLAR>
0

>  <SCORE.INTRA.POLAR.0>
0

>  <SCORE.INTRA.REPUL>
0.000353946

>  <SCORE.INTRA.REPUL.0>
0

>  <SCORE.INTRA.SOLV>
0.552497

>  <SCORE.INTRA.SOLV.lig_0>
-115.677

>  <SCORE.INTRA.VDW>
1.17133

>  <SCORE.INTRA.VDW.0>
-7.4833

>  <SCORE.INTRA.norm>
-0.347881

>  <SCORE.RESTR>
0.0148298

>  <SCORE.RESTR.CAVITY>
0.0148298

>  <SCORE.RESTR.norm>
0.000285188

>  <SCORE.SYSTEM>
0

>  <SCORE.SYSTEM.CONST>
0

>  <SCORE.SYSTEM.DIHEDRAL>
0

>  <SCORE.SYSTEM.SOLV>
0

>  <SCORE.SYSTEM.norm>
0

>  <SCORE.heavy>
52

>  <SCORE.norm>
-0.456693

>  <RMSD>
9.715

$$$$
2be0_lig
 OpenBabel11021811423D
libRbt.so/2013.1/901 2013/11/27
 52 56  0  0  0  0  0  0  0  0999 V2000
   41.2254    0.6781   -2.9432 C   0  0  2  0  0  0  0  0  0  0  0  0
   41.9056    1.0003   -1.7531 O   0  0  0  0  0  0  0  0  0  0  0  0
   42.3139    4.9484    0.1486 C   0  0  2  0  0  0  0  0  0  0  0  0
   42.8013    6.3339    0.3982 N   0  0  0  0  0  0  0  0  0  0  0  0
   39.8701    4.2895   -3.3940 C   0  0  2  0  0  0  0  0  0  0  0  0
   38.9364    3.8507   -4.4019 O   0  0  0  0  0  0  0  0  0  0  0  0
   42.8564    5.8058   -6.3686 C   0  0  1  0  0  0  0  0  0  0  0  0
   39.3707    9.4376   -0.1974 C   0  0  0  0  0  0  0  0  0  0  0  0
   39.9631   -0.2320   -2.6536 C   0  0  2  0  0  0  0  0  0  0  0  0
   39.1017    0.4162   -1.6624 N   0  0  0  0  0  0  0  0  0  0  0  0
   43.5584    3.9487    0.1478 C   0  0  0  0  0  0  0  0  0  0  0  0
   40.8811    5.2094   -4.0970 C   0  0  2  0  0  0  0  0  0  0  0  0
   40.2085    6.5453   -4.0805 O   0  0  0  0  0  0  0  0  0  0  0  0
   43.2047    6.5062   -7.7932 C   0  0  2  0  0  0  0  0  0  0  0  0
   43.2633    5.4443   -8.8490 N   0  0  0  0  0  0  0  0  0  0  0  0
   39.4923   10.3776    0.8779 C   0  0  0  0  0  0  0  0  0  0  0  0
   38.6155   10.2903    1.9909 N   0  0  0  0  0  0  0  0  0  0  0  0
   40.4430   -1.6795   -2.1736 C   0  0  1  0  0  0  0  0  0  0  0  0
   39.2980   -2.4763   -1.9124 O   0  0  0  0  0  0  0  0  0  0  0  0
   43.0670    2.4167   -0.1373 C   0  0  2  0  0  0  0  0  0  0  0  0
   44.1775    1.5067   -0.1384 N   0  0  0  0  0  0  0  0  0  0  0  0
   41.0187    4.4381   -5.4233 C   0  0  2  0  0  0  0  0  0  0  0  0
   41.5915    5.1364   -6.5191 O   0  0  0  0  0  0  0  0  0  0  0  0
   44.5803    7.2245   -7.6493 C   0  0  1  0  0  0  0  0  0  0  0  0
   44.4017    8.2482   -6.6064 O   0  0  0  0  0  0  0  0  0  0  0  0
   37.5980    9.3000    2.1004 C   0  0  0  0  0  0  0  0  0  0  0  0
   41.3380   -2.2986   -3.2862 C   0  0  2  0  0  0  0  0  0  0  0  0
   41.8188   -3.6459   -2.8951 O   0  0  0  0  0  0  0  0  0  0  0  0
   42.3192    2.3432   -1.5320 C   0  0  2  0  0  0  0  0  0  0  0  0
   39.5834    3.9249   -5.6890 C   0  0  1  0  0  0  0  0  0  0  0  0
   45.7274    6.1507   -7.2288 C   0  0  2  0  0  0  0  0  0  0  0  0
   45.9111    5.1241   -8.2665 O   0  0  0  0  0  0  0  0  0  0  0  0
   37.4309    8.3432    1.0691 C   0  0  0  0  0  0  0  0  0  0  0  0
   42.5890   -1.3781   -3.5606 C   0  0  2  0  0  0  0  0  0  0  0  0
   42.0545   -0.0781   -3.9336 O   0  0  0  0  0  0  0  0  0  0  0  0
   41.1164    3.3480   -1.4822 C   0  0  2  0  0  0  0  0  0  0  0  0
   40.5188    3.1900   -2.7633 O   0  0  0  0  0  0  0  0  0  0  0  0
   39.5682    2.5150   -6.2774 C   0  0  0  0  0  0  0  0  0  0  0  0
   40.1918    2.3753   -7.5315 O   0  0  0  0  0  0  0  0  0  0  0  0
   45.3215    5.4523   -5.8502 C   0  0  1  0  0  0  0  0  0  0  0  0
   43.9608    4.8085   -6.0202 O   0  0  0  0  0  0  0  0  0  0  0  0
   38.3204    8.3921   -0.1144 C   0  0  0  0  0  0  0  0  0  0  0  0
   43.3826   -2.0015   -4.6318 C   0  0  0  0  0  0  0  0  0  0  0  0
   42.6917   -1.9646   -5.7781 O   0  0  0  0  0  0  0  0  0  0  0  0
   41.6316    4.8281   -1.2346 C   0  0  1  0  0  0  0  0  0  0  0  0
   40.5540    5.7043   -1.1829 O   0  0  0  0  0  0  0  0  0  0  0  0
   40.8015    7.8754   -4.3552 C   0  0  0  0  0  0  0  0  0  0  0  0
   46.4426    4.4343   -5.5063 C   0  0  0  0  0  0  0  0  0  0  0  0
   46.1386    3.7397   -4.2800 N   0  0  0  0  0  0  0  0  0  0  0  0
   41.7282    8.2095   -3.1817 C   0  0  0  0  0  0  0  0  0  0  0  0
   40.9433    8.1894   -1.9049 N   0  0  0  0  0  0  0  0  0  0  0  0
   40.3772    9.5593   -1.4434 C   0  0  0  0  0  0  0  0  0  0  0  0
  1  2  1  1  0  0  0
  1  9  1  0  0  0  0
  1 35  1  0  0  0  0
  3  4  1  6  0  0  0
  3 11  1  0  0  0  0
  3 45  1  0  0  0  0
  5  6  1  0  0  0  0
  5 12  1  0  0  0  0
  5 37  1  6  0  0  0
  6 30  1  0  0  0  0
  7 14  1  0  0  0  0
  7 41  1  0  0  0  0
  7 23  1  6  0  0  0
  8 16  2  0  0  0  0
  8 42  1  0  0  0  0
  9 10  1  1  0  0  0
  9 18  1  0  0  0  0
 11 20  1  0  0  0  0
 12 13  1  6  0  0  0
 12 22  1  0  0  0  0
 13 47  1  0  0  0  0
 14 15  1  6  0  0  0
 14 24  1  0  0  0  0
 16 17  1  0  0  0  0
 17 26  2  0  0  0  0
 18 19  1  6  0  0  0
 18 27  1  0  0  0  0
 20 21  1  6  0  0  0
 20 29  1  0  0  0  0
 22 23  1  6  0  0  0
 22 30  1  0  0  0  0
 24 25  1  1  0  0  0
 24 31  1  0  0  0  0
 26 33  1  0  0  0  0
 27 28  1  1  0  0  0
 27 34  1  0  0  0  0
 29  2  1  1  0  0  0
 29 36  1  0  0  0  0
 30 38  1  1  0  0  0
 31 32  1  6  0  0  0
 31 40  1  0  0  0  0
 33 42  2  0  0  0  0
 34 35  1  0  0  0  0
 34 43  1  6  0  0  0
 36 37  1  6  0  0  0
 36 45  1  0  0  0  0
 38 39  1  0  0  0  0
 40 41  1  0  0  0  0
 40 48  1  6  0  0  0
 43 44  1  0  0  0  0
 45 46  1  1  0  0  0
 47 50  1  0  0  0  0
 48 49  1  0  0  0  0
 50 51  1  0  0  0  0
 51 52  1  0  0  0  0
 52  8  1  0  0  0  0
M  END
>  <CHROM.1>
-134.42943741,-158.95096974,-179.43597291,165.93705009,-70.35902123,52.13550263
-179.37962492,-178.45321156,67.28176959,-148.53091092,-178.97677987,-57.95632734
-93.75697668,171.47043922,136.21214628,41.67485603,4.08236605,-3.37286415
1.19709302,-1.01668805,3.13425427

>  <Name>
2be0_lig

>  <RI>
0

>  <Rbt.Current_Directory>
/home/itssahil/PROJECTS/Mol_Feturizer/New_Systems/rnas/2be0

>  <Rbt.Executable>
rbdock ($Id: //depot/dev/client3/rdock/2013.1/src/exe/rbdock.cxx#4 $)

>  <Rbt.Library>
libRbt.so (2013.1, Build901 2013/11/27)

>  <Rbt.Parameter_File>
/export/apps/rDock/src/rDock_2013.1_src/data/scripts/dock_solv.prm

>  <Rbt.Receptor>
prm/pocket_docking_4.prm

>  <SCORE>
-20.767

>  <SCORE.INTER>
-7.88131

>  <SCORE.INTER.CONST>
1

>  <SCORE.INTER.POLAR>
-0.959166

>  <SCORE.INTER.ROT>
15

>  <SCORE.INTER.SOLV>
11.6145

>  <SCORE.INTER.VDW>
-19.5285

>  <SCORE.INTER.norm>
-0.151564

>  <SCORE.INTRA>
-12.8857

>  <SCORE.INTRA.DIHEDRAL>
-31.9658

>  <SCORE.INTRA.DIHEDRAL.0>
47.8724

>  <SCORE.INTRA.POLAR>
0

>  <SCORE.INTRA.POLAR.0>
0

>  <SCORE.INTRA.REPUL>
0

>  <SCORE.INTRA.REPUL.0>
0

>  <SCORE.INTRA.SOLV>
0.586253

>  <SCORE.INTRA.SOLV.lig_0>
-115.677

>  <SCORE.INTRA.VDW>
2.80405

>  <SCORE.INTRA.VDW.0>
-7.4833

>  <SCORE.INTRA.norm>
-0.247802

>  <SCORE.RESTR>
0

>  <SCORE.RESTR.CAVITY>
0

>  <SCORE.RESTR.norm>
0

>  <SCORE.SYSTEM>
0

>  <SCORE.SYSTEM.CONST>
0

>  <SCORE.SYSTEM.DIHEDRAL>
0

>  <SCORE.SYSTEM.SOLV>
0

>  <SCORE.SYSTEM.norm>
0

>  <SCORE.heavy>
52

>  <SCORE.norm>
-0.399366

>  <RMSD>
9.725

$$$$
2be0_lig
 OpenBabel11021811423D
libRbt.so/2013.1/901 2013/11/27
 52 56  0  0  0  0  0  0  0  0999 V2000
   39.6908    3.0041   -4.6101 C   0  0  2  0  0  0  0  0  0  0  0  0
   38.8792    2.9889   -3.4595 O   0  0  0  0  0  0  0  0  0  0  0  0
   39.5043    2.3699    0.8530 C   0  0  2  0  0  0  0  0  0  0  0  0
   40.0254    1.7785    2.1172 N   0  0  0  0  0  0  0  0  0  0  0  0
   41.7059    5.3443   -1.9127 C   0  0  2  0  0  0  0  0  0  0  0  0
   41.0872    6.4130   -2.6580 O   0  0  0  0  0  0  0  0  0  0  0  0
   44.5458    5.6318   -5.7718 C   0  0  1  0  0  0  0  0  0  0  0  0
   41.0012    7.6370    2.9069 C   0  0  0  0  0  0  0  0  0  0  0  0
   38.8563    3.4020   -5.8950 C   0  0  2  0  0  0  0  0  0  0  0  0
   38.1694    4.6748   -5.6652 N   0  0  0  0  0  0  0  0  0  0  0  0
   38.7967    1.2258   -0.0064 C   0  0  0  0  0  0  0  0  0  0  0  0
   43.1964    5.3476   -2.2881 C   0  0  2  0  0  0  0  0  0  0  0  0
   43.7882    6.3607   -1.3603 O   0  0  0  0  0  0  0  0  0  0  0  0
   45.6312    6.6524   -6.4211 C   0  0  2  0  0  0  0  0  0  0  0  0
   45.0284    8.0233   -6.4763 N   0  0  0  0  0  0  0  0  0  0  0  0
   40.5856    9.0074    2.8430 C   0  0  0  0  0  0  0  0  0  0  0  0
   40.6653    9.8214    4.0032 N   0  0  0  0  0  0  0  0  0  0  0  0
   37.8339    2.2274   -6.2568 C   0  0  1  0  0  0  0  0  0  0  0  0
   37.0914    2.6066   -7.4053 O   0  0  0  0  0  0  0  0  0  0  0  0
   38.2226    1.8318   -1.4111 C   0  0  2  0  0  0  0  0  0  0  0  0
   37.5812    0.8126   -2.1929 N   0  0  0  0  0  0  0  0  0  0  0  0
   43.0609    5.6705   -3.7881 C   0  0  2  0  0  0  0  0  0  0  0  0
   44.2276    6.1250   -4.4580 O   0  0  0  0  0  0  0  0  0  0  0  0
   45.9756    6.1378   -7.8514 C   0  0  1  0  0  0  0  0  0  0  0  0
   46.5708    4.8029   -7.6750 O   0  0  0  0  0  0  0  0  0  0  0  0
   41.1441    9.3414    5.2556 C   0  0  0  0  0  0  0  0  0  0  0  0
   38.6453    0.9211   -6.4967 C   0  0  2  0  0  0  0  0  0  0  0  0
   37.7471   -0.2097   -6.8337 O   0  0  0  0  0  0  0  0  0  0  0  0
   39.4080    2.4725   -2.2441 C   0  0  2  0  0  0  0  0  0  0  0  0
   41.8824    6.6720   -3.8333 C   0  0  1  0  0  0  0  0  0  0  0  0
   44.6259    6.0648   -8.7563 C   0  0  2  0  0  0  0  0  0  0  0  0
   44.0252    7.3956   -8.9365 O   0  0  0  0  0  0  0  0  0  0  0  0
   41.5699    7.9959    5.3792 C   0  0  0  0  0  0  0  0  0  0  0  0
   39.4697    0.5417   -5.2068 C   0  0  2  0  0  0  0  0  0  0  0  0
   40.3235    1.6853   -4.9273 O   0  0  0  0  0  0  0  0  0  0  0  0
   40.0737    3.5785   -1.3539 C   0  0  2  0  0  0  0  0  0  0  0  0
   41.1012    4.0867   -2.1961 O   0  0  0  0  0  0  0  0  0  0  0  0
   40.9755    6.4508   -5.0427 C   0  0  0  0  0  0  0  0  0  0  0  0
   39.9335    7.3844   -5.1973 O   0  0  0  0  0  0  0  0  0  0  0  0
   43.5698    5.0905   -8.0575 C   0  0  1  0  0  0  0  0  0  0  0  0
   43.3001    5.5997   -6.6566 O   0  0  0  0  0  0  0  0  0  0  0  0
   41.5058    7.1051    4.1974 C   0  0  0  0  0  0  0  0  0  0  0  0
   40.2296   -0.6840   -5.5004 C   0  0  0  0  0  0  0  0  0  0  0  0
   40.8757   -1.0834   -4.3978 O   0  0  0  0  0  0  0  0  0  0  0  0
   40.6464    2.9508   -0.0139 C   0  0  1  0  0  0  0  0  0  0  0  0
   41.2235    3.9443    0.7679 O   0  0  0  0  0  0  0  0  0  0  0  0
   44.0887    6.2184    0.0839 C   0  0  0  0  0  0  0  0  0  0  0  0
   42.3037    5.0691   -8.9564 C   0  0  0  0  0  0  0  0  0  0  0  0
   41.6850    6.3710   -8.9924 N   0  0  0  0  0  0  0  0  0  0  0  0
   43.3034    7.3088    0.8199 C   0  0  0  0  0  0  0  0  0  0  0  0
   41.8541    7.2162    0.4488 N   0  0  0  0  0  0  0  0  0  0  0  0
   40.9013    6.7399    1.5782 C   0  0  0  0  0  0  0  0  0  0  0  0
  1  2  1  1  0  0  0
  1  9  1  0  0  0  0
  1 35  1  0  0  0  0
  3  4  1  1  0  0  0
  3 11  1  0  0  0  0
  3 45  1  0  0  0  0
  5  6  1  0  0  0  0
  5 12  1  0  0  0  0
  5 37  1  6  0  0  0
  6 30  1  0  0  0  0
  7 14  1  0  0  0  0
  7 41  1  0  0  0  0
  7 23  1  1  0  0  0
  8 16  2  0  0  0  0
  8 42  1  0  0  0  0
  9 10  1  1  0  0  0
  9 18  1  0  0  0  0
 11 20  1  0  0  0  0
 12 13  1  1  0  0  0
 12 22  1  0  0  0  0
 13 47  1  0  0  0  0
 14 15  1  6  0  0  0
 14 24  1  0  0  0  0
 16 17  1  0  0  0  0
 17 26  2  0  0  0  0
 18 19  1  6  0  0  0
 18 27  1  0  0  0  0
 20 21  1  6  0  0  0
 20 29  1  0  0  0  0
 22 23  1  1  0  0  0
 22 30  1  0  0  0  0
 24 25  1  1  0  0  0
 24 31  1  0  0  0  0
 26 33  1  0  0  0  0
 27 28  1  1  0  0  0
 27 34  1  0  0  0  0
 29  2  1  6  0  0  0
 29 36  1  0  0  0  0
 30 38  1  6  0  0  0
 31 32  1  1  0  0  0
 31 40  1  0  0  0  0
 33 42  2  0  0  0  0
 34 35  1  0  0  0  0
 34 43  1  6  0  0  0
 36 37  1  6  0  0  0
 36 45  1  0  0  0  0
 38 39  1  0  0  0  0
 40 41  1  0  0  0  0
 40 48  1  6  0  0  0
 43 44  1  0  0  0  0
 45 46  1  1  0  0  0
 47 50  1  0  0  0  0
 48 49  1  0  0  0  0
 50 51  1  0  0  0  0
 51 52  1  0  0  0  0
 52  8  1  0  0  0  0
M  END
>  <CHROM.1>
171.20085457,-95.32430305,162.86536688,75.87015781,-121.69101434,137.68392364
-149.11021768,67.88400200,-176.07684781,162.75460915,-64.76393389,53.97483781
110.78715304,55.57758521,65.43599106,41.31447315,4.70231505,-3.16178511,1.48729259
-0.84228153,-1.91680036

>  <Name>
2be0_lig

>  <RI>
2.75444e+07

>  <Rbt.Current_Directory>
/home/itssahil/PROJECTS/Mol_Feturizer/New_Systems/rnas/2be0

>  <Rbt.Executable>
rbdock ($Id: //depot/dev/client3/rdock/2013.1/src/exe/rbdock.cxx#4 $)

>  <Rbt.Library>
libRbt.so (2013.1, Build901 2013/11/27)

>  <Rbt.Parameter_File>
/export/apps/rDock/src/rDock_2013.1_src/data/scripts/dock_solv.prm

>  <Rbt.Receptor>
prm/pocket_docking_5.prm

>  <SCORE>
-17.0893

>  <SCORE.INTER>
-8.11027

>  <SCORE.INTER.CONST>
1

>  <SCORE.INTER.POLAR>
-0.910449

>  <SCORE.INTER.ROT>
15

>  <SCORE.INTER.SOLV>
18.1325

>  <SCORE.INTER.VDW>
-22.0162

>  <SCORE.INTER.norm>
-0.155967

>  <SCORE.INTRA>
-8.97905

>  <SCORE.INTRA.DIHEDRAL>
-19.5833

>  <SCORE.INTRA.DIHEDRAL.0>
47.8724

>  <SCORE.INTRA.POLAR>
0

>  <SCORE.INTRA.POLAR.0>
0

>  <SCORE.INTRA.REPUL>
0

>  <SCORE.INTRA.REPUL.0>
0

>  <SCORE.INTRA.SOLV>
2.82191

>  <SCORE.INTRA.SOLV.lig_0>
-115.677

>  <SCORE.INTRA.VDW>
-0.598337

>  <SCORE.INTRA.VDW.0>
-7.4833

>  <SCORE.INTRA.norm>
-0.172674

>  <SCORE.RESTR>
0

>  <SCORE.RESTR.CAVITY>
0

>  <SCORE.RESTR.norm>
0

>  <SCORE.SYSTEM>
0

>  <SCORE.SYSTEM.CONST>
0

>  <SCORE.SYSTEM.DIHEDRAL>
0

>  <SCORE.SYSTEM.SOLV>
0

>  <SCORE.SYSTEM.norm>
0

>  <SCORE.heavy>
52

>  <SCORE.norm>
-0.328641

>  <RMSD>
9.725

$$$$
2be0_lig
 OpenBabel11021811423D
libRbt.so/2013.1/901 2013/11/27
 52 56  0  0  0  0  0  0  0  0999 V2000
   41.6972   -2.7477   -7.2475 C   0  0  2  0  0  0  0  0  0  0  0  0
   42.0421   -1.6846   -8.1041 O   0  0  0  0  0  0  0  0  0  0  0  0
   41.7935    2.7002   -7.8168 C   0  0  2  0  0  0  0  0  0  0  0  0
   41.2115    4.0540   -7.5976 N   0  0  0  0  0  0  0  0  0  0  0  0
   43.0518   -0.1329   -4.4762 C   0  0  2  0  0  0  0  0  0  0  0  0
   43.4753   -1.3328   -3.7972 O   0  0  0  0  0  0  0  0  0  0  0  0
   39.7918    0.7156   -1.4054 C   0  0  1  0  0  0  0  0  0  0  0  0
   43.6490    7.1229   -1.6333 C   0  0  0  0  0  0  0  0  0  0  0  0
   42.6150   -4.0116   -7.5042 C   0  0  2  0  0  0  0  0  0  0  0  0
   44.0248   -3.6297   -7.3994 N   0  0  0  0  0  0  0  0  0  0  0  0
   40.9435    1.9406   -8.9344 C   0  0  0  0  0  0  0  0  0  0  0  0
   42.2491    0.6925   -3.4579 C   0  0  2  0  0  0  0  0  0  0  0  0
   43.3017    1.4594   -2.7222 O   0  0  0  0  0  0  0  0  0  0  0  0
   39.4701    0.9349    0.1725 C   0  0  2  0  0  0  0  0  0  0  0  0
   39.1747   -0.3972    0.7922 N   0  0  0  0  0  0  0  0  0  0  0  0
   43.4832    8.0566   -2.7082 C   0  0  0  0  0  0  0  0  0  0  0  0
   43.4431    9.4483   -2.4310 N   0  0  0  0  0  0  0  0  0  0  0  0
   42.2711   -4.6444   -8.9316 C   0  0  1  0  0  0  0  0  0  0  0  0
   43.1087   -5.7699   -9.1453 O   0  0  0  0  0  0  0  0  0  0  0  0
   41.5422    0.4428   -9.1950 C   0  0  2  0  0  0  0  0  0  0  0  0
   40.7874   -0.2506  -10.2003 N   0  0  0  0  0  0  0  0  0  0  0  0
   41.5079   -0.4593   -2.7530 C   0  0  2  0  0  0  0  0  0  0  0  0
   40.9207   -0.1724   -1.4923 O   0  0  0  0  0  0  0  0  0  0  0  0
   38.2395    1.8850    0.2821 C   0  0  1  0  0  0  0  0  0  0  0  0
   38.6461    3.1566   -0.3384 O   0  0  0  0  0  0  0  0  0  0  0  0
   43.5592    9.9803   -1.1151 C   0  0  0  0  0  0  0  0  0  0  0  0
   40.7639   -5.0318   -8.9514 C   0  0  2  0  0  0  0  0  0  0  0  0
   40.3828   -5.6229  -10.2570 O   0  0  0  0  0  0  0  0  0  0  0  0
   41.5179   -0.3876   -7.8461 C   0  0  2  0  0  0  0  0  0  0  0  0
   42.5631   -1.5900   -2.7098 C   0  0  1  0  0  0  0  0  0  0  0  0
   36.9642    1.2350   -0.4908 C   0  0  2  0  0  0  0  0  0  0  0  0
   36.5524   -0.0366    0.1238 O   0  0  0  0  0  0  0  0  0  0  0  0
   43.7260    9.1061   -0.0130 C   0  0  0  0  0  0  0  0  0  0  0  0
   39.8665   -3.7606   -8.6935 C   0  0  2  0  0  0  0  0  0  0  0  0
   40.2886   -3.2275   -7.4080 O   0  0  0  0  0  0  0  0  0  0  0  0
   42.3550    0.4045   -6.7827 C   0  0  2  0  0  0  0  0  0  0  0  0
   42.2757   -0.4289   -5.6327 O   0  0  0  0  0  0  0  0  0  0  0  0
   41.9514   -2.9679   -2.9576 C   0  0  0  0  0  0  0  0  0  0  0  0
   41.3260   -3.1370   -4.2072 O   0  0  0  0  0  0  0  0  0  0  0  0
   37.3401    0.9918   -2.0245 C   0  0  1  0  0  0  0  0  0  0  0  0
   38.5663    0.1043   -2.0838 O   0  0  0  0  0  0  0  0  0  0  0  0
   43.7733    7.6445   -0.2493 C   0  0  0  0  0  0  0  0  0  0  0  0
   38.4593   -4.1916   -8.7023 C   0  0  0  0  0  0  0  0  0  0  0  0
   37.6688   -3.1390   -8.4577 O   0  0  0  0  0  0  0  0  0  0  0  0
   41.7288    1.8406   -6.5322 C   0  0  1  0  0  0  0  0  0  0  0  0
   42.4873    2.5333   -5.5959 O   0  0  0  0  0  0  0  0  0  0  0  0
   43.1357    2.3613   -1.5579 C   0  0  0  0  0  0  0  0  0  0  0  0
   36.0945    0.3628   -2.7059 C   0  0  0  0  0  0  0  0  0  0  0  0
   34.9292    1.1838   -2.4898 N   0  0  0  0  0  0  0  0  0  0  0  0
   42.1665    3.4708   -1.9787 C   0  0  0  0  0  0  0  0  0  0  0  0
   42.5490    4.7512   -1.2997 N   0  0  0  0  0  0  0  0  0  0  0  0
   43.6922    5.5542   -1.9766 C   0  0  0  0  0  0  0  0  0  0  0  0
  1  2  1  6  0  0  0
  1  9  1  0  0  0  0
  1 35  1  0  0  0  0
  3  4  1  1  0  0  0
  3 11  1  0  0  0  0
  3 45  1  0  0  0  0
  5  6  1  0  0  0  0
  5 12  1  0  0  0  0
  5 37  1  6  0  0  0
  6 30  1  0  0  0  0
  7 14  1  0  0  0  0
  7 41  1  0  0  0  0
  7 23  1  1  0  0  0
  8 16  2  0  0  0  0
  8 42  1  0  0  0  0
  9 10  1  6  0  0  0
  9 18  1  0  0  0  0
 11 20  1  0  0  0  0
 12 13  1  1  0  0  0
 12 22  1  0  0  0  0
 13 47  1  0  0  0  0
 14 15  1  6  0  0  0
 14 24  1  0  0  0  0
 16 17  1  0  0  0  0
 17 26  2  0  0  0  0
 18 19  1  1  0  0  0
 18 27  1  0  0  0  0
 20 21  1  6  0  0  0
 20 29  1  0  0  0  0
 22 23  1  1  0  0  0
 22 30  1  0  0  0  0
 24 25  1  6  0  0  0
 24 31  1  0  0  0  0
 26 33  1  0  0  0  0
 27 28  1  6  0  0  0
 27 34  1  0  0  0  0
 29  2  1  6  0  0  0
 29 36  1  0  0  0  0
 30 38  1  6  0  0  0
 31 32  1  1  0  0  0
 31 40  1  0  0  0  0
 33 42  2  0  0  0  0
 34 35  1  0  0  0  0
 34 43  1  1  0  0  0
 36 37  1  1  0  0  0
 36 45  1  0  0  0  0
 38 39  1  0  0  0  0
 40 41  1  0  0  0  0
 40 48  1  6  0  0  0
 43 44  1  0  0  0  0
 45 46  1  1  0  0  0
 47 50  1  0  0  0  0
 48 49  1  0  0  0  0
 50 51  1  0  0  0  0
 51 52  1  0  0  0  0
 52  8  1  0  0  0  0
M  END
>  <CHROM.1>
-167.50173468,-146.01783118,-174.54484848,-175.58633469,-58.45934577,68.31433829
-157.09131382,-55.22940445,178.71025964,172.46488483,54.12958846,-146.21318574
82.20125079,155.46020723,-118.95037621,41.10911991,0.57868770,-4.46421549
-1.68220555,0.82751085,0.74362323

>  <Name>
2be0_lig

>  <RI>
0

>  <Rbt.Current_Directory>
/home/itssahil/PROJECTS/Mol_Feturizer/New_Systems/rnas/2be0

>  <Rbt.Executable>
rbdock ($Id: //depot/dev/client3/rdock/2013.1/src/exe/rbdock.cxx#4 $)

>  <Rbt.Library>
libRbt.so (2013.1, Build901 2013/11/27)

>  <Rbt.Parameter_File>
/export/apps/rDock/src/rDock_2013.1_src/data/scripts/dock_solv.prm

>  <Rbt.Receptor>
prm/pocket_docking_7.prm

>  <SCORE>
-20.6337

>  <SCORE.INTER>
-3.36232

>  <SCORE.INTER.CONST>
1

>  <SCORE.INTER.POLAR>
-0.979796

>  <SCORE.INTER.ROT>
15

>  <SCORE.INTER.SOLV>
12.1286

>  <SCORE.INTER.VDW>
-16.6184

>  <SCORE.INTER.norm>
-0.06466

>  <SCORE.INTRA>
-17.2714

>  <SCORE.INTRA.DIHEDRAL>
-34.1179

>  <SCORE.INTRA.DIHEDRAL.0>
47.8724

>  <SCORE.INTRA.POLAR>
0

>  <SCORE.INTRA.POLAR.0>
0

>  <SCORE.INTRA.REPUL>
0.0273838

>  <SCORE.INTRA.REPUL.0>
0

>  <SCORE.INTRA.SOLV>
-2.27552

>  <SCORE.INTRA.SOLV.lig_0>
-115.677

>  <SCORE.INTRA.VDW>
0.788371

>  <SCORE.INTRA.VDW.0>
-7.4833

>  <SCORE.INTRA.norm>
-0.332143

>  <SCORE.RESTR>
0

>  <SCORE.RESTR.CAVITY>
0

>  <SCORE.RESTR.norm>
0

>  <SCORE.SYSTEM>
0

>  <SCORE.SYSTEM.CONST>
0

>  <SCORE.SYSTEM.DIHEDRAL>
0

>  <SCORE.SYSTEM.SOLV>
0

>  <SCORE.SYSTEM.norm>
0

>  <SCORE.heavy>
52

>  <SCORE.norm>
-0.396803

>  <RMSD>
9.737

$$$$
2be0_lig
 OpenBabel11021811423D
libRbt.so/2013.1/901 2013/11/27
 52 56  0  0  0  0  0  0  0  0999 V2000
   43.5449    0.4731   -3.0347 C   0  0  2  0  0  0  0  0  0  0  0  0
   43.0516    1.2893   -4.0708 O   0  0  0  0  0  0  0  0  0  0  0  0
   44.0722    5.2514   -2.4488 C   0  0  2  0  0  0  0  0  0  0  0  0
   44.1628    6.7345   -2.3410 N   0  0  0  0  0  0  0  0  0  0  0  0
   40.1684    3.4732   -3.2305 C   0  0  2  0  0  0  0  0  0  0  0  0
   38.8523    2.9584   -2.9418 O   0  0  0  0  0  0  0  0  0  0  0  0
   40.2088    1.7307   -7.4191 C   0  0  1  0  0  0  0  0  0  0  0  0
   43.6120    8.0612   -8.3957 C   0  0  0  0  0  0  0  0  0  0  0  0
   43.5048   -1.0562   -3.4412 C   0  0  2  0  0  0  0  0  0  0  0  0
   44.2145   -1.2512   -4.7072 N   0  0  0  0  0  0  0  0  0  0  0  0
   44.7065    4.7887   -3.8388 C   0  0  0  0  0  0  0  0  0  0  0  0
   40.3322    3.4387   -4.7583 C   0  0  2  0  0  0  0  0  0  0  0  0
   39.7121    4.7244   -5.2055 O   0  0  0  0  0  0  0  0  0  0  0  0
   39.4157    1.5083   -8.8201 C   0  0  2  0  0  0  0  0  0  0  0  0
   38.5739    0.2738   -8.7048 N   0  0  0  0  0  0  0  0  0  0  0  0
   42.9196    7.5346   -9.5351 C   0  0  0  0  0  0  0  0  0  0  0  0
   42.9764    8.2257  -10.7738 N   0  0  0  0  0  0  0  0  0  0  0  0
   41.9867   -1.5506   -3.5241 C   0  0  1  0  0  0  0  0  0  0  0  0
   41.9726   -2.9199   -3.8967 O   0  0  0  0  0  0  0  0  0  0  0  0
   44.6138    3.1657   -4.0027 C   0  0  2  0  0  0  0  0  0  0  0  0
   45.1833    2.7361   -5.2487 N   0  0  0  0  0  0  0  0  0  0  0  0
   39.6165    2.1045   -5.0420 C   0  0  2  0  0  0  0  0  0  0  0  0
   39.2188    1.8582   -6.3827 O   0  0  0  0  0  0  0  0  0  0  0  0
   40.4768    1.3548   -9.9513 C   0  0  1  0  0  0  0  0  0  0  0  0
   41.2276    2.6207   -9.9842 O   0  0  0  0  0  0  0  0  0  0  0  0
   43.6973    9.4410  -10.9512 C   0  0  0  0  0  0  0  0  0  0  0  0
   41.3144   -1.3199   -2.1395 C   0  0  2  0  0  0  0  0  0  0  0  0
   39.8976   -1.7575   -2.1556 O   0  0  0  0  0  0  0  0  0  0  0  0
   43.1007    2.7032   -3.9234 C   0  0  2  0  0  0  0  0  0  0  0  0
   38.4451    2.1052   -4.0312 C   0  0  1  0  0  0  0  0  0  0  0  0
   41.4573    0.0980   -9.6275 C   0  0  2  0  0  0  0  0  0  0  0  0
   40.7135   -1.1708   -9.5926 O   0  0  0  0  0  0  0  0  0  0  0  0
   44.4020   10.0087   -9.8612 C   0  0  0  0  0  0  0  0  0  0  0  0
   41.3647    0.2082   -1.7521 C   0  0  2  0  0  0  0  0  0  0  0  0
   42.7717    0.5757   -1.7573 O   0  0  0  0  0  0  0  0  0  0  0  0
   42.5241    3.1902   -2.5488 C   0  0  2  0  0  0  0  0  0  0  0  0
   41.1839    2.7149   -2.5815 O   0  0  0  0  0  0  0  0  0  0  0  0
   38.1847    0.7208   -3.4397 C   0  0  0  0  0  0  0  0  0  0  0  0
   37.7521   -0.2573   -4.3549 O   0  0  0  0  0  0  0  0  0  0  0  0
   42.1783    0.3352   -8.2215 C   0  0  1  0  0  0  0  0  0  0  0  0
   41.1131    0.5259   -7.1615 O   0  0  0  0  0  0  0  0  0  0  0  0
   44.3733    9.3263   -8.5468 C   0  0  0  0  0  0  0  0  0  0  0  0
   40.7363    0.3601   -0.4300 C   0  0  0  0  0  0  0  0  0  0  0  0
   39.4139    0.1832   -0.5415 O   0  0  0  0  0  0  0  0  0  0  0  0
   42.6017    4.7710   -2.4363 C   0  0  1  0  0  0  0  0  0  0  0  0
   42.0970    5.1857   -1.2096 O   0  0  0  0  0  0  0  0  0  0  0  0
   40.2613    5.7311   -6.1442 C   0  0  0  0  0  0  0  0  0  0  0  0
   43.0884   -0.8959   -7.9615 C   0  0  0  0  0  0  0  0  0  0  0  0
   44.1130   -0.9918   -8.9713 N   0  0  0  0  0  0  0  0  0  0  0  0
   41.6689    6.0867   -5.6549 C   0  0  0  0  0  0  0  0  0  0  0  0
   42.1332    7.3377   -6.3375 N   0  0  0  0  0  0  0  0  0  0  0  0
   43.5315    7.2575   -7.0073 C   0  0  0  0  0  0  0  0  0  0  0  0
  1  2  1  6  0  0  0
  1  9  1  0  0  0  0
  1 35  1  0  0  0  0
  3  4  1  6  0  0  0
  3 11  1  0  0  0  0
  3 45  1  0  0  0  0
  5  6  1  0  0  0  0
  5 12  1  0  0  0  0
  5 37  1  1  0  0  0
  6 30  1  0  0  0  0
  7 14  1  0  0  0  0
  7 41  1  0  0  0  0
  7 23  1  1  0  0  0
  8 16  2  0  0  0  0
  8 42  1  0  0  0  0
  9 10  1  6  0  0  0
  9 18  1  0  0  0  0
 11 20  1  0  0  0  0
 12 13  1  6  0  0  0
 12 22  1  0  0  0  0
 13 47  1  0  0  0  0
 14 15  1  1  0  0  0
 14 24  1  0  0  0  0
 16 17  1  0  0  0  0
 17 26  2  0  0  0  0
 18 19  1  1  0  0  0
 18 27  1  0  0  0  0
 20 21  1  6  0  0  0
 20 29  1  0  0  0  0
 22 23  1  6  0  0  0
 22 30  1  0  0  0  0
 24 25  1  1  0  0  0
 24 31  1  0  0  0  0
 26 33  1  0  0  0  0
 27 28  1  6  0  0  0
 27 34  1  0  0  0  0
 29  2  1  1  0  0  0
 29 36  1  0  0  0  0
 30 38  1  1  0  0  0
 31 32  1  1  0  0  0
 31 40  1  0  0  0  0
 33 42  2  0  0  0  0
 34 35  1  0  0  0  0
 34 43  1  1  0  0  0
 36 37  1  6  0  0  0
 36 45  1  0  0  0  0
 38 39  1  0  0  0  0
 40 41  1  0  0  0  0
 40 48  1  1  0  0  0
 43 44  1  0  0  0  0
 45 46  1  1  0  0  0
 47 50  1  0  0  0  0
 48 49  1  0  0  0  0
 50 51  1  0  0  0  0
 51 52  1  0  0  0  0
 52  8  1  0  0  0  0
M  END
>  <CHROM.1>
-175.49283815,-169.16430190,-178.06426859,131.84597382,-52.14542504,63.91445227
69.95718585,179.03427217,-71.66435164,-84.26377514,62.79090615,-165.42222338
-128.88655229,142.41093881,-71.14386660,41.72208551,2.61158134,-5.35202329
-2.42152369,-1.26218209,-1.42426601

>  <Name>
2be0_lig

>  <RI>
2.75444e+07

>  <Rbt.Current_Directory>
/home/itssahil/PROJECTS/Mol_Feturizer/New_Systems/rnas/2be0

>  <Rbt.Executable>
rbdock ($Id: //depot/dev/client3/rdock/2013.1/src/exe/rbdock.cxx#4 $)

>  <Rbt.Library>
libRbt.so (2013.1, Build901 2013/11/27)

>  <Rbt.Parameter_File>
/export/apps/rDock/src/rDock_2013.1_src/data/scripts/dock_solv.prm

>  <Rbt.Receptor>
prm/pocket_docking_5.prm

>  <SCORE>
-28.7798

>  <SCORE.INTER>
-12.3542

>  <SCORE.INTER.CONST>
1

>  <SCORE.INTER.POLAR>
-0.894427

>  <SCORE.INTER.ROT>
15

>  <SCORE.INTER.SOLV>
13.9199

>  <SCORE.INTER.VDW>
-23.4947

>  <SCORE.INTER.norm>
-0.23758

>  <SCORE.INTRA>
-16.4457

>  <SCORE.INTRA.DIHEDRAL>
-33.5709

>  <SCORE.INTRA.DIHEDRAL.0>
47.8724

>  <SCORE.INTRA.POLAR>
0

>  <SCORE.INTRA.POLAR.0>
0

>  <SCORE.INTRA.REPUL>
0

>  <SCORE.INTRA.REPUL.0>
0

>  <SCORE.INTRA.SOLV>
-0.458534

>  <SCORE.INTRA.SOLV.lig_0>
-115.677

>  <SCORE.INTRA.VDW>
0.568968

>  <SCORE.INTRA.VDW.0>
-7.4833

>  <SCORE.INTRA.norm>
-0.316264

>  <SCORE.RESTR>
0.0200877

>  <SCORE.RESTR.CAVITY>
0.0200877

>  <SCORE.RESTR.norm>
0.000386303

>  <SCORE.SYSTEM>
0

>  <SCORE.SYSTEM.CONST>
0

>  <SCORE.SYSTEM.DIHEDRAL>
0

>  <SCORE.SYSTEM.SOLV>
0

>  <SCORE.SYSTEM.norm>
0

>  <SCORE.heavy>
52

>  <SCORE.norm>
-0.553458

>  <RMSD>
9.739

$$$$
2be0_lig
 OpenBabel11021811423D
libRbt.so/2013.1/901 2013/11/27
 52 56  0  0  0  0  0  0  0  0999 V2000
   40.7384    6.5370   -1.9402 C   0  0  2  0  0  0  0  0  0  0  0  0
   40.5964    7.9177   -1.7025 O   0  0  0  0  0  0  0  0  0  0  0  0
   43.4370   11.1149   -0.6635 C   0  0  2  0  0  0  0  0  0  0  0  0
   44.4892   11.8586    0.0843 N   0  0  0  0  0  0  0  0  0  0  0  0
   42.8206    7.2028   -3.6933 C   0  0  2  0  0  0  0  0  0  0  0  0
   42.9739    5.7711   -3.7772 O   0  0  0  0  0  0  0  0  0  0  0  0
   46.4301    5.6480   -6.2928 C   0  0  1  0  0  0  0  0  0  0  0  0
   43.8113    8.9469  -10.3370 C   0  0  0  0  0  0  0  0  0  0  0  0
   39.3285    5.8332   -2.0905 C   0  0  2  0  0  0  0  0  0  0  0  0
   38.5437    6.5116   -3.1241 N   0  0  0  0  0  0  0  0  0  0  0  0
   42.2199   10.8004    0.3204 C   0  0  0  0  0  0  0  0  0  0  0  0
   43.6210    7.8031   -4.8601 C   0  0  2  0  0  0  0  0  0  0  0  0
   42.6614    7.7499   -6.0063 O   0  0  0  0  0  0  0  0  0  0  0  0
   47.9972    6.0359   -6.1052 C   0  0  2  0  0  0  0  0  0  0  0  0
   48.3249    7.1706   -7.0275 N   0  0  0  0  0  0  0  0  0  0  0  0
   45.1185    9.2258   -9.8191 C   0  0  0  0  0  0  0  0  0  0  0  0
   45.7805   10.4256  -10.1898 N   0  0  0  0  0  0  0  0  0  0  0  0
   38.5786    5.8254   -0.6786 C   0  0  1  0  0  0  0  0  0  0  0  0
   37.3155    5.1978   -0.8365 O   0  0  0  0  0  0  0  0  0  0  0  0
   41.0478    9.9711   -0.4594 C   0  0  2  0  0  0  0  0  0  0  0  0
   39.9456    9.6837    0.4146 N   0  0  0  0  0  0  0  0  0  0  0  0
   44.8312    6.8506   -4.8303 C   0  0  2  0  0  0  0  0  0  0  0  0
   45.6589    6.8229   -5.9839 O   0  0  0  0  0  0  0  0  0  0  0  0
   48.8464    4.7753   -6.4500 C   0  0  1  0  0  0  0  0  0  0  0  0
   48.4563    3.7395   -5.4792 O   0  0  0  0  0  0  0  0  0  0  0  0
   45.2065   11.3882  -11.0684 C   0  0  0  0  0  0  0  0  0  0  0  0
   39.4724    5.0773    0.3528 C   0  0  2  0  0  0  0  0  0  0  0  0
   38.8286    5.0408    1.6882 O   0  0  0  0  0  0  0  0  0  0  0  0
   41.6379    8.6171   -1.0321 C   0  0  2  0  0  0  0  0  0  0  0  0
   44.2005    5.4821   -4.4790 C   0  0  1  0  0  0  0  0  0  0  0  0
   48.5397    4.2978   -7.9744 C   0  0  2  0  0  0  0  0  0  0  0  0
   48.9268    5.3284   -8.9502 O   0  0  0  0  0  0  0  0  0  0  0  0
   43.9165   11.1676  -11.6107 C   0  0  0  0  0  0  0  0  0  0  0  0
   40.8715    5.7926    0.4881 C   0  0  2  0  0  0  0  0  0  0  0  0
   41.4474    5.8001   -0.8473 O   0  0  0  0  0  0  0  0  0  0  0  0
   42.8327    8.9805   -1.9805 C   0  0  2  0  0  0  0  0  0  0  0  0
   43.2704    7.7076   -2.4402 O   0  0  0  0  0  0  0  0  0  0  0  0
   45.0747    4.6638   -3.5301 C   0  0  0  0  0  0  0  0  0  0  0  0
   44.3934    3.7132   -2.7469 O   0  0  0  0  0  0  0  0  0  0  0  0
   46.9825    3.9739   -8.1264 C   0  0  1  0  0  0  0  0  0  0  0  0
   46.1949    5.2080   -7.7373 O   0  0  0  0  0  0  0  0  0  0  0  0
   43.1841    9.9300  -11.2553 C   0  0  0  0  0  0  0  0  0  0  0  0
   41.6767    5.0308    1.4563 C   0  0  0  0  0  0  0  0  0  0  0  0
   41.3178    5.3710    2.7006 O   0  0  0  0  0  0  0  0  0  0  0  0
   43.9645    9.7571   -1.1846 C   0  0  1  0  0  0  0  0  0  0  0  0
   45.0107   10.0808   -2.0404 O   0  0  0  0  0  0  0  0  0  0  0  0
   41.8275    6.6093   -6.4535 C   0  0  0  0  0  0  0  0  0  0  0  0
   46.7486    3.5361   -9.5979 C   0  0  0  0  0  0  0  0  0  0  0  0
   45.3710    3.7354   -9.9736 N   0  0  0  0  0  0  0  0  0  0  0  0
   42.3148    6.2121   -7.8507 C   0  0  0  0  0  0  0  0  0  0  0  0
   43.2242    7.2779   -8.3835 N   0  0  0  0  0  0  0  0  0  0  0  0
   43.0853    7.5824   -9.8995 C   0  0  0  0  0  0  0  0  0  0  0  0
  1  2  1  1  0  0  0
  1  9  1  0  0  0  0
  1 35  1  0  0  0  0
  3  4  1  1  0  0  0
  3 11  1  0  0  0  0
  3 45  1  0  0  0  0
  5  6  1  0  0  0  0
  5 12  1  0  0  0  0
  5 37  1  1  0  0  0
  6 30  1  0  0  0  0
  7 14  1  0  0  0  0
  7 41  1  0  0  0  0
  7 23  1  6  0  0  0
  8 16  2  0  0  0  0
  8 42  1  0  0  0  0
  9 10  1  6  0  0  0
  9 18  1  0  0  0  0
 11 20  1  0  0  0  0
 12 13  1  6  0  0  0
 12 22  1  0  0  0  0
 13 47  1  0  0  0  0
 14 15  1  6  0  0  0
 14 24  1  0  0  0  0
 16 17  1  0  0  0  0
 17 26  2  0  0  0  0
 18 19  1  6  0  0  0
 18 27  1  0  0  0  0
 20 21  1  1  0  0  0
 20 29  1  0  0  0  0
 22 23  1  6  0  0  0
 22 30  1  0  0  0  0
 24 25  1  1  0  0  0
 24 31  1  0  0  0  0
 26 33  1  0  0  0  0
 27 28  1  1  0  0  0
 27 34  1  0  0  0  0
 29  2  1  6  0  0  0
 29 36  1  0  0  0  0
 30 38  1  1  0  0  0
 31 32  1  6  0  0  0
 31 40  1  0  0  0  0
 33 42  2  0  0  0  0
 34 35  1  0  0  0  0
 34 43  1  1  0  0  0
 36 37  1  1  0  0  0
 36 45  1  0  0  0  0
 38 39  1  0  0  0  0
 40 41  1  0  0  0  0
 40 48  1  6  0  0  0
 43 44  1  0  0  0  0
 45 46  1  6  0  0  0
 47 50  1  0  0  0  0
 48 49  1  0  0  0  0
 50 51  1  0  0  0  0
 51 52  1  0  0  0  0
 52  8  1  0  0  0  0
M  END
>  <CHROM.1>
155.23390304,-159.89158883,-112.37241492,-48.13721243,-115.32253480,-154.22167380
-160.78249548,38.83417418,-80.69041600,96.62308520,-157.16504059,-12.40855057
-141.69815507,166.16954248,43.67375575,43.51057261,6.99973035,-4.42990654
2.51919963,-0.87209457,2.36579868

>  <Name>
2be0_lig

>  <RI>
224

>  <Rbt.Current_Directory>
/home/itssahil/PROJECTS/Mol_Feturizer/New_Systems/rnas/2be0

>  <Rbt.Executable>
rbdock ($Id: //depot/dev/client3/rdock/2013.1/src/exe/rbdock.cxx#4 $)

>  <Rbt.Library>
libRbt.so (2013.1, Build901 2013/11/27)

>  <Rbt.Parameter_File>
/export/apps/rDock/src/rDock_2013.1_src/data/scripts/dock_solv.prm

>  <Rbt.Receptor>
prm/blind_docking_100.prm

>  <SCORE>
23.776

>  <SCORE.INTER>
5.55999

>  <SCORE.INTER.CONST>
1

>  <SCORE.INTER.POLAR>
-0.253514

>  <SCORE.INTER.ROT>
15

>  <SCORE.INTER.SOLV>
27.564

>  <SCORE.INTER.VDW>
-18.2363

>  <SCORE.INTER.norm>
0.106923

>  <SCORE.INTRA>
-1.23671

>  <SCORE.INTRA.DIHEDRAL>
-7.85713

>  <SCORE.INTRA.DIHEDRAL.0>
47.8724

>  <SCORE.INTRA.POLAR>
0

>  <SCORE.INTRA.POLAR.0>
0

>  <SCORE.INTRA.REPUL>
0.0260023

>  <SCORE.INTRA.REPUL.0>
0

>  <SCORE.INTRA.SOLV>
-1.33221

>  <SCORE.INTRA.SOLV.lig_0>
-115.677

>  <SCORE.INTRA.VDW>
3.22796

>  <SCORE.INTRA.VDW.0>
-7.4833

>  <SCORE.INTRA.norm>
-0.0237828

>  <SCORE.RESTR>
19.4528

>  <SCORE.RESTR.CAVITY>
19.4528

>  <SCORE.RESTR.norm>
0.374091

>  <SCORE.SYSTEM>
0

>  <SCORE.SYSTEM.CONST>
0

>  <SCORE.SYSTEM.DIHEDRAL>
0

>  <SCORE.SYSTEM.SOLV>
0

>  <SCORE.SYSTEM.norm>
0

>  <SCORE.heavy>
52

>  <SCORE.norm>
0.457232

>  <RMSD>
9.741

$$$$
2be0_lig
 OpenBabel11021811423D
libRbt.so/2013.1/901 2013/11/27
 52 56  0  0  0  0  0  0  0  0999 V2000
   39.6577    1.9733   -4.8038 C   0  0  2  0  0  0  0  0  0  0  0  0
   38.6463    2.0418   -3.8264 O   0  0  0  0  0  0  0  0  0  0  0  0
   38.3827    3.3218    0.3764 C   0  0  2  0  0  0  0  0  0  0  0  0
   38.7505    3.4892    1.8103 N   0  0  0  0  0  0  0  0  0  0  0  0
   40.2214    5.7237   -3.0179 C   0  0  2  0  0  0  0  0  0  0  0  0
   39.4212    6.3572   -4.0370 O   0  0  0  0  0  0  0  0  0  0  0  0
   43.9456    5.8201   -5.7277 C   0  0  1  0  0  0  0  0  0  0  0  0
   40.2131    9.1768    0.2198 C   0  0  0  0  0  0  0  0  0  0  0  0
   39.0785    1.4887   -6.1950 C   0  0  2  0  0  0  0  0  0  0  0  0
   37.9597    2.3463   -6.5917 N   0  0  0  0  0  0  0  0  0  0  0  0
   38.3298    1.7647    0.0287 C   0  0  0  0  0  0  0  0  0  0  0  0
   41.6888    6.0459   -3.3428 C   0  0  2  0  0  0  0  0  0  0  0  0
   41.9027    7.3819   -2.7050 O   0  0  0  0  0  0  0  0  0  0  0  0
   45.1129    6.8730   -5.3152 C   0  0  2  0  0  0  0  0  0  0  0  0
   45.0444    8.0519   -6.2378 N   0  0  0  0  0  0  0  0  0  0  0  0
   39.6638    8.8988   -1.0747 C   0  0  0  0  0  0  0  0  0  0  0  0
   38.4255    8.2128   -1.1806 N   0  0  0  0  0  0  0  0  0  0  0  0
   38.6476   -0.0474   -6.0920 C   0  0  1  0  0  0  0  0  0  0  0  0
   38.1248   -0.4595   -7.3453 O   0  0  0  0  0  0  0  0  0  0  0  0
   37.9426    1.5377   -1.5425 C   0  0  2  0  0  0  0  0  0  0  0  0
   37.8896    0.1403   -1.8677 N   0  0  0  0  0  0  0  0  0  0  0  0
   41.6206    5.9326   -4.8775 C   0  0  2  0  0  0  0  0  0  0  0  0
   42.6879    6.5101   -5.6149 O   0  0  0  0  0  0  0  0  0  0  0  0
   46.4836    6.1428   -5.4459 C   0  0  1  0  0  0  0  0  0  0  0  0
   46.4447    5.0227   -4.4913 O   0  0  0  0  0  0  0  0  0  0  0  0
   37.6829    7.7740   -0.0474 C   0  0  0  0  0  0  0  0  0  0  0  0
   39.8932   -0.8846   -5.6802 C   0  0  2  0  0  0  0  0  0  0  0  0
   39.5535   -2.3235   -5.5641 O   0  0  0  0  0  0  0  0  0  0  0  0
   39.0079    2.2579   -2.4677 C   0  0  2  0  0  0  0  0  0  0  0  0
   40.2319    6.5239   -5.2183 C   0  0  1  0  0  0  0  0  0  0  0  0
   46.6871    5.6100   -6.9693 C   0  0  2  0  0  0  0  0  0  0  0  0
   46.7266    6.7243   -7.9292 O   0  0  0  0  0  0  0  0  0  0  0  0
   38.1754    8.0215    1.2577 C   0  0  0  0  0  0  0  0  0  0  0  0
   40.4556   -0.3870   -4.2932 C   0  0  2  0  0  0  0  0  0  0  0  0
   40.7647    1.0230   -4.4699 O   0  0  0  0  0  0  0  0  0  0  0  0
   39.0279    3.7771   -2.0795 C   0  0  2  0  0  0  0  0  0  0  0  0
   39.9961    4.3185   -2.9699 O   0  0  0  0  0  0  0  0  0  0  0  0
   39.5363    5.7648   -6.3471 C   0  0  0  0  0  0  0  0  0  0  0  0
   38.3067    6.3028   -6.7709 O   0  0  0  0  0  0  0  0  0  0  0  0
   45.4937    4.6179   -7.3490 C   0  0  1  0  0  0  0  0  0  0  0  0
   44.1815    5.3515   -7.1632 O   0  0  0  0  0  0  0  0  0  0  0  0
   39.4640    8.7333    1.4219 C   0  0  0  0  0  0  0  0  0  0  0  0
   41.6399   -1.1982   -3.9685 C   0  0  0  0  0  0  0  0  0  0  0  0
   42.1856   -0.7549   -2.8290 O   0  0  0  0  0  0  0  0  0  0  0  0
   39.4368    3.9619   -0.5577 C   0  0  1  0  0  0  0  0  0  0  0  0
   39.4399    5.3118   -0.2268 O   0  0  0  0  0  0  0  0  0  0  0  0
   43.1422    8.1935   -2.6673 C   0  0  0  0  0  0  0  0  0  0  0  0
   45.7341    4.1525   -8.8109 C   0  0  0  0  0  0  0  0  0  0  0  0
   46.8454    3.2362   -8.8753 N   0  0  0  0  0  0  0  0  0  0  0  0
   42.8084    9.4968   -1.9342 C   0  0  0  0  0  0  0  0  0  0  0  0
   42.7593    9.2404   -0.4582 N   0  0  0  0  0  0  0  0  0  0  0  0
   41.6151    9.9558    0.3095 C   0  0  0  0  0  0  0  0  0  0  0  0
  1  2  1  1  0  0  0
  1  9  1  0  0  0  0
  1 35  1  0  0  0  0
  3  4  1  1  0  0  0
  3 11  1  0  0  0  0
  3 45  1  0  0  0  0
  5  6  1  0  0  0  0
  5 12  1  0  0  0  0
  5 37  1  6  0  0  0
  6 30  1  0  0  0  0
  7 14  1  0  0  0  0
  7 41  1  0  0  0  0
  7 23  1  6  0  0  0
  8 16  2  0  0  0  0
  8 42  1  0  0  0  0
  9 10  1  1  0  0  0
  9 18  1  0  0  0  0
 11 20  1  0  0  0  0
 12 13  1  6  0  0  0
 12 22  1  0  0  0  0
 13 47  1  0  0  0  0
 14 15  1  6  0  0  0
 14 24  1  0  0  0  0
 16 17  1  0  0  0  0
 17 26  2  0  0  0  0
 18 19  1  6  0  0  0
 18 27  1  0  0  0  0
 20 21  1  6  0  0  0
 20 29  1  0  0  0  0
 22 23  1  6  0  0  0
 22 30  1  0  0  0  0
 24 25  1  1  0  0  0
 24 31  1  0  0  0  0
 26 33  1  0  0  0  0
 27 28  1  1  0  0  0
 27 34  1  0  0  0  0
 29  2  1  6  0  0  0
 29 36  1  0  0  0  0
 30 38  1  6  0  0  0
 31 32  1  6  0  0  0
 31 40  1  0  0  0  0
 33 42  2  0  0  0  0
 34 35  1  0  0  0  0
 34 43  1  6  0  0  0
 36 37  1  6  0  0  0
 36 45  1  0  0  0  0
 38 39  1  0  0  0  0
 40 41  1  0  0  0  0
 40 48  1  6  0  0  0
 43 44  1  0  0  0  0
 45 46  1  1  0  0  0
 47 50  1  0  0  0  0
 48 49  1  0  0  0  0
 50 51  1  0  0  0  0
 51 52  1  0  0  0  0
 52  8  1  0  0  0  0
M  END
>  <CHROM.1>
170.39803873,-93.25102315,-129.23717398,178.93971747,177.99028471,78.49396232
-149.23548970,67.83110511,176.75061332,174.18248766,72.16833452,77.53497264
-139.36271805,82.17015464,-56.86921588,41.11819371,4.54643387,-3.74116257
-2.10040867,0.70805164,0.55783072

>  <Name>
2be0_lig

>  <RI>
2.75444e+07

>  <Rbt.Current_Directory>
/home/itssahil/PROJECTS/Mol_Feturizer/New_Systems/rnas/2be0

>  <Rbt.Executable>
rbdock ($Id: //depot/dev/client3/rdock/2013.1/src/exe/rbdock.cxx#4 $)

>  <Rbt.Library>
libRbt.so (2013.1, Build901 2013/11/27)

>  <Rbt.Parameter_File>
/export/apps/rDock/src/rDock_2013.1_src/data/scripts/dock_solv.prm

>  <Rbt.Receptor>
prm/pocket_docking_5.prm

>  <SCORE>
-22.874

>  <SCORE.INTER>
-7.721

>  <SCORE.INTER.CONST>
1

>  <SCORE.INTER.POLAR>
-0.774139

>  <SCORE.INTER.ROT>
15

>  <SCORE.INTER.SOLV>
15.808

>  <SCORE.INTER.VDW>
-21.4362

>  <SCORE.INTER.norm>
-0.148481

>  <SCORE.INTRA>
-15.153

>  <SCORE.INTRA.DIHEDRAL>
-26.5913

>  <SCORE.INTRA.DIHEDRAL.0>
47.8724

>  <SCORE.INTRA.POLAR>
0

>  <SCORE.INTRA.POLAR.0>
0

>  <SCORE.INTRA.REPUL>
0

>  <SCORE.INTRA.REPUL.0>
0

>  <SCORE.INTRA.SOLV>
-0.950001

>  <SCORE.INTRA.SOLV.lig_0>
-115.677

>  <SCORE.INTRA.VDW>
-1.38236

>  <SCORE.INTRA.VDW.0>
-7.4833

>  <SCORE.INTRA.norm>
-0.291404

>  <SCORE.RESTR>
0

>  <SCORE.RESTR.CAVITY>
0

>  <SCORE.RESTR.norm>
0

>  <SCORE.SYSTEM>
0

>  <SCORE.SYSTEM.CONST>
0

>  <SCORE.SYSTEM.DIHEDRAL>
0

>  <SCORE.SYSTEM.SOLV>
0

>  <SCORE.SYSTEM.norm>
0

>  <SCORE.heavy>
52

>  <SCORE.norm>
-0.439885

>  <RMSD>
9.744

$$$$
2be0_lig
 OpenBabel11021811423D
libRbt.so/2013.1/901 2013/11/27
 52 56  0  0  0  0  0  0  0  0999 V2000
   51.8968   -0.5856   -7.6846 C   0  0  2  0  0  0  0  0  0  0  0  0
   51.5496    0.7293   -8.0496 O   0  0  0  0  0  0  0  0  0  0  0  0
   49.2814    2.3591  -11.4510 C   0  0  2  0  0  0  0  0  0  0  0  0
   48.1880    2.5231  -12.4495 N   0  0  0  0  0  0  0  0  0  0  0  0
   48.8777    3.7743   -7.2041 C   0  0  2  0  0  0  0  0  0  0  0  0
   49.6934    4.5021   -6.2632 O   0  0  0  0  0  0  0  0  0  0  0  0
   45.8800    2.5241   -4.1270 C   0  0  1  0  0  0  0  0  0  0  0  0
   45.1734    9.3866   -9.3965 C   0  0  0  0  0  0  0  0  0  0  0  0
   50.8766   -1.1756   -6.6277 C   0  0  2  0  0  0  0  0  0  0  0  0
   49.5107   -1.0695   -7.1449 N   0  0  0  0  0  0  0  0  0  0  0  0
   49.8391    0.8653  -11.5273 C   0  0  0  0  0  0  0  0  0  0  0  0
   47.5342    3.5029   -6.5084 C   0  0  2  0  0  0  0  0  0  0  0  0
   46.7492    4.7499   -6.7657 O   0  0  0  0  0  0  0  0  0  0  0  0
   45.2315    2.4725   -2.6377 C   0  0  2  0  0  0  0  0  0  0  0  0
   46.2019    1.8009   -1.7142 N   0  0  0  0  0  0  0  0  0  0  0  0
   43.9323    8.6883   -9.5599 C   0  0  0  0  0  0  0  0  0  0  0  0
   43.1218    8.9510  -10.6952 N   0  0  0  0  0  0  0  0  0  0  0  0
   51.0487   -0.4148   -5.2322 C   0  0  1  0  0  0  0  0  0  0  0  0
   50.1213   -0.9526   -4.3022 O   0  0  0  0  0  0  0  0  0  0  0  0
   51.0334    0.6396  -10.4352 C   0  0  2  0  0  0  0  0  0  0  0  0
   51.5455   -0.7004  -10.4952 N   0  0  0  0  0  0  0  0  0  0  0  0
   48.0586    3.2074   -5.0905 C   0  0  2  0  0  0  0  0  0  0  0  0
   47.1149    3.2565   -4.0306 O   0  0  0  0  0  0  0  0  0  0  0  0
   43.8985    1.6695   -2.7241 C   0  0  1  0  0  0  0  0  0  0  0  0
   43.0235    2.4235   -3.6369 O   0  0  0  0  0  0  0  0  0  0  0  0
   43.4798    9.8919  -11.7025 C   0  0  0  0  0  0  0  0  0  0  0  0
   52.5186   -0.5888   -4.7512 C   0  0  2  0  0  0  0  0  0  0  0  0
   52.7413    0.1016   -3.4578 O   0  0  0  0  0  0  0  0  0  0  0  0
   50.4906    0.9355   -8.9766 C   0  0  2  0  0  0  0  0  0  0  0  0
   49.2336    4.2011   -4.9295 C   0  0  1  0  0  0  0  0  0  0  0  0
   44.1869    0.1718   -3.2895 C   0  0  2  0  0  0  0  0  0  0  0  0
   45.0613   -0.5877   -2.3823 O   0  0  0  0  0  0  0  0  0  0  0  0
   44.6954   10.6115  -11.5955 C   0  0  0  0  0  0  0  0  0  0  0  0
   53.5190    0.0040   -5.8167 C   0  0  2  0  0  0  0  0  0  0  0  0
   53.2500   -0.7068   -7.0566 O   0  0  0  0  0  0  0  0  0  0  0  0
   49.9467    2.4061   -8.9590 C   0  0  2  0  0  0  0  0  0  0  0  0
   49.5035    2.5636   -7.6166 O   0  0  0  0  0  0  0  0  0  0  0  0
   50.4150    3.5899   -4.1780 C   0  0  0  0  0  0  0  0  0  0  0  0
   51.5653    4.3972   -4.0985 O   0  0  0  0  0  0  0  0  0  0  0  0
   44.8675    0.2703   -4.7317 C   0  0  1  0  0  0  0  0  0  0  0  0
   46.1315    1.0964   -4.6110 O   0  0  0  0  0  0  0  0  0  0  0  0
   45.5765   10.3741  -10.4286 C   0  0  0  0  0  0  0  0  0  0  0  0
   54.8876   -0.2081   -5.3186 C   0  0  0  0  0  0  0  0  0  0  0  0
   55.1343   -1.5216   -5.2373 O   0  0  0  0  0  0  0  0  0  0  0  0
   48.7695    2.5816  -10.0082 C   0  0  1  0  0  0  0  0  0  0  0  0
   48.3056    3.8915   -9.9878 O   0  0  0  0  0  0  0  0  0  0  0  0
   46.0773    5.1700   -8.0180 C   0  0  0  0  0  0  0  0  0  0  0  0
   45.1285   -1.1826   -5.2139 C   0  0  0  0  0  0  0  0  0  0  0  0
   45.5888   -1.1887   -6.5802 N   0  0  0  0  0  0  0  0  0  0  0  0
   45.5037    6.5701   -7.7769 C   0  0  0  0  0  0  0  0  0  0  0  0
   46.5616    7.5963   -8.0495 N   0  0  0  0  0  0  0  0  0  0  0  0
   46.0709    9.0682   -8.1028 C   0  0  0  0  0  0  0  0  0  0  0  0
  1  2  1  1  0  0  0
  1  9  1  0  0  0  0
  1 35  1  0  0  0  0
  3  4  1  6  0  0  0
  3 11  1  0  0  0  0
  3 45  1  0  0  0  0
  5  6  1  0  0  0  0
  5 12  1  0  0  0  0
  5 37  1  1  0  0  0
  6 30  1  0  0  0  0
  7 14  1  0  0  0  0
  7 41  1  0  0  0  0
  7 23  1  1  0  0  0
  8 16  2  0  0  0  0
  8 42  1  0  0  0  0
  9 10  1  6  0  0  0
  9 18  1  0  0  0  0
 11 20  1  0  0  0  0
 12 13  1  1  0  0  0
 12 22  1  0  0  0  0
 13 47  1  0  0  0  0
 14 15  1  1  0  0  0
 14 24  1  0  0  0  0
 16 17  1  0  0  0  0
 17 26  2  0  0  0  0
 18 19  1  1  0  0  0
 18 27  1  0  0  0  0
 20 21  1  1  0  0  0
 20 29  1  0  0  0  0
 22 23  1  1  0  0  0
 22 30  1  0  0  0  0
 24 25  1  6  0  0  0
 24 31  1  0  0  0  0
 26 33  1  0  0  0  0
 27 28  1  1  0  0  0
 27 34  1  0  0  0  0
 29  2  1  1  0  0  0
 29 36  1  0  0  0  0
 30 38  1  1  0  0  0
 31 32  1  1  0  0  0
 31 40  1  0  0  0  0
 33 42  2  0  0  0  0
 34 35  1  0  0  0  0
 34 43  1  1  0  0  0
 36 37  1  1  0  0  0
 36 45  1  0  0  0  0
 38 39  1  0  0  0  0
 40 41  1  0  0  0  0
 40 48  1  1  0  0  0
 43 44  1  0  0  0  0
 45 46  1  6  0  0  0
 47 50  1  0  0  0  0
 48 49  1  0  0  0  0
 50 51  1  0  0  0  0
 51 52  1  0  0  0  0
 52  8  1  0  0  0  0
M  END
>  <CHROM.1>
-78.13681422,-112.64431041,165.38357124,76.27987106,-175.98733765,51.01874055
-77.76433737,58.31960904,63.86996669,-177.30913976,172.82078142,85.50423927
169.27119967,-70.15024147,62.55590445,48.29657807,2.67963365,-6.83011771
-0.81791236,0.54743701,-0.86076366

>  <Name>
2be0_lig

>  <RI>
3.37048e+07

>  <Rbt.Current_Directory>
/home/itssahil/PROJECTS/Mol_Feturizer/New_Systems/rnas/2be0

>  <Rbt.Executable>
rbdock ($Id: //depot/dev/client3/rdock/2013.1/src/exe/rbdock.cxx#4 $)

>  <Rbt.Library>
libRbt.so (2013.1, Build901 2013/11/27)

>  <Rbt.Parameter_File>
/export/apps/rDock/src/rDock_2013.1_src/data/scripts/dock_solv.prm

>  <Rbt.Receptor>
prm/pocket_docking_8.prm

>  <SCORE>
-24.7666

>  <SCORE.INTER>
-11.0043

>  <SCORE.INTER.CONST>
1

>  <SCORE.INTER.POLAR>
-1.21483

>  <SCORE.INTER.ROT>
15

>  <SCORE.INTER.SOLV>
16.5437

>  <SCORE.INTER.VDW>
-22.4013

>  <SCORE.INTER.norm>
-0.211621

>  <SCORE.INTRA>
-13.7623

>  <SCORE.INTRA.DIHEDRAL>
-31.6507

>  <SCORE.INTRA.DIHEDRAL.0>
47.8724

>  <SCORE.INTRA.POLAR>
0

>  <SCORE.INTRA.POLAR.0>
0

>  <SCORE.INTRA.REPUL>
0

>  <SCORE.INTRA.REPUL.0>
0

>  <SCORE.INTRA.SOLV>
-0.528868

>  <SCORE.INTRA.SOLV.lig_0>
-115.677

>  <SCORE.INTRA.VDW>
2.32747

>  <SCORE.INTRA.VDW.0>
-7.4833

>  <SCORE.INTRA.norm>
-0.264659

>  <SCORE.RESTR>
0

>  <SCORE.RESTR.CAVITY>
0

>  <SCORE.RESTR.norm>
0

>  <SCORE.SYSTEM>
0

>  <SCORE.SYSTEM.CONST>
0

>  <SCORE.SYSTEM.DIHEDRAL>
0

>  <SCORE.SYSTEM.SOLV>
0

>  <SCORE.SYSTEM.norm>
0

>  <SCORE.heavy>
52

>  <SCORE.norm>
-0.476281

>  <RMSD>
9.744

$$$$
2be0_lig
 OpenBabel11021811423D
libRbt.so/2013.1/901 2013/11/27
 52 56  0  0  0  0  0  0  0  0999 V2000
   42.5459    1.7531   -5.1603 C   0  0  2  0  0  0  0  0  0  0  0  0
   41.1488    1.8902   -5.0500 O   0  0  0  0  0  0  0  0  0  0  0  0
   38.5118    4.0569   -2.2710 C   0  0  2  0  0  0  0  0  0  0  0  0
   37.9032    4.5050   -0.9871 N   0  0  0  0  0  0  0  0  0  0  0  0
   42.5116    5.5498   -3.7180 C   0  0  2  0  0  0  0  0  0  0  0  0
   42.3070    6.2608   -4.9561 O   0  0  0  0  0  0  0  0  0  0  0  0
   46.9457    4.8051   -4.8686 C   0  0  1  0  0  0  0  0  0  0  0  0
   40.2327   10.0716   -0.2558 C   0  0  0  0  0  0  0  0  0  0  0  0
   42.9557    1.1824   -6.5788 C   0  0  2  0  0  0  0  0  0  0  0  0
   42.3800    2.0184   -7.6343 N   0  0  0  0  0  0  0  0  0  0  0  0
   38.4008    2.4678   -2.3754 C   0  0  0  0  0  0  0  0  0  0  0  0
   44.0195    5.5971   -3.4240 C   0  0  2  0  0  0  0  0  0  0  0  0
   44.1979    6.9059   -2.7221 O   0  0  0  0  0  0  0  0  0  0  0  0
   48.3641    5.5785   -5.0455 C   0  0  2  0  0  0  0  0  0  0  0  0
   48.4317    6.1470   -6.4304 N   0  0  0  0  0  0  0  0  0  0  0  0
   38.9666   10.5086   -0.7665 C   0  0  0  0  0  0  0  0  0  0  0  0
   37.8316   10.5230    0.0860 N   0  0  0  0  0  0  0  0  0  0  0  0
   42.4878   -0.3414   -6.7006 C   0  0  1  0  0  0  0  0  0  0  0  0
   42.8573   -0.8312   -7.9803 O   0  0  0  0  0  0  0  0  0  0  0  0
   39.0713    1.9334   -3.7663 C   0  0  2  0  0  0  0  0  0  0  0  0
   38.9758    0.5048   -3.8735 N   0  0  0  0  0  0  0  0  0  0  0  0
   44.5454    5.4213   -4.8611 C   0  0  2  0  0  0  0  0  0  0  0  0
   45.9017    5.7683   -5.0986 O   0  0  0  0  0  0  0  0  0  0  0  0
   49.5056    4.5433   -4.8125 C   0  0  1  0  0  0  0  0  0  0  0  0
   49.3519    4.0676   -3.4277 O   0  0  0  0  0  0  0  0  0  0  0  0
   37.8812   10.1168    1.4500 C   0  0  0  0  0  0  0  0  0  0  0  0
   43.1529   -1.1569   -5.5539 C   0  0  2  0  0  0  0  0  0  0  0  0
   42.7517   -2.5833   -5.6124 O   0  0  0  0  0  0  0  0  0  0  0  0
   40.5926    2.3700   -3.8319 C   0  0  2  0  0  0  0  0  0  0  0  0
   43.5347    6.2261   -5.7126 C   0  0  1  0  0  0  0  0  0  0  0  0
   49.3705    3.3178   -5.8735 C   0  0  2  0  0  0  0  0  0  0  0  0
   49.5227    3.7859   -7.2599 O   0  0  0  0  0  0  0  0  0  0  0  0
   39.1053    9.6762    2.0107 C   0  0  0  0  0  0  0  0  0  0  0  0
   42.7334   -0.5734   -4.1499 C   0  0  2  0  0  0  0  0  0  0  0  0
   43.1480    0.8205   -4.1563 O   0  0  0  0  0  0  0  0  0  0  0  0
   40.6462    3.9329   -3.7146 C   0  0  2  0  0  0  0  0  0  0  0  0
   42.0391    4.2089   -3.7971 O   0  0  0  0  0  0  0  0  0  0  0  0
   43.2195    5.5436   -7.0426 C   0  0  0  0  0  0  0  0  0  0  0  0
   42.2906    6.2127   -7.8616 O   0  0  0  0  0  0  0  0  0  0  0  0
   47.9449    2.6178   -5.6978 C   0  0  1  0  0  0  0  0  0  0  0  0
   46.8683    3.6668   -5.8854 O   0  0  0  0  0  0  0  0  0  0  0  0
   40.3190    9.6417    1.1622 C   0  0  0  0  0  0  0  0  0  0  0  0
   43.4073   -1.3682   -3.1106 C   0  0  0  0  0  0  0  0  0  0  0  0
   42.7930   -2.5512   -2.9850 O   0  0  0  0  0  0  0  0  0  0  0  0
   40.0154    4.4144   -2.3407 C   0  0  1  0  0  0  0  0  0  0  0  0
   40.0609    5.8009   -2.2567 O   0  0  0  0  0  0  0  0  0  0  0  0
   43.4283    7.4460   -1.5766 C   0  0  0  0  0  0  0  0  0  0  0  0
   47.8690    1.4684   -6.7393 C   0  0  0  0  0  0  0  0  0  0  0  0
   46.6440    0.7240   -6.5849 N   0  0  0  0  0  0  0  0  0  0  0  0
   43.8078    8.9232   -1.4317 C   0  0  0  0  0  0  0  0  0  0  0  0
   42.8112    9.6100   -0.5476 N   0  0  0  0  0  0  0  0  0  0  0  0
   41.5003   10.0670   -1.2425 C   0  0  0  0  0  0  0  0  0  0  0  0
  1  2  1  6  0  0  0
  1  9  1  0  0  0  0
  1 35  1  0  0  0  0
  3  4  1  1  0  0  0
  3 11  1  0  0  0  0
  3 45  1  0  0  0  0
  5  6  1  0  0  0  0
  5 12  1  0  0  0  0
  5 37  1  6  0  0  0
  6 30  1  0  0  0  0
  7 14  1  0  0  0  0
  7 41  1  0  0  0  0
  7 23  1  6  0  0  0
  8 16  2  0  0  0  0
  8 42  1  0  0  0  0
  9 10  1  6  0  0  0
  9 18  1  0  0  0  0
 11 20  1  0  0  0  0
 12 13  1  6  0  0  0
 12 22  1  0  0  0  0
 13 47  1  0  0  0  0
 14 15  1  6  0  0  0
 14 24  1  0  0  0  0
 16 17  1  0  0  0  0
 17 26  2  0  0  0  0
 18 19  1  6  0  0  0
 18 27  1  0  0  0  0
 20 21  1  1  0  0  0
 20 29  1  0  0  0  0
 22 23  1  1  0  0  0
 22 30  1  0  0  0  0
 24 25  1  1  0  0  0
 24 31  1  0  0  0  0
 26 33  1  0  0  0  0
 27 28  1  1  0  0  0
 27 34  1  0  0  0  0
 29  2  1  6  0  0  0
 29 36  1  0  0  0  0
 30 38  1  6  0  0  0
 31 32  1  6  0  0  0
 31 40  1  0  0  0  0
 33 42  2  0  0  0  0
 34 35  1  0  0  0  0
 34 43  1  1  0  0  0
 36 37  1  1  0  0  0
 36 45  1  0  0  0  0
 38 39  1  0  0  0  0
 40 41  1  0  0  0  0
 40 48  1  6  0  0  0
 43 44  1  0  0  0  0
 45 46  1  6  0  0  0
 47 50  1  0  0  0  0
 48 49  1  0  0  0  0
 50 51  1  0  0  0  0
 51 52  1  0  0  0  0
 52  8  1  0  0  0  0
M  END
>  <CHROM.1>
178.96152503,-77.05010170,-172.68806047,49.54302797,-168.33773313,86.02659200
-159.28632723,62.88193179,-75.56495740,-179.51985492,176.06837986,164.92518628
-82.46037101,150.06052954,178.36124303,43.08268251,4.22883066,-3.96081201
0.96753341,-0.36872197,-2.75450086

>  <Name>
2be0_lig

>  <RI>
2.75444e+07

>  <Rbt.Current_Directory>
/home/itssahil/PROJECTS/Mol_Feturizer/New_Systems/rnas/2be0

>  <Rbt.Executable>
rbdock ($Id: //depot/dev/client3/rdock/2013.1/src/exe/rbdock.cxx#4 $)

>  <Rbt.Library>
libRbt.so (2013.1, Build901 2013/11/27)

>  <Rbt.Parameter_File>
/export/apps/rDock/src/rDock_2013.1_src/data/scripts/dock_solv.prm

>  <Rbt.Receptor>
prm/pocket_docking_5.prm

>  <SCORE>
-20.6553

>  <SCORE.INTER>
-2.94976

>  <SCORE.INTER.CONST>
1

>  <SCORE.INTER.POLAR>
-0.894427

>  <SCORE.INTER.ROT>
15

>  <SCORE.INTER.SOLV>
14.2557

>  <SCORE.INTER.VDW>
-17.337

>  <SCORE.INTER.norm>
-0.0567262

>  <SCORE.INTRA>
-17.7056

>  <SCORE.INTRA.DIHEDRAL>
-36.4606

>  <SCORE.INTRA.DIHEDRAL.0>
47.8724

>  <SCORE.INTRA.POLAR>
0

>  <SCORE.INTRA.POLAR.0>
0

>  <SCORE.INTRA.REPUL>
0

>  <SCORE.INTRA.REPUL.0>
0

>  <SCORE.INTRA.SOLV>
-2.78895

>  <SCORE.INTRA.SOLV.lig_0>
-115.677

>  <SCORE.INTRA.VDW>
1.9192

>  <SCORE.INTRA.VDW.0>
-7.4833

>  <SCORE.INTRA.norm>
-0.340492

>  <SCORE.RESTR>
0

>  <SCORE.RESTR.CAVITY>
0

>  <SCORE.RESTR.norm>
0

>  <SCORE.SYSTEM>
0

>  <SCORE.SYSTEM.CONST>
0

>  <SCORE.SYSTEM.DIHEDRAL>
0

>  <SCORE.SYSTEM.SOLV>
0

>  <SCORE.SYSTEM.norm>
0

>  <SCORE.heavy>
52

>  <SCORE.norm>
-0.397218

>  <RMSD>
9.751

$$$$
2be0_lig
 OpenBabel11021811423D
libRbt.so/2013.1/901 2013/11/27
 52 56  0  0  0  0  0  0  0  0999 V2000
   39.6981   -2.6583   -4.6011 C   0  0  2  0  0  0  0  0  0  0  0  0
   38.8507   -1.5673   -4.3281 O   0  0  0  0  0  0  0  0  0  0  0  0
   38.2117   -0.0612   -8.4140 C   0  0  2  0  0  0  0  0  0  0  0  0
   37.5859    0.6734   -9.5490 N   0  0  0  0  0  0  0  0  0  0  0  0
   38.8048    1.7960   -4.3859 C   0  0  2  0  0  0  0  0  0  0  0  0
   38.2650    2.7949   -5.2755 O   0  0  0  0  0  0  0  0  0  0  0  0
   41.0952    5.9763   -3.8653 C   0  0  1  0  0  0  0  0  0  0  0  0
   40.6592    5.1892    2.8408 C   0  0  0  0  0  0  0  0  0  0  0  0
   40.1913   -3.3493   -3.2650 C   0  0  2  0  0  0  0  0  0  0  0  0
   39.0372   -3.7161   -2.4416 N   0  0  0  0  0  0  0  0  0  0  0  0
   37.1289   -1.0363   -7.7620 C   0  0  0  0  0  0  0  0  0  0  0  0
   39.4399    2.5499   -3.2066 C   0  0  2  0  0  0  0  0  0  0  0  0
   38.2895    2.7799   -2.2786 O   0  0  0  0  0  0  0  0  0  0  0  0
   42.4397    5.3841   -4.5601 C   0  0  2  0  0  0  0  0  0  0  0  0
   43.2921    4.7563   -3.4995 N   0  0  0  0  0  0  0  0  0  0  0  0
   39.7362    4.8236    3.8749 C   0  0  0  0  0  0  0  0  0  0  0  0
   39.7680    5.5058    5.1193 N   0  0  0  0  0  0  0  0  0  0  0  0
   41.1913   -2.3708   -2.4914 C   0  0  1  0  0  0  0  0  0  0  0  0
   41.6153   -3.0050   -1.2947 O   0  0  0  0  0  0  0  0  0  0  0  0
   37.7729   -1.8522   -6.5013 C   0  0  2  0  0  0  0  0  0  0  0  0
   36.8091   -2.7350   -5.9071 N   0  0  0  0  0  0  0  0  0  0  0  0
   40.0456    3.7345   -3.9829 C   0  0  2  0  0  0  0  0  0  0  0  0
   40.4234    4.8756   -3.2268 O   0  0  0  0  0  0  0  0  0  0  0  0
   43.1858    6.5688   -5.2449 C   0  0  1  0  0  0  0  0  0  0  0  0
   42.2689    7.0935   -6.2703 O   0  0  0  0  0  0  0  0  0  0  0  0
   40.6873    6.5553    5.4048 C   0  0  0  0  0  0  0  0  0  0  0  0
   42.3892   -2.0441   -3.4298 C   0  0  2  0  0  0  0  0  0  0  0  0
   43.3529   -1.1331   -2.7661 O   0  0  0  0  0  0  0  0  0  0  0  0
   38.2985   -0.8295   -5.4117 C   0  0  2  0  0  0  0  0  0  0  0  0
   38.9862    4.0274   -5.0720 C   0  0  1  0  0  0  0  0  0  0  0  0
   43.5495    7.7086   -4.1428 C   0  0  2  0  0  0  0  0  0  0  0  0
   44.4655    7.1911   -3.1144 O   0  0  0  0  0  0  0  0  0  0  0  0
   41.6225    6.9610    4.4210 C   0  0  0  0  0  0  0  0  0  0  0  0
   41.8780   -1.3573   -4.7544 C   0  0  2  0  0  0  0  0  0  0  0  0
   40.9394   -2.2928   -5.3532 O   0  0  0  0  0  0  0  0  0  0  0  0
   39.3474    0.1084   -6.1040 C   0  0  2  0  0  0  0  0  0  0  0  0
   39.7552    0.9643   -5.0435 O   0  0  0  0  0  0  0  0  0  0  0  0
   39.6165    4.4016   -6.4125 C   0  0  0  0  0  0  0  0  0  0  0  0
   40.0401    5.7387   -6.5304 O   0  0  0  0  0  0  0  0  0  0  0  0
   42.2057    8.2271   -3.4514 C   0  0  1  0  0  0  0  0  0  0  0  0
   41.4904    7.0395   -2.8409 O   0  0  0  0  0  0  0  0  0  0  0  0
   41.6306    6.2796    3.1058 C   0  0  0  0  0  0  0  0  0  0  0  0
   43.0482   -1.0930   -5.6070 C   0  0  0  0  0  0  0  0  0  0  0  0
   43.7591   -0.0837   -5.0887 O   0  0  0  0  0  0  0  0  0  0  0  0
   38.6814    0.9068   -7.3024 C   0  0  1  0  0  0  0  0  0  0  0  0
   39.6254    1.7249   -7.9115 O   0  0  0  0  0  0  0  0  0  0  0  0
   38.2710    3.5496   -1.0122 C   0  0  0  0  0  0  0  0  0  0  0  0
   42.6145    9.3002   -2.4060 C   0  0  0  0  0  0  0  0  0  0  0  0
   43.1992    8.6792   -1.2436 N   0  0  0  0  0  0  0  0  0  0  0  0
   39.1817    2.8159   -0.0225 C   0  0  0  0  0  0  0  0  0  0  0  0
   39.2796    3.6075    1.2465 N   0  0  0  0  0  0  0  0  0  0  0  0
   40.5995    4.4011    1.4423 C   0  0  0  0  0  0  0  0  0  0  0  0
  1  2  1  1  0  0  0
  1  9  1  0  0  0  0
  1 35  1  0  0  0  0
  3  4  1  6  0  0  0
  3 11  1  0  0  0  0
  3 45  1  0  0  0  0
  5  6  1  0  0  0  0
  5 12  1  0  0  0  0
  5 37  1  6  0  0  0
  6 30  1  0  0  0  0
  7 14  1  0  0  0  0
  7 41  1  0  0  0  0
  7 23  1  1  0  0  0
  8 16  2  0  0  0  0
  8 42  1  0  0  0  0
  9 10  1  1  0  0  0
  9 18  1  0  0  0  0
 11 20  1  0  0  0  0
 12 13  1  1  0  0  0
 12 22  1  0  0  0  0
 13 47  1  0  0  0  0
 14 15  1  1  0  0  0
 14 24  1  0  0  0  0
 16 17  1  0  0  0  0
 17 26  2  0  0  0  0
 18 19  1  1  0  0  0
 18 27  1  0  0  0  0
 20 21  1  1  0  0  0
 20 29  1  0  0  0  0
 22 23  1  1  0  0  0
 22 30  1  0  0  0  0
 24 25  1  6  0  0  0
 24 31  1  0  0  0  0
 26 33  1  0  0  0  0
 27 28  1  1  0  0  0
 27 34  1  0  0  0  0
 29  2  1  1  0  0  0
 29 36  1  0  0  0  0
 30 38  1  6  0  0  0
 31 32  1  1  0  0  0
 31 40  1  0  0  0  0
 33 42  2  0  0  0  0
 34 35  1  0  0  0  0
 34 43  1  6  0  0  0
 36 37  1  1  0  0  0
 36 45  1  0  0  0  0
 38 39  1  0  0  0  0
 40 41  1  0  0  0  0
 40 48  1  1  0  0  0
 43 44  1  0  0  0  0
 45 46  1  6  0  0  0
 47 50  1  0  0  0  0
 48 49  1  0  0  0  0
 50 51  1  0  0  0  0
 51 52  1  0  0  0  0
 52  8  1  0  0  0  0
M  END
>  <CHROM.1>
-179.42702222,-65.18422337,-56.98104318,-175.08682371,-65.30210938,174.92720796
44.63525890,162.80244217,-72.40320080,-60.60116304,-74.73657555,175.87104234
-103.47854399,-178.17887868,16.40713178,40.48461302,2.55259597,-3.32910066
2.56053769,-1.32424483,-1.49951565

>  <Name>
2be0_lig

>  <RI>
2.75444e+07

>  <Rbt.Current_Directory>
/home/itssahil/PROJECTS/Mol_Feturizer/New_Systems/rnas/2be0

>  <Rbt.Executable>
rbdock ($Id: //depot/dev/client3/rdock/2013.1/src/exe/rbdock.cxx#4 $)

>  <Rbt.Library>
libRbt.so (2013.1, Build901 2013/11/27)

>  <Rbt.Parameter_File>
/export/apps/rDock/src/rDock_2013.1_src/data/scripts/dock_solv.prm

>  <Rbt.Receptor>
prm/pocket_docking_5.prm

>  <SCORE>
-26.1009

>  <SCORE.INTER>
-8.65301

>  <SCORE.INTER.CONST>
1

>  <SCORE.INTER.POLAR>
-0.582685

>  <SCORE.INTER.ROT>
15

>  <SCORE.INTER.SOLV>
12.1805

>  <SCORE.INTER.VDW>
-21.4866

>  <SCORE.INTER.norm>
-0.166404

>  <SCORE.INTRA>
-17.4479

>  <SCORE.INTRA.DIHEDRAL>
-41.6977

>  <SCORE.INTRA.DIHEDRAL.0>
47.8724

>  <SCORE.INTRA.POLAR>
0

>  <SCORE.INTRA.POLAR.0>
0

>  <SCORE.INTRA.REPUL>
0

>  <SCORE.INTRA.REPUL.0>
0

>  <SCORE.INTRA.SOLV>
0.136231

>  <SCORE.INTRA.SOLV.lig_0>
-115.677

>  <SCORE.INTRA.VDW>
3.33288

>  <SCORE.INTRA.VDW.0>
-7.4833

>  <SCORE.INTRA.norm>
-0.335536

>  <SCORE.RESTR>
0

>  <SCORE.RESTR.CAVITY>
0

>  <SCORE.RESTR.norm>
0

>  <SCORE.SYSTEM>
0

>  <SCORE.SYSTEM.CONST>
0

>  <SCORE.SYSTEM.DIHEDRAL>
0

>  <SCORE.SYSTEM.SOLV>
0

>  <SCORE.SYSTEM.norm>
0

>  <SCORE.heavy>
52

>  <SCORE.norm>
-0.50194

>  <RMSD>
9.765

$$$$
2be0_lig
 OpenBabel11021811423D
libRbt.so/2013.1/901 2013/11/27
 52 56  0  0  0  0  0  0  0  0999 V2000
   42.9065    6.5513    0.9145 C   0  0  2  0  0  0  0  0  0  0  0  0
   43.6781    6.6487   -0.2594 O   0  0  0  0  0  0  0  0  0  0  0  0
   41.4161    9.6666   -2.5279 C   0  0  2  0  0  0  0  0  0  0  0  0
   41.1392   10.7839   -3.4737 N   0  0  0  0  0  0  0  0  0  0  0  0
   42.6652    5.8896   -4.2592 C   0  0  2  0  0  0  0  0  0  0  0  0
   42.7285    4.4844   -4.5781 O   0  0  0  0  0  0  0  0  0  0  0  0
   47.2609    5.4769   -5.5565 C   0  0  1  0  0  0  0  0  0  0  0  0
   43.7877    9.2493  -10.6766 C   0  0  0  0  0  0  0  0  0  0  0  0
   43.0824    5.1354    1.6002 C   0  0  2  0  0  0  0  0  0  0  0  0
   44.5041    4.8689    1.8290 N   0  0  0  0  0  0  0  0  0  0  0  0
   42.5014   10.1437   -1.4589 C   0  0  0  0  0  0  0  0  0  0  0  0
   43.7367    6.5863   -5.1130 C   0  0  2  0  0  0  0  0  0  0  0  0
   43.0413    6.8324   -6.4142 O   0  0  0  0  0  0  0  0  0  0  0  0
   48.1775    6.1950   -6.6903 C   0  0  2  0  0  0  0  0  0  0  0  0
   47.9440    5.5091   -8.0021 N   0  0  0  0  0  0  0  0  0  0  0  0
   44.7498    9.7391   -9.7335 C   0  0  0  0  0  0  0  0  0  0  0  0
   45.3364   11.0172   -9.9267 N   0  0  0  0  0  0  0  0  0  0  0  0
   42.4014    4.0100    0.6917 C   0  0  1  0  0  0  0  0  0  0  0  0
   42.5765    2.7493    1.3195 O   0  0  0  0  0  0  0  0  0  0  0  0
   42.8443    8.9396   -0.4089 C   0  0  2  0  0  0  0  0  0  0  0  0
   43.8183    9.3569    0.5598 N   0  0  0  0  0  0  0  0  0  0  0  0
   44.8405    5.5154   -5.0256 C   0  0  2  0  0  0  0  0  0  0  0  0
   45.8901    5.5918   -5.9790 O   0  0  0  0  0  0  0  0  0  0  0  0
   49.6678    6.0663   -6.2525 C   0  0  1  0  0  0  0  0  0  0  0  0
   49.7828    6.7838   -4.9721 O   0  0  0  0  0  0  0  0  0  0  0  0
   45.0167   11.8581  -11.0307 C   0  0  0  0  0  0  0  0  0  0  0  0
   40.8964    4.3631    0.5109 C   0  0  2  0  0  0  0  0  0  0  0  0
   40.2094    3.3531   -0.3299 O   0  0  0  0  0  0  0  0  0  0  0  0
   43.3872    7.6775   -1.1976 C   0  0  2  0  0  0  0  0  0  0  0  0
   44.0519    4.1849   -5.0674 C   0  0  1  0  0  0  0  0  0  0  0  0
   50.0651    4.4979   -6.0851 C   0  0  2  0  0  0  0  0  0  0  0  0
   49.9520    3.7742   -7.3610 O   0  0  0  0  0  0  0  0  0  0  0  0
   44.0719   11.4280  -11.9947 C   0  0  0  0  0  0  0  0  0  0  0  0
   40.7419    5.7760   -0.1727 C   0  0  2  0  0  0  0  0  0  0  0  0
   41.4356    6.7167    0.6926 O   0  0  0  0  0  0  0  0  0  0  0  0
   42.2919    7.2575   -2.2383 C   0  0  2  0  0  0  0  0  0  0  0  0
   42.8739    6.1238   -2.8702 O   0  0  0  0  0  0  0  0  0  0  0  0
   44.6428    3.1277   -4.1360 C   0  0  0  0  0  0  0  0  0  0  0  0
   45.5823    3.6012   -3.2010 O   0  0  0  0  0  0  0  0  0  0  0  0
   49.1091    3.8207   -4.9986 C   0  0  1  0  0  0  0  0  0  0  0  0
   47.6720    4.0097   -5.4388 O   0  0  0  0  0  0  0  0  0  0  0  0
   43.4318   10.1012  -11.8387 C   0  0  0  0  0  0  0  0  0  0  0  0
   39.3038    6.0631   -0.2969 C   0  0  0  0  0  0  0  0  0  0  0  0
   38.6556    5.5611    0.7616 O   0  0  0  0  0  0  0  0  0  0  0  0
   42.0062    8.4378   -3.2594 C   0  0  1  0  0  0  0  0  0  0  0  0
   41.0269    8.0540   -4.1678 O   0  0  0  0  0  0  0  0  0  0  0  0
   42.1907    5.9004   -7.1914 C   0  0  0  0  0  0  0  0  0  0  0  0
   49.5259    2.3287   -4.8901 C   0  0  0  0  0  0  0  0  0  0  0  0
   48.5023    1.5633   -4.2229 N   0  0  0  0  0  0  0  0  0  0  0  0
   42.6336    5.9960   -8.6550 C   0  0  0  0  0  0  0  0  0  0  0  0
   43.1284    7.3825   -8.9368 N   0  0  0  0  0  0  0  0  0  0  0  0
   43.1392    7.8002  -10.4320 C   0  0  0  0  0  0  0  0  0  0  0  0
  1  2  1  6  0  0  0
  1  9  1  0  0  0  0
  1 35  1  0  0  0  0
  3  4  1  6  0  0  0
  3 11  1  0  0  0  0
  3 45  1  0  0  0  0
  5  6  1  0  0  0  0
  5 12  1  0  0  0  0
  5 37  1  1  0  0  0
  6 30  1  0  0  0  0
  7 14  1  0  0  0  0
  7 41  1  0  0  0  0
  7 23  1  6  0  0  0
  8 16  2  0  0  0  0
  8 42  1  0  0  0  0
  9 10  1  6  0  0  0
  9 18  1  0  0  0  0
 11 20  1  0  0  0  0
 12 13  1  6  0  0  0
 12 22  1  0  0  0  0
 13 47  1  0  0  0  0
 14 15  1  6  0  0  0
 14 24  1  0  0  0  0
 16 17  1  0  0  0  0
 17 26  2  0  0  0  0
 18 19  1  1  0  0  0
 18 27  1  0  0  0  0
 20 21  1  1  0  0  0
 20 29  1  0  0  0  0
 22 23  1  6  0  0  0
 22 30  1  0  0  0  0
 24 25  1  1  0  0  0
 24 31  1  0  0  0  0
 26 33  1  0  0  0  0
 27 28  1  6  0  0  0
 27 34  1  0  0  0  0
 29  2  1  1  0  0  0
 29 36  1  0  0  0  0
 30 38  1  1  0  0  0
 31 32  1  6  0  0  0
 31 40  1  0  0  0  0
 33 42  2  0  0  0  0
 34 35  1  0  0  0  0
 34 43  1  1  0  0  0
 36 37  1  6  0  0  0
 36 45  1  0  0  0  0
 38 39  1  0  0  0  0
 40 41  1  0  0  0  0
 40 48  1  6  0  0  0
 43 44  1  0  0  0  0
 45 46  1  6  0  0  0
 47 50  1  0  0  0  0
 48 49  1  0  0  0  0
 50 51  1  0  0  0  0
 51 52  1  0  0  0  0
 52  8  1  0  0  0  0
M  END
>  <CHROM.1>
163.13900591,-151.67610009,-156.97026987,-45.10336264,-134.29344003,133.11934378
31.88198143,-102.82571086,35.17950557,-144.05618037,-164.22259193,-31.13413122
-159.20547955,-175.42497057,26.14356764,44.14239943,6.36772865,-4.21208699
2.09693044,-0.59357340,2.09012864

>  <Name>
2be0_lig

>  <RI>
224

>  <Rbt.Current_Directory>
/home/itssahil/PROJECTS/Mol_Feturizer/New_Systems/rnas/2be0

>  <Rbt.Executable>
rbdock ($Id: //depot/dev/client3/rdock/2013.1/src/exe/rbdock.cxx#4 $)

>  <Rbt.Library>
libRbt.so (2013.1, Build901 2013/11/27)

>  <Rbt.Parameter_File>
/export/apps/rDock/src/rDock_2013.1_src/data/scripts/dock_solv.prm

>  <Rbt.Receptor>
prm/blind_docking_100.prm

>  <SCORE>
46.8145

>  <SCORE.INTER>
20.664

>  <SCORE.INTER.CONST>
1

>  <SCORE.INTER.POLAR>
-0.365818

>  <SCORE.INTER.ROT>
15

>  <SCORE.INTER.SOLV>
32.7446

>  <SCORE.INTER.VDW>
-9.51946

>  <SCORE.INTER.norm>
0.397385

>  <SCORE.INTRA>
2.55707

>  <SCORE.INTRA.DIHEDRAL>
-8.34204

>  <SCORE.INTRA.DIHEDRAL.0>
47.8724

>  <SCORE.INTRA.POLAR>
0

>  <SCORE.INTRA.POLAR.0>
0

>  <SCORE.INTRA.REPUL>
0.0434979

>  <SCORE.INTRA.REPUL.0>
0

>  <SCORE.INTRA.SOLV>
-0.374438

>  <SCORE.INTRA.SOLV.lig_0>
-115.677

>  <SCORE.INTRA.VDW>
6.69781

>  <SCORE.INTRA.VDW.0>
-7.4833

>  <SCORE.INTRA.norm>
0.0491744

>  <SCORE.RESTR>
23.5934

>  <SCORE.RESTR.CAVITY>
23.5934

>  <SCORE.RESTR.norm>
0.453719

>  <SCORE.SYSTEM>
0

>  <SCORE.SYSTEM.CONST>
0

>  <SCORE.SYSTEM.DIHEDRAL>
0

>  <SCORE.SYSTEM.SOLV>
0

>  <SCORE.SYSTEM.norm>
0

>  <SCORE.heavy>
52

>  <SCORE.norm>
0.900279

>  <RMSD>
9.787

$$$$
2be0_lig
 OpenBabel11021811423D
libRbt.so/2013.1/901 2013/11/27
 52 56  0  0  0  0  0  0  0  0999 V2000
   39.4498   -0.9197   -7.1917 C   0  0  2  0  0  0  0  0  0  0  0  0
   39.7852   -0.2531   -5.9975 O   0  0  0  0  0  0  0  0  0  0  0  0
   40.2522   -2.1164   -2.0376 C   0  0  2  0  0  0  0  0  0  0  0  0
   40.8346   -2.9440   -0.9442 N   0  0  0  0  0  0  0  0  0  0  0  0
   41.6793    2.0671   -3.3268 C   0  0  2  0  0  0  0  0  0  0  0  0
   40.5686    2.9811   -3.4335 O   0  0  0  0  0  0  0  0  0  0  0  0
   42.5481    5.4769   -6.5817 C   0  0  1  0  0  0  0  0  0  0  0  0
   42.2307    6.3683    2.9922 C   0  0  0  0  0  0  0  0  0  0  0  0
   39.8488   -0.0601   -8.4596 C   0  0  2  0  0  0  0  0  0  0  0  0
   41.2661    0.3011   -8.3873 N   0  0  0  0  0  0  0  0  0  0  0  0
   39.9908   -3.0425   -3.3113 C   0  0  0  0  0  0  0  0  0  0  0  0
   42.9285    2.8317   -3.7930 C   0  0  2  0  0  0  0  0  0  0  0  0
   43.3787    3.5501   -2.5607 O   0  0  0  0  0  0  0  0  0  0  0  0
   42.4202    4.4269   -7.8156 C   0  0  2  0  0  0  0  0  0  0  0  0
   43.7674    3.8240   -8.0749 N   0  0  0  0  0  0  0  0  0  0  0  0
   40.8313    6.4927    2.7076 C   0  0  0  0  0  0  0  0  0  0  0  0
   39.9240    6.7922    3.7574 N   0  0  0  0  0  0  0  0  0  0  0  0
   38.9071    1.2284   -8.5532 C   0  0  1  0  0  0  0  0  0  0  0  0
   39.2856    1.9883   -9.6905 O   0  0  0  0  0  0  0  0  0  0  0  0
   39.3638   -2.1679   -4.5409 C   0  0  2  0  0  0  0  0  0  0  0  0
   39.1217   -2.9903   -5.6926 N   0  0  0  0  0  0  0  0  0  0  0  0
   42.2998    3.6244   -4.9545 C   0  0  2  0  0  0  0  0  0  0  0  0
   43.0287    4.7412   -5.4422 O   0  0  0  0  0  0  0  0  0  0  0  0
   41.9131    5.2133   -9.0621 C   0  0  1  0  0  0  0  0  0  0  0  0
   40.5875    5.7429   -8.7019 O   0  0  0  0  0  0  0  0  0  0  0  0
   40.3354    6.9784    5.1081 C   0  0  0  0  0  0  0  0  0  0  0  0
   37.4270    0.7550   -8.6391 C   0  0  2  0  0  0  0  0  0  0  0  0
   36.5019    1.9109   -8.7243 O   0  0  0  0  0  0  0  0  0  0  0  0
   40.3557   -0.9943   -4.9258 C   0  0  2  0  0  0  0  0  0  0  0  0
   40.8906    3.9797   -4.4234 C   0  0  1  0  0  0  0  0  0  0  0  0
   42.9488    6.4152   -9.4208 C   0  0  2  0  0  0  0  0  0  0  0  0
   44.2761    5.8932   -9.7815 O   0  0  0  0  0  0  0  0  0  0  0  0
   41.7059    6.8687    5.4495 C   0  0  0  0  0  0  0  0  0  0  0  0
   37.0489   -0.0994   -7.3684 C   0  0  2  0  0  0  0  0  0  0  0  0
   37.9886   -1.2089   -7.3387 O   0  0  0  0  0  0  0  0  0  0  0  0
   40.5867   -0.1241   -3.6419 C   0  0  2  0  0  0  0  0  0  0  0  0
   41.4696    0.8916   -4.1025 O   0  0  0  0  0  0  0  0  0  0  0  0
   39.8194    3.8926   -5.5092 C   0  0  0  0  0  0  0  0  0  0  0  0
   40.0800    2.9757   -6.5449 O   0  0  0  0  0  0  0  0  0  0  0  0
   43.0813    7.3947   -8.1655 C   0  0  1  0  0  0  0  0  0  0  0  0
   43.5298    6.5827   -6.9679 O   0  0  0  0  0  0  0  0  0  0  0  0
   42.6929    6.5567    4.3900 C   0  0  0  0  0  0  0  0  0  0  0  0
   35.6508   -0.5349   -7.5164 C   0  0  0  0  0  0  0  0  0  0  0  0
   35.2823   -1.2282   -6.4318 O   0  0  0  0  0  0  0  0  0  0  0  0
   41.2237   -0.9966   -2.4798 C   0  0  1  0  0  0  0  0  0  0  0  0
   41.4125   -0.2144   -1.3467 O   0  0  0  0  0  0  0  0  0  0  0  0
   42.6421    4.5618   -1.7668 C   0  0  0  0  0  0  0  0  0  0  0  0
   44.0863    8.5105   -8.5608 C   0  0  0  0  0  0  0  0  0  0  0  0
   44.3927    9.3432   -7.4243 N   0  0  0  0  0  0  0  0  0  0  0  0
   43.3502    4.6790   -0.4132 C   0  0  0  0  0  0  0  0  0  0  0  0
   42.5083    5.4944    0.5212 N   0  0  0  0  0  0  0  0  0  0  0  0
   43.2344    6.0302    1.7845 C   0  0  0  0  0  0  0  0  0  0  0  0
  1  2  1  1  0  0  0
  1  9  1  0  0  0  0
  1 35  1  0  0  0  0
  3  4  1  1  0  0  0
  3 11  1  0  0  0  0
  3 45  1  0  0  0  0
  5  6  1  0  0  0  0
  5 12  1  0  0  0  0
  5 37  1  6  0  0  0
  6 30  1  0  0  0  0
  7 14  1  0  0  0  0
  7 41  1  0  0  0  0
  7 23  1  1  0  0  0
  8 16  2  0  0  0  0
  8 42  1  0  0  0  0
  9 10  1  1  0  0  0
  9 18  1  0  0  0  0
 11 20  1  0  0  0  0
 12 13  1  1  0  0  0
 12 22  1  0  0  0  0
 13 47  1  0  0  0  0
 14 15  1  6  0  0  0
 14 24  1  0  0  0  0
 16 17  1  0  0  0  0
 17 26  2  0  0  0  0
 18 19  1  6  0  0  0
 18 27  1  0  0  0  0
 20 21  1  6  0  0  0
 20 29  1  0  0  0  0
 22 23  1  1  0  0  0
 22 30  1  0  0  0  0
 24 25  1  1  0  0  0
 24 31  1  0  0  0  0
 26 33  1  0  0  0  0
 27 28  1  1  0  0  0
 27 34  1  0  0  0  0
 29  2  1  6  0  0  0
 29 36  1  0  0  0  0
 30 38  1  6  0  0  0
 31 32  1  1  0  0  0
 31 40  1  0  0  0  0
 33 42  2  0  0  0  0
 34 35  1  0  0  0  0
 34 43  1  6  0  0  0
 36 37  1  6  0  0  0
 36 45  1  0  0  0  0
 38 39  1  0  0  0  0
 40 41  1  0  0  0  0
 40 48  1  6  0  0  0
 43 44  1  0  0  0  0
 45 46  1  1  0  0  0
 47 50  1  0  0  0  0
 48 49  1  0  0  0  0
 50 51  1  0  0  0  0
 51 52  1  0  0  0  0
 52  8  1  0  0  0  0
M  END
>  <CHROM.1>
-138.42022508,-76.45742397,-58.02561152,-60.85967809,163.91190954,175.91930407
-57.15463278,-87.99103874,-178.00150083,165.12819605,-172.73977762,-169.59993034
-164.05222368,-157.18943505,-16.03943388,40.95691053,2.81510065,-4.58091540
2.13598153,-1.08509344,-1.53918957

>  <Name>
2be0_lig

>  <RI>
3.37048e+07

>  <Rbt.Current_Directory>
/home/itssahil/PROJECTS/Mol_Feturizer/New_Systems/rnas/2be0

>  <Rbt.Executable>
rbdock ($Id: //depot/dev/client3/rdock/2013.1/src/exe/rbdock.cxx#4 $)

>  <Rbt.Library>
libRbt.so (2013.1, Build901 2013/11/27)

>  <Rbt.Parameter_File>
/export/apps/rDock/src/rDock_2013.1_src/data/scripts/dock_solv.prm

>  <Rbt.Receptor>
prm/pocket_docking_8.prm

>  <SCORE>
-22.5738

>  <SCORE.INTER>
-8.96506

>  <SCORE.INTER.CONST>
1

>  <SCORE.INTER.POLAR>
-0.959166

>  <SCORE.INTER.ROT>
15

>  <SCORE.INTER.SOLV>
17.8769

>  <SCORE.INTER.VDW>
-22.3385

>  <SCORE.INTER.norm>
-0.172405

>  <SCORE.INTRA>
-13.6087

>  <SCORE.INTRA.DIHEDRAL>
-33.8885

>  <SCORE.INTRA.DIHEDRAL.0>
47.8724

>  <SCORE.INTRA.POLAR>
0

>  <SCORE.INTRA.POLAR.0>
0

>  <SCORE.INTRA.REPUL>
0.00128669

>  <SCORE.INTRA.REPUL.0>
0

>  <SCORE.INTRA.SOLV>
0.661592

>  <SCORE.INTRA.SOLV.lig_0>
-115.677

>  <SCORE.INTRA.VDW>
2.9983

>  <SCORE.INTRA.VDW.0>
-7.4833

>  <SCORE.INTRA.norm>
-0.261706

>  <SCORE.RESTR>
0

>  <SCORE.RESTR.CAVITY>
0

>  <SCORE.RESTR.norm>
0

>  <SCORE.SYSTEM>
0

>  <SCORE.SYSTEM.CONST>
0

>  <SCORE.SYSTEM.DIHEDRAL>
0

>  <SCORE.SYSTEM.SOLV>
0

>  <SCORE.SYSTEM.norm>
0

>  <SCORE.heavy>
52

>  <SCORE.norm>
-0.434111

>  <RMSD>
9.809

$$$$
2be0_lig
 OpenBabel11021811423D
libRbt.so/2013.1/901 2013/11/27
 52 56  0  0  0  0  0  0  0  0999 V2000
   40.1768    0.9939   -6.1975 C   0  0  2  0  0  0  0  0  0  0  0  0
   39.0227    1.4268   -5.5167 O   0  0  0  0  0  0  0  0  0  0  0  0
   37.8644    2.4001   -1.3836 C   0  0  2  0  0  0  0  0  0  0  0  0
   37.8325    2.3527    0.1051 N   0  0  0  0  0  0  0  0  0  0  0  0
   41.0349    4.5333   -3.9376 C   0  0  2  0  0  0  0  0  0  0  0  0
   40.0046    5.4862   -4.2705 O   0  0  0  0  0  0  0  0  0  0  0  0
   42.8765    4.9198   -8.1512 C   0  0  1  0  0  0  0  0  0  0  0  0
   41.0008    8.6509   -1.5779 C   0  0  0  0  0  0  0  0  0  0  0  0
   40.1399   -0.5679   -6.4525 C   0  0  2  0  0  0  0  0  0  0  0  0
   38.9009   -0.9277   -7.1453 N   0  0  0  0  0  0  0  0  0  0  0  0
   37.5554    0.9438   -1.9597 C   0  0  0  0  0  0  0  0  0  0  0  0
   42.1931    4.7720   -4.9196 C   0  0  2  0  0  0  0  0  0  0  0  0
   42.9769    5.8710   -4.2751 O   0  0  0  0  0  0  0  0  0  0  0  0
   41.8910    4.1540   -9.1922 C   0  0  2  0  0  0  0  0  0  0  0  0
   40.9526    3.2833   -8.4132 N   0  0  0  0  0  0  0  0  0  0  0  0
   41.6349    8.4245   -0.3124 C   0  0  0  0  0  0  0  0  0  0  0  0
   41.0450    7.5312    0.6199 N   0  0  0  0  0  0  0  0  0  0  0  0
   40.2952   -1.3431   -5.0630 C   0  0  1  0  0  0  0  0  0  0  0  0
   40.2521   -2.7395   -5.3124 O   0  0  0  0  0  0  0  0  0  0  0  0
   37.5950    0.9497   -3.5932 C   0  0  2  0  0  0  0  0  0  0  0  0
   37.3162   -0.3547   -4.1242 N   0  0  0  0  0  0  0  0  0  0  0  0
   41.3698    5.0618   -6.1888 C   0  0  2  0  0  0  0  0  0  0  0  0
   42.0461    5.6930   -7.2662 O   0  0  0  0  0  0  0  0  0  0  0  0
   42.7767    3.3009  -10.1497 C   0  0  1  0  0  0  0  0  0  0  0  0
   43.6392    4.2531  -10.8685 O   0  0  0  0  0  0  0  0  0  0  0  0
   39.8304    6.8333    0.3632 C   0  0  0  0  0  0  0  0  0  0  0  0
   41.6379   -0.9135   -4.4036 C   0  0  2  0  0  0  0  0  0  0  0  0
   41.8367   -1.5994   -3.1039 O   0  0  0  0  0  0  0  0  0  0  0  0
   39.0178    1.4337   -4.0942 C   0  0  2  0  0  0  0  0  0  0  0  0
   40.1587    5.8628   -5.6544 C   0  0  1  0  0  0  0  0  0  0  0  0
   43.6608    2.2391   -9.2913 C   0  0  2  0  0  0  0  0  0  0  0  0
   42.8052    1.2842   -8.5698 O   0  0  0  0  0  0  0  0  0  0  0  0
   39.1590    7.0162   -0.8708 C   0  0  0  0  0  0  0  0  0  0  0  0
   41.6557    0.6444   -4.1581 C   0  0  2  0  0  0  0  0  0  0  0  0
   41.4533    1.2567   -5.4616 O   0  0  0  0  0  0  0  0  0  0  0  0
   39.2759    2.8591   -3.4936 C   0  0  2  0  0  0  0  0  0  0  0  0
   40.5571    3.1941   -4.0130 O   0  0  0  0  0  0  0  0  0  0  0  0
   38.8570    5.4940   -6.3641 C   0  0  0  0  0  0  0  0  0  0  0  0
   38.2127    6.5504   -7.0351 O   0  0  0  0  0  0  0  0  0  0  0  0
   44.5772    3.0308   -8.2491 C   0  0  1  0  0  0  0  0  0  0  0  0
   43.6820    3.8812   -7.3715 O   0  0  0  0  0  0  0  0  0  0  0  0
   39.7335    7.9388   -1.8773 C   0  0  0  0  0  0  0  0  0  0  0  0
   42.9526    0.9921   -3.5555 C   0  0  0  0  0  0  0  0  0  0  0  0
   42.9786    0.5777   -2.2826 O   0  0  0  0  0  0  0  0  0  0  0  0
   39.2608    2.8108   -1.9078 C   0  0  1  0  0  0  0  0  0  0  0  0
   39.4806    4.0822   -1.3913 O   0  0  0  0  0  0  0  0  0  0  0  0
   42.6099    7.2999   -4.1342 C   0  0  0  0  0  0  0  0  0  0  0  0
   45.3862    1.9701   -7.4543 C   0  0  0  0  0  0  0  0  0  0  0  0
   46.2432    2.6069   -6.4854 N   0  0  0  0  0  0  0  0  0  0  0  0
   43.5207    7.8975   -3.0568 C   0  0  0  0  0  0  0  0  0  0  0  0
   43.1890    9.3475   -2.8714 N   0  0  0  0  0  0  0  0  0  0  0  0
   41.6915    9.6658   -2.6139 C   0  0  0  0  0  0  0  0  0  0  0  0
  1  2  1  1  0  0  0
  1  9  1  0  0  0  0
  1 35  1  0  0  0  0
  3  4  1  1  0  0  0
  3 11  1  0  0  0  0
  3 45  1  0  0  0  0
  5  6  1  0  0  0  0
  5 12  1  0  0  0  0
  5 37  1  6  0  0  0
  6 30  1  0  0  0  0
  7 14  1  0  0  0  0
  7 41  1  0  0  0  0
  7 23  1  1  0  0  0
  8 16  2  0  0  0  0
  8 42  1  0  0  0  0
  9 10  1  1  0  0  0
  9 18  1  0  0  0  0
 11 20  1  0  0  0  0
 12 13  1  1  0  0  0
 12 22  1  0  0  0  0
 13 47  1  0  0  0  0
 14 15  1  1  0  0  0
 14 24  1  0  0  0  0
 16 17  1  0  0  0  0
 17 26  2  0  0  0  0
 18 19  1  6  0  0  0
 18 27  1  0  0  0  0
 20 21  1  1  0  0  0
 20 29  1  0  0  0  0
 22 23  1  6  0  0  0
 22 30  1  0  0  0  0
 24 25  1  1  0  0  0
 24 31  1  0  0  0  0
 26 33  1  0  0  0  0
 27 28  1  1  0  0  0
 27 34  1  0  0  0  0
 29  2  1  6  0  0  0
 29 36  1  0  0  0  0
 30 38  1  6  0  0  0
 31 32  1  1  0  0  0
 31 40  1  0  0  0  0
 33 42  2  0  0  0  0
 34 35  1  0  0  0  0
 34 43  1  6  0  0  0
 36 37  1  1  0  0  0
 36 45  1  0  0  0  0
 38 39  1  0  0  0  0
 40 41  1  0  0  0  0
 40 48  1  1  0  0  0
 43 44  1  0  0  0  0
 45 46  1  1  0  0  0
 47 50  1  0  0  0  0
 48 49  1  0  0  0  0
 50 51  1  0  0  0  0
 51 52  1  0  0  0  0
 52  8  1  0  0  0  0
M  END
>  <CHROM.1>
89.23512822,-42.67793524,78.70240120,-71.48426907,163.19720651,80.20710588
-140.64894729,123.68107681,-73.16135167,166.39079314,-179.95242596,-179.90036550
52.24410866,43.09080464,51.69801176,41.09370194,3.48919135,-4.74722600,1.36954099
-0.98033065,-2.65457028

>  <Name>
2be0_lig

>  <RI>
2.75444e+07

>  <Rbt.Current_Directory>
/home/itssahil/PROJECTS/Mol_Feturizer/New_Systems/rnas/2be0

>  <Rbt.Executable>
rbdock ($Id: //depot/dev/client3/rdock/2013.1/src/exe/rbdock.cxx#4 $)

>  <Rbt.Library>
libRbt.so (2013.1, Build901 2013/11/27)

>  <Rbt.Parameter_File>
/export/apps/rDock/src/rDock_2013.1_src/data/scripts/dock_solv.prm

>  <Rbt.Receptor>
prm/pocket_docking_5.prm

>  <SCORE>
-10.7995

>  <SCORE.INTER>
-2.7321

>  <SCORE.INTER.CONST>
1

>  <SCORE.INTER.POLAR>
-0.968778

>  <SCORE.INTER.ROT>
15

>  <SCORE.INTER.SOLV>
11.6306

>  <SCORE.INTER.VDW>
-16.069

>  <SCORE.INTER.norm>
-0.0525404

>  <SCORE.INTRA>
-8.07775

>  <SCORE.INTRA.DIHEDRAL>
-24.3369

>  <SCORE.INTRA.DIHEDRAL.0>
47.8724

>  <SCORE.INTRA.POLAR>
0

>  <SCORE.INTRA.POLAR.0>
0

>  <SCORE.INTRA.REPUL>
0.28346

>  <SCORE.INTRA.REPUL.0>
0

>  <SCORE.INTRA.SOLV>
3.64785

>  <SCORE.INTRA.SOLV.lig_0>
-115.677

>  <SCORE.INTRA.VDW>
0.849454

>  <SCORE.INTRA.VDW.0>
-7.4833

>  <SCORE.INTRA.norm>
-0.155341

>  <SCORE.RESTR>
0.0103086

>  <SCORE.RESTR.CAVITY>
0.0103086

>  <SCORE.RESTR.norm>
0.000198243

>  <SCORE.SYSTEM>
0

>  <SCORE.SYSTEM.CONST>
0

>  <SCORE.SYSTEM.DIHEDRAL>
0

>  <SCORE.SYSTEM.SOLV>
0

>  <SCORE.SYSTEM.norm>
0

>  <SCORE.heavy>
52

>  <SCORE.norm>
-0.207683

>  <RMSD>
9.816

$$$$
2be0_lig
 OpenBabel11021811423D
libRbt.so/2013.1/901 2013/11/27
 52 56  0  0  0  0  0  0  0  0999 V2000
   43.0618   -3.2689   -8.1748 C   0  0  2  0  0  0  0  0  0  0  0  0
   42.2509   -2.2438   -8.6988 O   0  0  0  0  0  0  0  0  0  0  0  0
   38.0155   -2.2090   -9.8952 C   0  0  2  0  0  0  0  0  0  0  0  0
   36.5403   -2.4003   -9.8136 N   0  0  0  0  0  0  0  0  0  0  0  0
   40.0403    1.1533   -7.7595 C   0  0  2  0  0  0  0  0  0  0  0  0
   40.1064    1.9166   -8.9816 O   0  0  0  0  0  0  0  0  0  0  0  0
   43.7695    4.1449   -7.8444 C   0  0  1  0  0  0  0  0  0  0  0  0
   38.6278    4.3750   -1.5101 C   0  0  0  0  0  0  0  0  0  0  0  0
   42.7971   -3.4751   -6.6278 C   0  0  2  0  0  0  0  0  0  0  0  0
   41.3693   -3.7030   -6.3955 N   0  0  0  0  0  0  0  0  0  0  0  0
   38.7395   -3.6055   -9.6232 C   0  0  0  0  0  0  0  0  0  0  0  0
   40.8001    1.9581   -6.6930 C   0  0  2  0  0  0  0  0  0  0  0  0
   39.7700    2.9107   -6.1743 O   0  0  0  0  0  0  0  0  0  0  0  0
   44.9284    3.0138   -7.9828 C   0  0  2  0  0  0  0  0  0  0  0  0
   45.3942    2.6330   -6.6103 N   0  0  0  0  0  0  0  0  0  0  0  0
   37.4079    5.0042   -1.9231 C   0  0  0  0  0  0  0  0  0  0  0  0
   37.3193    6.4208   -1.9439 N   0  0  0  0  0  0  0  0  0  0  0  0
   43.3406   -2.2095   -5.8163 C   0  0  1  0  0  0  0  0  0  0  0  0
   43.0872   -2.4105   -4.4344 O   0  0  0  0  0  0  0  0  0  0  0  0
   40.3632   -3.4355   -9.6899 C   0  0  2  0  0  0  0  0  0  0  0  0
   41.0266   -4.6858   -9.4490 N   0  0  0  0  0  0  0  0  0  0  0  0
   41.9536    2.4810   -7.5698 C   0  0  2  0  0  0  0  0  0  0  0  0
   42.7055    3.5735   -7.0622 O   0  0  0  0  0  0  0  0  0  0  0  0
   46.0949    3.6238   -8.8172 C   0  0  1  0  0  0  0  0  0  0  0  0
   45.5309    3.9424  -10.1393 O   0  0  0  0  0  0  0  0  0  0  0  0
   38.3981    7.2707   -1.5674 C   0  0  0  0  0  0  0  0  0  0  0  0
   44.8607   -2.0489   -6.1092 C   0  0  2  0  0  0  0  0  0  0  0  0
   45.4229   -0.8838   -5.3841 O   0  0  0  0  0  0  0  0  0  0  0  0
   40.8362   -2.3688   -8.6185 C   0  0  2  0  0  0  0  0  0  0  0  0
   41.2689    2.7688   -8.9271 C   0  0  1  0  0  0  0  0  0  0  0  0
   46.6645    4.9592   -8.0837 C   0  0  2  0  0  0  0  0  0  0  0  0
   47.2295    4.6484   -6.7614 O   0  0  0  0  0  0  0  0  0  0  0  0
   39.6289    6.7060   -1.1513 C   0  0  0  0  0  0  0  0  0  0  0  0
   45.1040   -1.8452   -7.6541 C   0  0  2  0  0  0  0  0  0  0  0  0
   44.5304   -3.0117   -8.3063 O   0  0  0  0  0  0  0  0  0  0  0  0
   40.0902   -1.0235   -8.9229 C   0  0  2  0  0  0  0  0  0  0  0  0
   40.5947   -0.1482   -7.9216 O   0  0  0  0  0  0  0  0  0  0  0  0
   42.1520    2.3946  -10.1163 C   0  0  0  0  0  0  0  0  0  0  0  0
   41.5462    2.5125  -11.3814 O   0  0  0  0  0  0  0  0  0  0  0  0
   45.4830    6.0231   -7.9249 C   0  0  1  0  0  0  0  0  0  0  0  0
   44.3538    5.3749   -7.1507 O   0  0  0  0  0  0  0  0  0  0  0  0
   39.7720    5.2321   -1.1113 C   0  0  0  0  0  0  0  0  0  0  0  0
   46.5544   -1.7215   -7.8707 C   0  0  0  0  0  0  0  0  0  0  0  0
   46.7904   -1.4301   -9.1561 O   0  0  0  0  0  0  0  0  0  0  0  0
   38.5188   -1.2174   -8.8196 C   0  0  1  0  0  0  0  0  0  0  0  0
   37.8723   -0.0200   -9.1019 O   0  0  0  0  0  0  0  0  0  0  0  0
   38.6615    2.6391   -5.2289 C   0  0  0  0  0  0  0  0  0  0  0  0
   46.0806    7.2664   -7.2119 C   0  0  0  0  0  0  0  0  0  0  0  0
   45.0546    8.2463   -6.9556 N   0  0  0  0  0  0  0  0  0  0  0  0
   39.2899    2.1283   -3.9283 C   0  0  0  0  0  0  0  0  0  0  0  0
   38.2580    2.1305   -2.8412 N   0  0  0  0  0  0  0  0  0  0  0  0
   38.7000    2.7703   -1.4976 C   0  0  0  0  0  0  0  0  0  0  0  0
  1  2  1  1  0  0  0
  1  9  1  0  0  0  0
  1 35  1  0  0  0  0
  3  4  1  1  0  0  0
  3 11  1  0  0  0  0
  3 45  1  0  0  0  0
  5  6  1  0  0  0  0
  5 12  1  0  0  0  0
  5 37  1  6  0  0  0
  6 30  1  0  0  0  0
  7 14  1  0  0  0  0
  7 41  1  0  0  0  0
  7 23  1  1  0  0  0
  8 16  2  0  0  0  0
  8 42  1  0  0  0  0
  9 10  1  6  0  0  0
  9 18  1  0  0  0  0
 11 20  1  0  0  0  0
 12 13  1  6  0  0  0
 12 22  1  0  0  0  0
 13 47  1  0  0  0  0
 14 15  1  1  0  0  0
 14 24  1  0  0  0  0
 16 17  1  0  0  0  0
 17 26  2  0  0  0  0
 18 19  1  1  0  0  0
 18 27  1  0  0  0  0
 20 21  1  1  0  0  0
 20 29  1  0  0  0  0
 22 23  1  1  0  0  0
 22 30  1  0  0  0  0
 24 25  1  6  0  0  0
 24 31  1  0  0  0  0
 26 33  1  0  0  0  0
 27 28  1  1  0  0  0
 27 34  1  0  0  0  0
 29  2  1  6  0  0  0
 29 36  1  0  0  0  0
 30 38  1  6  0  0  0
 31 32  1  1  0  0  0
 31 40  1  0  0  0  0
 33 42  2  0  0  0  0
 34 35  1  0  0  0  0
 34 43  1  1  0  0  0
 36 37  1  1  0  0  0
 36 45  1  0  0  0  0
 38 39  1  0  0  0  0
 40 41  1  0  0  0  0
 40 48  1  1  0  0  0
 43 44  1  0  0  0  0
 45 46  1  6  0  0  0
 47 50  1  0  0  0  0
 48 49  1  0  0  0  0
 50 51  1  0  0  0  0
 51 52  1  0  0  0  0
 52  8  1  0  0  0  0
M  END
>  <CHROM.1>
-59.78062524,-56.66279201,-65.85159601,77.29574243,59.22257019,-177.92326852
-74.46218501,58.05665597,-174.60735767,-172.74019838,-176.47819680,167.34405878
-132.11199555,80.08923750,51.86651624,41.95007815,1.34277547,-6.96450544
-1.44898096,0.43634165,0.47409754

>  <Name>
2be0_lig

>  <RI>
3.37048e+07

>  <Rbt.Current_Directory>
/home/itssahil/PROJECTS/Mol_Feturizer/New_Systems/rnas/2be0

>  <Rbt.Executable>
rbdock ($Id: //depot/dev/client3/rdock/2013.1/src/exe/rbdock.cxx#4 $)

>  <Rbt.Library>
libRbt.so (2013.1, Build901 2013/11/27)

>  <Rbt.Parameter_File>
/export/apps/rDock/src/rDock_2013.1_src/data/scripts/dock_solv.prm

>  <Rbt.Receptor>
prm/pocket_docking_8.prm

>  <SCORE>
-20.3618

>  <SCORE.INTER>
-3.23707

>  <SCORE.INTER.CONST>
1

>  <SCORE.INTER.POLAR>
-0.959166

>  <SCORE.INTER.ROT>
15

>  <SCORE.INTER.SOLV>
9.67975

>  <SCORE.INTER.VDW>
-15.7874

>  <SCORE.INTER.norm>
-0.0622514

>  <SCORE.INTRA>
-17.1247

>  <SCORE.INTRA.DIHEDRAL>
-41.8344

>  <SCORE.INTRA.DIHEDRAL.0>
47.8724

>  <SCORE.INTRA.POLAR>
0

>  <SCORE.INTRA.POLAR.0>
0

>  <SCORE.INTRA.REPUL>
0.0148236

>  <SCORE.INTRA.REPUL.0>
0

>  <SCORE.INTRA.SOLV>
0.560379

>  <SCORE.INTRA.SOLV.lig_0>
-115.677

>  <SCORE.INTRA.VDW>
3.43819

>  <SCORE.INTRA.VDW.0>
-7.4833

>  <SCORE.INTRA.norm>
-0.329321

>  <SCORE.RESTR>
0

>  <SCORE.RESTR.CAVITY>
0

>  <SCORE.RESTR.norm>
0

>  <SCORE.SYSTEM>
0

>  <SCORE.SYSTEM.CONST>
0

>  <SCORE.SYSTEM.DIHEDRAL>
0

>  <SCORE.SYSTEM.SOLV>
0

>  <SCORE.SYSTEM.norm>
0

>  <SCORE.heavy>
52

>  <SCORE.norm>
-0.391573

>  <RMSD>
9.828

$$$$
2be0_lig
 OpenBabel11021811423D
libRbt.so/2013.1/901 2013/11/27
 52 56  0  0  0  0  0  0  0  0999 V2000
   39.0755    0.0903   -8.0382 C   0  0  2  0  0  0  0  0  0  0  0  0
   38.2611   -0.9546   -7.5609 O   0  0  0  0  0  0  0  0  0  0  0  0
   36.8597   -1.7173   -3.4590 C   0  0  2  0  0  0  0  0  0  0  0  0
   36.8937   -2.1139   -2.0234 N   0  0  0  0  0  0  0  0  0  0  0  0
   38.5656    2.1789   -4.8483 C   0  0  2  0  0  0  0  0  0  0  0  0
   38.8481    3.3165   -5.6888 O   0  0  0  0  0  0  0  0  0  0  0  0
   42.5733    2.3615   -2.7727 C   0  0  1  0  0  0  0  0  0  0  0  0
   40.0037    5.3284    2.8097 C   0  0  0  0  0  0  0  0  0  0  0  0
   38.9480    0.2449   -9.6084 C   0  0  2  0  0  0  0  0  0  0  0  0
   37.5401    0.4056   -9.9778 N   0  0  0  0  0  0  0  0  0  0  0  0
   37.3691   -2.9393   -4.3509 C   0  0  0  0  0  0  0  0  0  0  0  0
   39.5874    2.2114   -3.7006 C   0  0  2  0  0  0  0  0  0  0  0  0
   38.9597    3.1288   -2.6997 O   0  0  0  0  0  0  0  0  0  0  0  0
   43.4541    3.3439   -1.8238 C   0  0  2  0  0  0  0  0  0  0  0  0
   44.4403    4.0802   -2.6788 N   0  0  0  0  0  0  0  0  0  0  0  0
   41.3049    5.8899    2.5940 C   0  0  0  0  0  0  0  0  0  0  0  0
   41.9384    6.6174    3.6353 N   0  0  0  0  0  0  0  0  0  0  0  0
   39.6152   -1.0169  -10.3286 C   0  0  1  0  0  0  0  0  0  0  0  0
   39.4838   -0.8626  -11.7332 O   0  0  0  0  0  0  0  0  0  0  0  0
   37.3605   -2.5395   -5.9352 C   0  0  2  0  0  0  0  0  0  0  0  0
   37.8148   -3.6317   -6.7490 N   0  0  0  0  0  0  0  0  0  0  0  0
   40.8213    2.6764   -4.4968 C   0  0  2  0  0  0  0  0  0  0  0  0
   41.9157    3.1877   -3.7501 O   0  0  0  0  0  0  0  0  0  0  0  0
   44.1839    2.4604   -0.7673 C   0  0  1  0  0  0  0  0  0  0  0  0
   43.1268    1.8031    0.0187 O   0  0  0  0  0  0  0  0  0  0  0  0
   41.3394    6.8269    4.9102 C   0  0  0  0  0  0  0  0  0  0  0  0
   41.1066   -1.1047   -9.8924 C   0  0  2  0  0  0  0  0  0  0  0  0
   41.7802   -2.2631  -10.5277 O   0  0  0  0  0  0  0  0  0  0  0  0
   38.2871   -1.2773   -6.1758 C   0  0  2  0  0  0  0  0  0  0  0  0
   40.2322    3.6829   -5.5137 C   0  0  1  0  0  0  0  0  0  0  0  0
   45.1279    1.3662   -1.5138 C   0  0  2  0  0  0  0  0  0  0  0  0
   46.1867    2.0160   -2.3018 O   0  0  0  0  0  0  0  0  0  0  0  0
   40.0549    6.2948    5.1821 C   0  0  0  0  0  0  0  0  0  0  0  0
   41.2128   -1.2578   -8.3262 C   0  0  2  0  0  0  0  0  0  0  0  0
   40.5346   -0.1005   -7.7645 O   0  0  0  0  0  0  0  0  0  0  0  0
   37.7520   -0.1131   -5.2716 C   0  0  2  0  0  0  0  0  0  0  0  0
   38.6390    0.9567   -5.5752 O   0  0  0  0  0  0  0  0  0  0  0  0
   40.8970    3.5820   -6.8855 C   0  0  0  0  0  0  0  0  0  0  0  0
   42.2760    3.8626   -6.9124 O   0  0  0  0  0  0  0  0  0  0  0  0
   44.2302    0.4551   -2.4713 C   0  0  1  0  0  0  0  0  0  0  0  0
   43.5042    1.3557   -3.4492 O   0  0  0  0  0  0  0  0  0  0  0  0
   39.3512    5.5282    4.1278 C   0  0  0  0  0  0  0  0  0  0  0  0
   42.6406   -1.3138   -7.9735 C   0  0  0  0  0  0  0  0  0  0  0  0
   43.2088   -0.1275   -8.2234 O   0  0  0  0  0  0  0  0  0  0  0  0
   37.8030   -0.5237   -3.7398 C   0  0  1  0  0  0  0  0  0  0  0  0
   37.3164    0.5136   -2.9531 O   0  0  0  0  0  0  0  0  0  0  0  0
   39.5419    3.6507   -1.4407 C   0  0  0  0  0  0  0  0  0  0  0  0
   45.1825   -0.5584   -3.1621 C   0  0  0  0  0  0  0  0  0  0  0  0
   45.8066   -1.4155   -2.1850 N   0  0  0  0  0  0  0  0  0  0  0  0
   38.5255    4.6290   -0.8428 C   0  0  0  0  0  0  0  0  0  0  0  0
   39.1466    5.3464    0.3174 N   0  0  0  0  0  0  0  0  0  0  0  0
   39.3114    4.5089    1.6142 C   0  0  0  0  0  0  0  0  0  0  0  0
  1  2  1  6  0  0  0
  1  9  1  0  0  0  0
  1 35  1  0  0  0  0
  3  4  1  1  0  0  0
  3 11  1  0  0  0  0
  3 45  1  0  0  0  0
  5  6  1  0  0  0  0
  5 12  1  0  0  0  0
  5 37  1  6  0  0  0
  6 30  1  0  0  0  0
  7 14  1  0  0  0  0
  7 41  1  0  0  0  0
  7 23  1  6  0  0  0
  8 16  2  0  0  0  0
  8 42  1  0  0  0  0
  9 10  1  1  0  0  0
  9 18  1  0  0  0  0
 11 20  1  0  0  0  0
 12 13  1  1  0  0  0
 12 22  1  0  0  0  0
 13 47  1  0  0  0  0
 14 15  1  6  0  0  0
 14 24  1  0  0  0  0
 16 17  1  0  0  0  0
 17 26  2  0  0  0  0
 18 19  1  6  0  0  0
 18 27  1  0  0  0  0
 20 21  1  6  0  0  0
 20 29  1  0  0  0  0
 22 23  1  1  0  0  0
 22 30  1  0  0  0  0
 24 25  1  6  0  0  0
 24 31  1  0  0  0  0
 26 33  1  0  0  0  0
 27 28  1  6  0  0  0
 27 34  1  0  0  0  0
 29  2  1  6  0  0  0
 29 36  1  0  0  0  0
 30 38  1  6  0  0  0
 31 32  1  6  0  0  0
 31 40  1  0  0  0  0
 33 42  2  0  0  0  0
 34 35  1  0  0  0  0
 34 43  1  6  0  0  0
 36 37  1  1  0  0  0
 36 45  1  0  0  0  0
 38 39  1  0  0  0  0
 40 41  1  0  0  0  0
 40 48  1  6  0  0  0
 43 44  1  0  0  0  0
 45 46  1  1  0  0  0
 47 50  1  0  0  0  0
 48 49  1  0  0  0  0
 50 51  1  0  0  0  0
 51 52  1  0  0  0  0
 52  8  1  0  0  0  0
M  END
>  <CHROM.1>
177.46699789,-144.51671234,-163.86332862,-173.42416242,175.83666255,59.86323821
-176.25526768,-178.00868449,67.38409209,-173.81604356,62.44315271,-171.31706338
-74.11049893,179.07407683,-57.95012177,40.59954115,1.47474088,-3.95885959
1.71102401,-0.08219754,-2.07088234

>  <Name>
2be0_lig

>  <RI>
0

>  <Rbt.Current_Directory>
/home/itssahil/PROJECTS/Mol_Feturizer/New_Systems/rnas/2be0

>  <Rbt.Executable>
rbdock ($Id: //depot/dev/client3/rdock/2013.1/src/exe/rbdock.cxx#4 $)

>  <Rbt.Library>
libRbt.so (2013.1, Build901 2013/11/27)

>  <Rbt.Parameter_File>
/export/apps/rDock/src/rDock_2013.1_src/data/scripts/dock_solv.prm

>  <Rbt.Receptor>
prm/pocket_docking_6.prm

>  <SCORE>
-18.9641

>  <SCORE.INTER>
0.144233

>  <SCORE.INTER.CONST>
1

>  <SCORE.INTER.POLAR>
0

>  <SCORE.INTER.ROT>
15

>  <SCORE.INTER.SOLV>
14.2029

>  <SCORE.INTER.VDW>
-18.2382

>  <SCORE.INTER.norm>
0.00277372

>  <SCORE.INTRA>
-19.1083

>  <SCORE.INTRA.DIHEDRAL>
-39.6171

>  <SCORE.INTRA.DIHEDRAL.0>
47.8724

>  <SCORE.INTRA.POLAR>
0

>  <SCORE.INTRA.POLAR.0>
0

>  <SCORE.INTRA.REPUL>
0

>  <SCORE.INTRA.REPUL.0>
0

>  <SCORE.INTRA.SOLV>
-4.06434

>  <SCORE.INTRA.SOLV.lig_0>
-115.677

>  <SCORE.INTRA.VDW>
2.73239

>  <SCORE.INTRA.VDW.0>
-7.4833

>  <SCORE.INTRA.norm>
-0.367468

>  <SCORE.RESTR>
0

>  <SCORE.RESTR.CAVITY>
0

>  <SCORE.RESTR.norm>
0

>  <SCORE.SYSTEM>
0

>  <SCORE.SYSTEM.CONST>
0

>  <SCORE.SYSTEM.DIHEDRAL>
0

>  <SCORE.SYSTEM.SOLV>
0

>  <SCORE.SYSTEM.norm>
0

>  <SCORE.heavy>
52

>  <SCORE.norm>
-0.364694

>  <RMSD>
9.836

$$$$
2be0_lig
 OpenBabel11021811423D
libRbt.so/2013.1/901 2013/11/27
 52 56  0  0  0  0  0  0  0  0999 V2000
   44.0797   -0.5582   -2.7892 C   0  0  2  0  0  0  0  0  0  0  0  0
   43.3582    0.6315   -3.0053 O   0  0  0  0  0  0  0  0  0  0  0  0
   39.3252   -1.0544   -3.5189 C   0  0  2  0  0  0  0  0  0  0  0  0
   37.8474   -1.1084   -3.6993 N   0  0  0  0  0  0  0  0  0  0  0  0
   41.9584    1.7678   -5.8068 C   0  0  2  0  0  0  0  0  0  0  0  0
   42.2283    2.1199   -7.1792 O   0  0  0  0  0  0  0  0  0  0  0  0
   46.3800    3.6541   -5.9793 C   0  0  1  0  0  0  0  0  0  0  0  0
   41.4509    8.7932   -2.6776 C   0  0  0  0  0  0  0  0  0  0  0  0
   45.5868   -0.2544   -2.4125 C   0  0  2  0  0  0  0  0  0  0  0  0
   45.6372    0.6585   -1.2685 N   0  0  0  0  0  0  0  0  0  0  0  0
   39.6607   -0.2175   -2.2015 C   0  0  0  0  0  0  0  0  0  0  0  0
   42.8132    2.7005   -4.9339 C   0  0  2  0  0  0  0  0  0  0  0  0
   41.9688    3.9282   -4.8033 O   0  0  0  0  0  0  0  0  0  0  0  0
   47.2027    4.9071   -5.3511 C   0  0  2  0  0  0  0  0  0  0  0  0
   46.5810    6.1815   -5.8361 N   0  0  0  0  0  0  0  0  0  0  0  0
   42.5894    9.6327   -2.4451 C   0  0  0  0  0  0  0  0  0  0  0  0
   42.5875   10.5318   -1.3466 N   0  0  0  0  0  0  0  0  0  0  0  0
   46.3497    0.3395   -3.6857 C   0  0  1  0  0  0  0  0  0  0  0  0
   47.6951    0.6118   -3.3253 O   0  0  0  0  0  0  0  0  0  0  0  0
   41.2760   -0.1224   -1.9748 C   0  0  2  0  0  0  0  0  0  0  0  0
   41.5912    0.6265   -0.7911 N   0  0  0  0  0  0  0  0  0  0  0  0
   44.0853    2.7352   -5.8020 C   0  0  2  0  0  0  0  0  0  0  0  0
   45.0141    3.7778   -5.5437 O   0  0  0  0  0  0  0  0  0  0  0  0
   48.6827    4.7938   -5.8261 C   0  0  1  0  0  0  0  0  0  0  0  0
   49.1921    3.5238   -5.2829 O   0  0  0  0  0  0  0  0  0  0  0  0
   41.4927   10.6504   -0.4437 C   0  0  0  0  0  0  0  0  0  0  0  0
   46.2585   -0.6951   -4.8448 C   0  0  2  0  0  0  0  0  0  0  0  0
   46.9477   -0.1966   -6.0595 O   0  0  0  0  0  0  0  0  0  0  0  0
   41.9557    0.5612   -3.2319 C   0  0  2  0  0  0  0  0  0  0  0  0
   43.5322    2.7328   -7.2471 C   0  0  1  0  0  0  0  0  0  0  0  0
   48.7479    4.8062   -7.4514 C   0  0  2  0  0  0  0  0  0  0  0  0
   48.2400    6.0726   -8.0015 O   0  0  0  0  0  0  0  0  0  0  0  0
   40.3406    9.8457   -0.6224 C   0  0  0  0  0  0  0  0  0  0  0  0
   44.7506   -0.9849   -5.2050 C   0  0  2  0  0  0  0  0  0  0  0  0
   44.1318   -1.4643   -3.9794 O   0  0  0  0  0  0  0  0  0  0  0  0
   41.5874   -0.2909   -4.4958 C   0  0  2  0  0  0  0  0  0  0  0  0
   42.2523    0.3989   -5.5473 O   0  0  0  0  0  0  0  0  0  0  0  0
   44.3767    1.8806   -8.1929 C   0  0  0  0  0  0  0  0  0  0  0  0
   43.9912    1.9148   -9.5462 O   0  0  0  0  0  0  0  0  0  0  0  0
   47.8878    3.5889   -8.0269 C   0  0  1  0  0  0  0  0  0  0  0  0
   46.4714    3.7117   -7.5038 O   0  0  0  0  0  0  0  0  0  0  0  0
   40.2928    8.8917   -1.7546 C   0  0  0  0  0  0  0  0  0  0  0  0
   44.7281   -1.9818   -6.2875 C   0  0  0  0  0  0  0  0  0  0  0  0
   43.4699   -2.1495   -6.7137 O   0  0  0  0  0  0  0  0  0  0  0  0
   40.0150   -0.3366   -4.7030 C   0  0  1  0  0  0  0  0  0  0  0  0
   39.7047   -1.1032   -5.8200 O   0  0  0  0  0  0  0  0  0  0  0  0
   40.6002    4.0465   -4.2473 C   0  0  0  0  0  0  0  0  0  0  0  0
   47.9774    3.6581   -9.5757 C   0  0  0  0  0  0  0  0  0  0  0  0
   49.3007    3.3018  -10.0237 N   0  0  0  0  0  0  0  0  0  0  0  0
   40.2456    5.5369   -4.2292 C   0  0  0  0  0  0  0  0  0  0  0  0
   41.3208    6.2968   -3.5128 N   0  0  0  0  0  0  0  0  0  0  0  0
   41.4812    7.7843   -3.9272 C   0  0  0  0  0  0  0  0  0  0  0  0
  1  2  1  6  0  0  0
  1  9  1  0  0  0  0
  1 35  1  0  0  0  0
  3  4  1  6  0  0  0
  3 11  1  0  0  0  0
  3 45  1  0  0  0  0
  5  6  1  0  0  0  0
  5 12  1  0  0  0  0
  5 37  1  6  0  0  0
  6 30  1  0  0  0  0
  7 14  1  0  0  0  0
  7 41  1  0  0  0  0
  7 23  1  6  0  0  0
  8 16  2  0  0  0  0
  8 42  1  0  0  0  0
  9 10  1  1  0  0  0
  9 18  1  0  0  0  0
 11 20  1  0  0  0  0
 12 13  1  6  0  0  0
 12 22  1  0  0  0  0
 13 47  1  0  0  0  0
 14 15  1  6  0  0  0
 14 24  1  0  0  0  0
 16 17  1  0  0  0  0
 17 26  2  0  0  0  0
 18 19  1  1  0  0  0
 18 27  1  0  0  0  0
 20 21  1  1  0  0  0
 20 29  1  0  0  0  0
 22 23  1  1  0  0  0
 22 30  1  0  0  0  0
 24 25  1  6  0  0  0
 24 31  1  0  0  0  0
 26 33  1  0  0  0  0
 27 28  1  6  0  0  0
 27 34  1  0  0  0  0
 29  2  1  1  0  0  0
 29 36  1  0  0  0  0
 30 38  1  6  0  0  0
 31 32  1  6  0  0  0
 31 40  1  0  0  0  0
 33 42  2  0  0  0  0
 34 35  1  0  0  0  0
 34 43  1  6  0  0  0
 36 37  1  6  0  0  0
 36 45  1  0  0  0  0
 38 39  1  0  0  0  0
 40 41  1  0  0  0  0
 40 48  1  6  0  0  0
 43 44  1  0  0  0  0
 45 46  1  6  0  0  0
 47 50  1  0  0  0  0
 48 49  1  0  0  0  0
 50 51  1  0  0  0  0
 51 52  1  0  0  0  0
 52  8  1  0  0  0  0
M  END
>  <CHROM.1>
-174.19592576,-154.26780521,-172.34409648,58.66280194,174.92271686,160.09755268
59.36969801,68.42060966,-173.65286298,-58.54697628,70.58612898,-53.08115607
153.52446771,127.69202681,120.68187376,43.83087269,2.72228279,-4.84547987
1.16222909,-0.55325774,-2.97848840

>  <Name>
2be0_lig

>  <RI>
0

>  <Rbt.Current_Directory>
/home/itssahil/PROJECTS/Mol_Feturizer/New_Systems/rnas/2be0

>  <Rbt.Executable>
rbdock ($Id: //depot/dev/client3/rdock/2013.1/src/exe/rbdock.cxx#4 $)

>  <Rbt.Library>
libRbt.so (2013.1, Build901 2013/11/27)

>  <Rbt.Parameter_File>
/export/apps/rDock/src/rDock_2013.1_src/data/scripts/dock_solv.prm

>  <Rbt.Receptor>
prm/pocket_docking_7.prm

>  <SCORE>
-18.709

>  <SCORE.INTER>
0.55177

>  <SCORE.INTER.CONST>
1

>  <SCORE.INTER.POLAR>
-0.45767

>  <SCORE.INTER.ROT>
15

>  <SCORE.INTER.SOLV>
12.9963

>  <SCORE.INTER.VDW>
-16.0387

>  <SCORE.INTER.norm>
0.010611

>  <SCORE.INTRA>
-19.2608

>  <SCORE.INTRA.DIHEDRAL>
-38.8702

>  <SCORE.INTRA.DIHEDRAL.0>
47.8724

>  <SCORE.INTRA.POLAR>
0

>  <SCORE.INTRA.POLAR.0>
0

>  <SCORE.INTRA.REPUL>
0

>  <SCORE.INTRA.REPUL.0>
0

>  <SCORE.INTRA.SOLV>
-1.88345

>  <SCORE.INTRA.SOLV.lig_0>
-115.677

>  <SCORE.INTRA.VDW>
1.11605

>  <SCORE.INTRA.VDW.0>
-7.4833

>  <SCORE.INTRA.norm>
-0.370399

>  <SCORE.RESTR>
0

>  <SCORE.RESTR.CAVITY>
0

>  <SCORE.RESTR.norm>
0

>  <SCORE.SYSTEM>
0

>  <SCORE.SYSTEM.CONST>
0

>  <SCORE.SYSTEM.DIHEDRAL>
0

>  <SCORE.SYSTEM.SOLV>
0

>  <SCORE.SYSTEM.norm>
0

>  <SCORE.heavy>
52

>  <SCORE.norm>
-0.359788

>  <RMSD>
9.848

$$$$
2be0_lig
 OpenBabel11021811423D
libRbt.so/2013.1/901 2013/11/27
 52 56  0  0  0  0  0  0  0  0999 V2000
   41.6877    5.4363    1.5863 C   0  0  2  0  0  0  0  0  0  0  0  0
   41.2751    6.5173    0.7838 O   0  0  0  0  0  0  0  0  0  0  0  0
   42.9640   10.1906   -0.9556 C   0  0  2  0  0  0  0  0  0  0  0  0
   43.9588   11.2491   -1.2864 N   0  0  0  0  0  0  0  0  0  0  0  0
   42.0861    5.8130   -2.7170 C   0  0  2  0  0  0  0  0  0  0  0  0
   42.4224    4.4164   -2.8471 O   0  0  0  0  0  0  0  0  0  0  0  0
   45.7310    5.3721   -5.8190 C   0  0  1  0  0  0  0  0  0  0  0  0
   43.0547    6.9038   -9.6066 C   0  0  0  0  0  0  0  0  0  0  0  0
   40.4725    4.4827    1.9324 C   0  0  2  0  0  0  0  0  0  0  0  0
   39.8103    4.0560    0.6979 N   0  0  0  0  0  0  0  0  0  0  0  0
   42.8506   10.0575    0.6312 C   0  0  0  0  0  0  0  0  0  0  0  0
   42.5150    6.4957   -4.0256 C   0  0  2  0  0  0  0  0  0  0  0  0
   41.3449    6.2803   -4.9321 O   0  0  0  0  0  0  0  0  0  0  0  0
   46.7012    6.6021   -5.3864 C   0  0  2  0  0  0  0  0  0  0  0  0
   46.3444    7.8060   -6.2042 N   0  0  0  0  0  0  0  0  0  0  0  0
   42.7358    7.8319   -8.5617 C   0  0  0  0  0  0  0  0  0  0  0  0
   43.4603    9.0480   -8.4560 N   0  0  0  0  0  0  0  0  0  0  0  0
   39.4661    5.2327    2.9226 C   0  0  1  0  0  0  0  0  0  0  0  0
   38.3816    4.3649    3.2140 O   0  0  0  0  0  0  0  0  0  0  0  0
   41.7773    8.8942    1.0368 C   0  0  2  0  0  0  0  0  0  0  0  0
   41.6643    8.7659    2.4623 N   0  0  0  0  0  0  0  0  0  0  0  0
   43.8268    5.7270   -4.2733 C   0  0  2  0  0  0  0  0  0  0  0  0
   44.3755    5.7926   -5.5814 O   0  0  0  0  0  0  0  0  0  0  0  0
   48.1738    6.1657   -5.6513 C   0  0  1  0  0  0  0  0  0  0  0  0
   48.4164    4.9960   -4.7908 O   0  0  0  0  0  0  0  0  0  0  0  0
   44.5110    9.4046   -9.3487 C   0  0  0  0  0  0  0  0  0  0  0  0
   40.2454    5.6378    4.2074 C   0  0  2  0  0  0  0  0  0  0  0  0
   39.3616    6.3438    5.1663 O   0  0  0  0  0  0  0  0  0  0  0  0
   42.2255    7.5086    0.4131 C   0  0  2  0  0  0  0  0  0  0  0  0
   43.4933    4.2905   -3.8053 C   0  0  1  0  0  0  0  0  0  0  0  0
   48.3688    5.7906   -7.2220 C   0  0  2  0  0  0  0  0  0  0  0  0
   48.1275    6.9550   -8.0882 O   0  0  0  0  0  0  0  0  0  0  0  0
   44.8701    8.5276  -10.4017 C   0  0  0  0  0  0  0  0  0  0  0  0
   41.4513    6.5864    3.8423 C   0  0  2  0  0  0  0  0  0  0  0  0
   42.2744    5.8427    2.9019 O   0  0  0  0  0  0  0  0  0  0  0  0
   42.3318    7.6964   -1.1401 C   0  0  2  0  0  0  0  0  0  0  0  0
   42.7227    6.4045   -1.5891 O   0  0  0  0  0  0  0  0  0  0  0  0
   44.6635    3.6270   -3.0812 C   0  0  0  0  0  0  0  0  0  0  0  0
   44.9045    4.0856   -1.7724 O   0  0  0  0  0  0  0  0  0  0  0  0
   47.3637    4.6126   -7.6157 C   0  0  1  0  0  0  0  0  0  0  0  0
   45.9516    5.0600   -7.2988 O   0  0  0  0  0  0  0  0  0  0  0  0
   44.1446    7.2452  -10.5545 C   0  0  0  0  0  0  0  0  0  0  0  0
   42.1600    6.9166    5.0892 C   0  0  0  0  0  0  0  0  0  0  0  0
   42.0984    8.2373    5.3011 O   0  0  0  0  0  0  0  0  0  0  0  0
   43.4033    8.8103   -1.4987 C   0  0  1  0  0  0  0  0  0  0  0  0
   43.4781    8.9719   -2.8770 O   0  0  0  0  0  0  0  0  0  0  0  0
   41.2310    6.5965   -6.3755 C   0  0  0  0  0  0  0  0  0  0  0  0
   47.5863    4.3063   -9.1217 C   0  0  0  0  0  0  0  0  0  0  0  0
   46.9904    3.0421   -9.4759 N   0  0  0  0  0  0  0  0  0  0  0  0
   42.1697    5.6443   -7.1235 C   0  0  0  0  0  0  0  0  0  0  0  0
   41.5006    5.1665   -8.3767 N   0  0  0  0  0  0  0  0  0  0  0  0
   42.2175    5.5363   -9.7031 C   0  0  0  0  0  0  0  0  0  0  0  0
  1  2  1  1  0  0  0
  1  9  1  0  0  0  0
  1 35  1  0  0  0  0
  3  4  1  1  0  0  0
  3 11  1  0  0  0  0
  3 45  1  0  0  0  0
  5  6  1  0  0  0  0
  5 12  1  0  0  0  0
  5 37  1  1  0  0  0
  6 30  1  0  0  0  0
  7 14  1  0  0  0  0
  7 41  1  0  0  0  0
  7 23  1  6  0  0  0
  8 16  2  0  0  0  0
  8 42  1  0  0  0  0
  9 10  1  6  0  0  0
  9 18  1  0  0  0  0
 11 20  1  0  0  0  0
 12 13  1  6  0  0  0
 12 22  1  0  0  0  0
 13 47  1  0  0  0  0
 14 15  1  6  0  0  0
 14 24  1  0  0  0  0
 16 17  1  0  0  0  0
 17 26  2  0  0  0  0
 18 19  1  1  0  0  0
 18 27  1  0  0  0  0
 20 21  1  1  0  0  0
 20 29  1  0  0  0  0
 22 23  1  6  0  0  0
 22 30  1  0  0  0  0
 24 25  1  1  0  0  0
 24 31  1  0  0  0  0
 26 33  1  0  0  0  0
 27 28  1  1  0  0  0
 27 34  1  0  0  0  0
 29  2  1  6  0  0  0
 29 36  1  0  0  0  0
 30 38  1  1  0  0  0
 31 32  1  6  0  0  0
 31 40  1  0  0  0  0
 33 42  2  0  0  0  0
 34 35  1  0  0  0  0
 34 43  1  1  0  0  0
 36 37  1  6  0  0  0
 36 45  1  0  0  0  0
 38 39  1  0  0  0  0
 40 41  1  0  0  0  0
 40 48  1  6  0  0  0
 43 44  1  0  0  0  0
 45 46  1  6  0  0  0
 47 50  1  0  0  0  0
 48 49  1  0  0  0  0
 50 51  1  0  0  0  0
 51 52  1  0  0  0  0
 52  8  1  0  0  0  0
M  END
>  <CHROM.1>
177.69354683,-168.25510283,-81.00794386,-173.15257559,68.30199520,165.67476985
-116.93603479,-41.71165939,-117.84320908,134.72100582,164.83317634,139.22513191
118.67850407,-29.23864117,-19.93083391,43.36314323,6.46138198,-3.10289199
-2.04380293,0.64271229,-1.30882278

>  <Name>
2be0_lig

>  <RI>
224

>  <Rbt.Current_Directory>
/home/itssahil/PROJECTS/Mol_Feturizer/New_Systems/rnas/2be0

>  <Rbt.Executable>
rbdock ($Id: //depot/dev/client3/rdock/2013.1/src/exe/rbdock.cxx#4 $)

>  <Rbt.Library>
libRbt.so (2013.1, Build901 2013/11/27)

>  <Rbt.Parameter_File>
/export/apps/rDock/src/rDock_2013.1_src/data/scripts/dock_solv.prm

>  <Rbt.Receptor>
prm/blind_docking_100.prm

>  <SCORE>
16.7109

>  <SCORE.INTER>
1.84359

>  <SCORE.INTER.CONST>
1

>  <SCORE.INTER.POLAR>
-0.674211

>  <SCORE.INTER.ROT>
15

>  <SCORE.INTER.SOLV>
27.8766

>  <SCORE.INTER.VDW>
-19.4158

>  <SCORE.INTER.norm>
0.0354537

>  <SCORE.INTRA>
-0.871499

>  <SCORE.INTRA.DIHEDRAL>
-15.998

>  <SCORE.INTRA.DIHEDRAL.0>
47.8724

>  <SCORE.INTRA.POLAR>
0

>  <SCORE.INTRA.POLAR.0>
0

>  <SCORE.INTRA.REPUL>
0

>  <SCORE.INTRA.REPUL.0>
0

>  <SCORE.INTRA.SOLV>
1.4545

>  <SCORE.INTRA.SOLV.lig_0>
-115.677

>  <SCORE.INTRA.VDW>
6.40027

>  <SCORE.INTRA.VDW.0>
-7.4833

>  <SCORE.INTRA.norm>
-0.0167596

>  <SCORE.RESTR>
15.7388

>  <SCORE.RESTR.CAVITY>
15.7388

>  <SCORE.RESTR.norm>
0.30267

>  <SCORE.SYSTEM>
0

>  <SCORE.SYSTEM.CONST>
0

>  <SCORE.SYSTEM.DIHEDRAL>
0

>  <SCORE.SYSTEM.SOLV>
0

>  <SCORE.SYSTEM.norm>
0

>  <SCORE.heavy>
52

>  <SCORE.norm>
0.321364

>  <RMSD>
9.859

$$$$
2be0_lig
 OpenBabel11021811423D
libRbt.so/2013.1/901 2013/11/27
 52 56  0  0  0  0  0  0  0  0999 V2000
   38.4934   -0.1649   -4.3849 C   0  0  2  0  0  0  0  0  0  0  0  0
   39.8437   -0.4816   -4.1415 O   0  0  0  0  0  0  0  0  0  0  0  0
   40.4965    1.8797   -0.4852 C   0  0  2  0  0  0  0  0  0  0  0  0
   41.1569    2.3846    0.7512 N   0  0  0  0  0  0  0  0  0  0  0  0
   41.8584    3.1125   -4.5807 C   0  0  2  0  0  0  0  0  0  0  0  0
   41.6962    3.3539   -5.9935 O   0  0  0  0  0  0  0  0  0  0  0  0
   46.3218    2.7798   -4.8301 C   0  0  1  0  0  0  0  0  0  0  0  0
   43.0130   10.1902   -0.7020 C   0  0  0  0  0  0  0  0  0  0  0  0
   37.9569   -0.8995   -5.6804 C   0  0  2  0  0  0  0  0  0  0  0  0
   38.1926   -2.3403   -5.5664 N   0  0  0  0  0  0  0  0  0  0  0  0
   40.3151    0.2978   -0.3720 C   0  0  0  0  0  0  0  0  0  0  0  0
   43.3485    3.3177   -4.2645 C   0  0  2  0  0  0  0  0  0  0  0  0
   43.4590    4.7928   -4.0430 O   0  0  0  0  0  0  0  0  0  0  0  0
   47.7379    2.6188   -5.6112 C   0  0  2  0  0  0  0  0  0  0  0  0
   47.6383    1.4561   -6.5514 N   0  0  0  0  0  0  0  0  0  0  0  0
   41.5926   10.3403   -0.8237 C   0  0  0  0  0  0  0  0  0  0  0  0
   40.9037   11.2350    0.0365 N   0  0  0  0  0  0  0  0  0  0  0  0
   38.6556   -0.2798   -6.9779 C   0  0  1  0  0  0  0  0  0  0  0  0
   38.1674   -0.9562   -8.1260 O   0  0  0  0  0  0  0  0  0  0  0  0
   39.6054   -0.2987   -1.7175 C   0  0  2  0  0  0  0  0  0  0  0  0
   39.4344   -1.7213   -1.6274 N   0  0  0  0  0  0  0  0  0  0  0  0
   43.9480    2.6876   -5.5359 C   0  0  2  0  0  0  0  0  0  0  0  0
   45.3050    2.9886   -5.8267 O   0  0  0  0  0  0  0  0  0  0  0  0
   48.8480    2.3781   -4.5440 C   0  0  1  0  0  0  0  0  0  0  0  0
   48.8670    3.5796   -3.6934 O   0  0  0  0  0  0  0  0  0  0  0  0
   41.5592   12.0076    1.0373 C   0  0  0  0  0  0  0  0  0  0  0  0
   38.3448    1.2444   -7.0275 C   0  0  2  0  0  0  0  0  0  0  0  0
   38.9725    1.8780   -8.2123 O   0  0  0  0  0  0  0  0  0  0  0  0
   40.4843    0.0507   -2.9884 C   0  0  2  0  0  0  0  0  0  0  0  0
   42.9597    3.1151   -6.6470 C   0  0  1  0  0  0  0  0  0  0  0  0
   48.5043    1.0473   -3.6741 C   0  0  2  0  0  0  0  0  0  0  0  0
   48.4833   -0.1576   -4.5180 O   0  0  0  0  0  0  0  0  0  0  0  0
   42.9621   11.9021    1.2036 C   0  0  0  0  0  0  0  0  0  0  0  0
   38.8861    1.9580   -5.7293 C   0  0  2  0  0  0  0  0  0  0  0  0
   38.2401    1.2931   -4.6088 O   0  0  0  0  0  0  0  0  0  0  0  0
   40.6405    1.6100   -3.0467 C   0  0  2  0  0  0  0  0  0  0  0  0
   41.4249    1.8059   -4.2170 O   0  0  0  0  0  0  0  0  0  0  0  0
   42.7272    2.0108   -7.6768 C   0  0  0  0  0  0  0  0  0  0  0  0
   41.8527    2.3388   -8.7298 O   0  0  0  0  0  0  0  0  0  0  0  0
   47.0847    1.2288   -2.9639 C   0  0  1  0  0  0  0  0  0  0  0  0
   46.0458    1.5068   -4.0307 O   0  0  0  0  0  0  0  0  0  0  0  0
   43.7270   10.9813    0.3311 C   0  0  0  0  0  0  0  0  0  0  0  0
   38.5450    3.3866   -5.8235 C   0  0  0  0  0  0  0  0  0  0  0  0
   39.3797    3.9891   -6.6796 O   0  0  0  0  0  0  0  0  0  0  0  0
   41.3597    2.1510   -1.7400 C   0  0  1  0  0  0  0  0  0  0  0  0
   41.4813    3.5341   -1.8023 O   0  0  0  0  0  0  0  0  0  0  0  0
   43.0115    5.5814   -2.8708 C   0  0  0  0  0  0  0  0  0  0  0  0
   46.8061   -0.0708   -2.1608 C   0  0  0  0  0  0  0  0  0  0  0  0
   45.4829   -0.0402   -1.5891 N   0  0  0  0  0  0  0  0  0  0  0  0
   43.4675    7.0266   -3.0960 C   0  0  0  0  0  0  0  0  0  0  0  0
   42.9388    7.8940   -1.9938 N   0  0  0  0  0  0  0  0  0  0  0  0
   43.7665    9.1717   -1.6896 C   0  0  0  0  0  0  0  0  0  0  0  0
  1  2  1  6  0  0  0
  1  9  1  0  0  0  0
  1 35  1  0  0  0  0
  3  4  1  1  0  0  0
  3 11  1  0  0  0  0
  3 45  1  0  0  0  0
  5  6  1  0  0  0  0
  5 12  1  0  0  0  0
  5 37  1  6  0  0  0
  6 30  1  0  0  0  0
  7 14  1  0  0  0  0
  7 41  1  0  0  0  0
  7 23  1  6  0  0  0
  8 16  2  0  0  0  0
  8 42  1  0  0  0  0
  9 10  1  1  0  0  0
  9 18  1  0  0  0  0
 11 20  1  0  0  0  0
 12 13  1  6  0  0  0
 12 22  1  0  0  0  0
 13 47  1  0  0  0  0
 14 15  1  6  0  0  0
 14 24  1  0  0  0  0
 16 17  1  0  0  0  0
 17 26  2  0  0  0  0
 18 19  1  6  0  0  0
 18 27  1  0  0  0  0
 20 21  1  1  0  0  0
 20 29  1  0  0  0  0
 22 23  1  6  0  0  0
 22 30  1  0  0  0  0
 24 25  1  1  0  0  0
 24 31  1  0  0  0  0
 26 33  1  0  0  0  0
 27 28  1  6  0  0  0
 27 34  1  0  0  0  0
 29  2  1  6  0  0  0
 29 36  1  0  0  0  0
 30 38  1  6  0  0  0
 31 32  1  6  0  0  0
 31 40  1  0  0  0  0
 33 42  2  0  0  0  0
 34 35  1  0  0  0  0
 34 43  1  6  0  0  0
 36 37  1  6  0  0  0
 36 45  1  0  0  0  0
 38 39  1  0  0  0  0
 40 41  1  0  0  0  0
 40 48  1  6  0  0  0
 43 44  1  0  0  0  0
 45 46  1  6  0  0  0
 47 50  1  0  0  0  0
 48 49  1  0  0  0  0
 50 51  1  0  0  0  0
 51 52  1  0  0  0  0
 52  8  1  0  0  0  0
M  END
>  <CHROM.1>
-177.76324062,-136.34770853,157.14916740,74.50951343,175.26479281,52.80289337
52.94144324,64.66968409,-76.39598811,-176.28164981,-174.59065413,175.19762469
153.70935344,169.23769460,-36.80232021,42.41994347,3.02852070,-3.84967410
1.88974818,0.01617467,-2.66114399

>  <Name>
2be0_lig

>  <RI>
2.75444e+07

>  <Rbt.Current_Directory>
/home/itssahil/PROJECTS/Mol_Feturizer/New_Systems/rnas/2be0

>  <Rbt.Executable>
rbdock ($Id: //depot/dev/client3/rdock/2013.1/src/exe/rbdock.cxx#4 $)

>  <Rbt.Library>
libRbt.so (2013.1, Build901 2013/11/27)

>  <Rbt.Parameter_File>
/export/apps/rDock/src/rDock_2013.1_src/data/scripts/dock_solv.prm

>  <Rbt.Receptor>
prm/pocket_docking_5.prm

>  <SCORE>
-14.8762

>  <SCORE.INTER>
1.44406

>  <SCORE.INTER.CONST>
1

>  <SCORE.INTER.POLAR>
0

>  <SCORE.INTER.ROT>
15

>  <SCORE.INTER.SOLV>
10.3922

>  <SCORE.INTER.VDW>
-16.1013

>  <SCORE.INTER.norm>
0.0277704

>  <SCORE.INTRA>
-16.3202

>  <SCORE.INTRA.DIHEDRAL>
-35.0789

>  <SCORE.INTRA.DIHEDRAL.0>
47.8724

>  <SCORE.INTRA.POLAR>
0

>  <SCORE.INTRA.POLAR.0>
0

>  <SCORE.INTRA.REPUL>
0

>  <SCORE.INTRA.REPUL.0>
0

>  <SCORE.INTRA.SOLV>
-1.72022

>  <SCORE.INTRA.SOLV.lig_0>
-115.677

>  <SCORE.INTRA.VDW>
2.07931

>  <SCORE.INTRA.VDW.0>
-7.4833

>  <SCORE.INTRA.norm>
-0.313851

>  <SCORE.RESTR>
0

>  <SCORE.RESTR.CAVITY>
0

>  <SCORE.RESTR.norm>
0

>  <SCORE.SYSTEM>
0

>  <SCORE.SYSTEM.CONST>
0

>  <SCORE.SYSTEM.DIHEDRAL>
0

>  <SCORE.SYSTEM.SOLV>
0

>  <SCORE.SYSTEM.norm>
0

>  <SCORE.heavy>
52

>  <SCORE.norm>
-0.28608

>  <RMSD>
9.864

$$$$
2be0_lig
 OpenBabel11021811423D
libRbt.so/2013.1/901 2013/11/27
 52 56  0  0  0  0  0  0  0  0999 V2000
   42.0449    9.7287   -2.4347 C   0  0  2  0  0  0  0  0  0  0  0  0
   43.1894    8.9089   -2.4641 O   0  0  0  0  0  0  0  0  0  0  0  0
   44.3642    4.8072   -1.3841 C   0  0  2  0  0  0  0  0  0  0  0  0
   44.2681    3.4279   -0.8291 N   0  0  0  0  0  0  0  0  0  0  0  0
   42.8042    7.6093   -5.2053 C   0  0  2  0  0  0  0  0  0  0  0  0
   41.8435    7.4781   -6.2732 O   0  0  0  0  0  0  0  0  0  0  0  0
   45.9396    5.1576   -7.3750 C   0  0  1  0  0  0  0  0  0  0  0  0
   47.0157   10.9939  -11.0826 C   0  0  0  0  0  0  0  0  0  0  0  0
   41.8138   10.3391   -0.9926 C   0  0  2  0  0  0  0  0  0  0  0  0
   43.0241   11.0341   -0.5490 N   0  0  0  0  0  0  0  0  0  0  0  0
   44.0464    5.8596   -0.2267 C   0  0  0  0  0  0  0  0  0  0  0  0
   44.1761    7.2484   -5.7969 C   0  0  2  0  0  0  0  0  0  0  0  0
   44.6455    8.5339   -6.4007 O   0  0  0  0  0  0  0  0  0  0  0  0
   46.7000    6.2829   -6.4824 C   0  0  2  0  0  0  0  0  0  0  0  0
   46.8223    7.5372   -7.2934 N   0  0  0  0  0  0  0  0  0  0  0  0
   47.7877   12.1070  -11.5515 C   0  0  0  0  0  0  0  0  0  0  0  0
   47.4610   12.7170  -12.7910 N   0  0  0  0  0  0  0  0  0  0  0  0
   41.3853    9.1785    0.0199 C   0  0  1  0  0  0  0  0  0  0  0  0
   41.1907    9.7446    1.3067 O   0  0  0  0  0  0  0  0  0  0  0  0
   44.1276    7.3879   -0.7991 C   0  0  2  0  0  0  0  0  0  0  0  0
   43.8457    8.3449    0.2334 N   0  0  0  0  0  0  0  0  0  0  0  0
   43.7406    6.0876   -6.7109 C   0  0  2  0  0  0  0  0  0  0  0  0
   44.6499    5.6903   -7.7267 O   0  0  0  0  0  0  0  0  0  0  0  0
   48.1053    5.7247   -6.1051 C   0  0  1  0  0  0  0  0  0  0  0  0
   47.8643    4.5135   -5.3037 O   0  0  0  0  0  0  0  0  0  0  0  0
   46.3865   12.2739  -13.6138 C   0  0  0  0  0  0  0  0  0  0  0  0
   40.0899    8.5048   -0.5186 C   0  0  2  0  0  0  0  0  0  0  0  0
   39.6439    7.4128    0.3801 O   0  0  0  0  0  0  0  0  0  0  0  0
   43.0974    7.5715   -1.9885 C   0  0  2  0  0  0  0  0  0  0  0  0
   42.3656    6.5517   -7.2478 C   0  0  1  0  0  0  0  0  0  0  0  0
   48.9472    5.3795   -7.4535 C   0  0  2  0  0  0  0  0  0  0  0  0
   49.1916    6.5855   -8.2598 O   0  0  0  0  0  0  0  0  0  0  0  0
   45.5877   11.1788  -13.2018 C   0  0  0  0  0  0  0  0  0  0  0  0
   40.3397    7.9036   -1.9552 C   0  0  2  0  0  0  0  0  0  0  0  0
   40.7757    9.0163   -2.7839 O   0  0  0  0  0  0  0  0  0  0  0  0
   43.4456    6.5108   -3.0897 C   0  0  2  0  0  0  0  0  0  0  0  0
   42.4788    6.7736   -4.0994 O   0  0  0  0  0  0  0  0  0  0  0  0
   41.3633    5.4035   -7.3530 C   0  0  0  0  0  0  0  0  0  0  0  0
   40.7075    5.0603   -6.1558 O   0  0  0  0  0  0  0  0  0  0  0  0
   48.1418    4.3079   -8.3229 C   0  0  1  0  0  0  0  0  0  0  0  0
   46.7684    4.8702   -8.6265 O   0  0  0  0  0  0  0  0  0  0  0  0
   45.8883   10.5071  -11.9162 C   0  0  0  0  0  0  0  0  0  0  0  0
   39.0791    7.3019   -2.4188 C   0  0  0  0  0  0  0  0  0  0  0  0
   38.7368    6.2981   -1.6015 O   0  0  0  0  0  0  0  0  0  0  0  0
   43.3273    5.0391   -2.5086 C   0  0  1  0  0  0  0  0  0  0  0  0
   43.6487    4.1120   -3.4928 O   0  0  0  0  0  0  0  0  0  0  0  0
   44.2548    9.1361   -7.6973 C   0  0  0  0  0  0  0  0  0  0  0  0
   48.9845    4.0269   -9.5966 C   0  0  0  0  0  0  0  0  0  0  0  0
   50.2040    3.3372   -9.2563 N   0  0  0  0  0  0  0  0  0  0  0  0
   45.3714   10.1038   -8.1023 C   0  0  0  0  0  0  0  0  0  0  0  0
   46.2780    9.4340   -9.0903 N   0  0  0  0  0  0  0  0  0  0  0  0
   47.4071   10.3242   -9.6759 C   0  0  0  0  0  0  0  0  0  0  0  0
  1  2  1  1  0  0  0
  1  9  1  0  0  0  0
  1 35  1  0  0  0  0
  3  4  1  1  0  0  0
  3 11  1  0  0  0  0
  3 45  1  0  0  0  0
  5  6  1  0  0  0  0
  5 12  1  0  0  0  0
  5 37  1  1  0  0  0
  6 30  1  0  0  0  0
  7 14  1  0  0  0  0
  7 41  1  0  0  0  0
  7 23  1  6  0  0  0
  8 16  2  0  0  0  0
  8 42  1  0  0  0  0
  9 10  1  1  0  0  0
  9 18  1  0  0  0  0
 11 20  1  0  0  0  0
 12 13  1  6  0  0  0
 12 22  1  0  0  0  0
 13 47  1  0  0  0  0
 14 15  1  6  0  0  0
 14 24  1  0  0  0  0
 16 17  1  0  0  0  0
 17 26  2  0  0  0  0
 18 19  1  1  0  0  0
 18 27  1  0  0  0  0
 20 21  1  1  0  0  0
 20 29  1  0  0  0  0
 22 23  1  6  0  0  0
 22 30  1  0  0  0  0
 24 25  1  1  0  0  0
 24 31  1  0  0  0  0
 26 33  1  0  0  0  0
 27 28  1  1  0  0  0
 27 34  1  0  0  0  0
 29  2  1  6  0  0  0
 29 36  1  0  0  0  0
 30 38  1  1  0  0  0
 31 32  1  6  0  0  0
 31 40  1  0  0  0  0
 33 42  2  0  0  0  0
 34 35  1  0  0  0  0
 34 43  1  6  0  0  0
 36 37  1  6  0  0  0
 36 45  1  0  0  0  0
 38 39  1  0  0  0  0
 40 41  1  0  0  0  0
 40 48  1  6  0  0  0
 43 44  1  0  0  0  0
 45 46  1  6  0  0  0
 47 50  1  0  0  0  0
 48 49  1  0  0  0  0
 50 51  1  0  0  0  0
 51 52  1  0  0  0  0
 52  8  1  0  0  0  0
M  END
>  <CHROM.1>
80.94154619,165.00919998,-58.08946755,-79.52122456,-157.95672885,63.15955625
-120.92144462,-34.41530248,-62.59601868,95.92751329,67.83727146,98.76200882
175.82036792,-95.12022680,163.05864324,44.28362250,7.48280329,-5.40167087
2.46149915,-0.82703702,2.41153979

>  <Name>
2be0_lig

>  <RI>
224

>  <Rbt.Current_Directory>
/home/itssahil/PROJECTS/Mol_Feturizer/New_Systems/rnas/2be0

>  <Rbt.Executable>
rbdock ($Id: //depot/dev/client3/rdock/2013.1/src/exe/rbdock.cxx#4 $)

>  <Rbt.Library>
libRbt.so (2013.1, Build901 2013/11/27)

>  <Rbt.Parameter_File>
/export/apps/rDock/src/rDock_2013.1_src/data/scripts/dock_solv.prm

>  <Rbt.Receptor>
prm/blind_docking_100.prm

>  <SCORE>
4.82282

>  <SCORE.INTER>
-9.01304

>  <SCORE.INTER.CONST>
1

>  <SCORE.INTER.POLAR>
-0.996813

>  <SCORE.INTER.ROT>
15

>  <SCORE.INTER.SOLV>
21.6581

>  <SCORE.INTER.VDW>
-23.5053

>  <SCORE.INTER.norm>
-0.173328

>  <SCORE.INTRA>
-1.25098

>  <SCORE.INTRA.DIHEDRAL>
-21.0001

>  <SCORE.INTRA.DIHEDRAL.0>
47.8724

>  <SCORE.INTRA.POLAR>
0

>  <SCORE.INTRA.POLAR.0>
0

>  <SCORE.INTRA.REPUL>
0.00109507

>  <SCORE.INTRA.REPUL.0>
0

>  <SCORE.INTRA.SOLV>
8.62199

>  <SCORE.INTRA.SOLV.lig_0>
-115.677

>  <SCORE.INTRA.VDW>
4.93259

>  <SCORE.INTRA.VDW.0>
-7.4833

>  <SCORE.INTRA.norm>
-0.0240573

>  <SCORE.RESTR>
15.0868

>  <SCORE.RESTR.CAVITY>
15.0868

>  <SCORE.RESTR.norm>
0.290131

>  <SCORE.SYSTEM>
0

>  <SCORE.SYSTEM.CONST>
0

>  <SCORE.SYSTEM.DIHEDRAL>
0

>  <SCORE.SYSTEM.SOLV>
0

>  <SCORE.SYSTEM.norm>
0

>  <SCORE.heavy>
52

>  <SCORE.norm>
0.0927465

>  <RMSD>
9.880

$$$$
2be0_lig
 OpenBabel11021811423D
libRbt.so/2013.1/901 2013/11/27
 52 56  0  0  0  0  0  0  0  0999 V2000
   40.1186   -0.7186   -4.9598 C   0  0  2  0  0  0  0  0  0  0  0  0
   40.9488    0.1365   -4.2099 O   0  0  0  0  0  0  0  0  0  0  0  0
   38.1743    1.6270   -1.1356 C   0  0  2  0  0  0  0  0  0  0  0  0
   37.6843    2.1153    0.1838 N   0  0  0  0  0  0  0  0  0  0  0  0
   40.7979    4.2593   -3.4094 C   0  0  2  0  0  0  0  0  0  0  0  0
   39.9594    5.0011   -4.3189 O   0  0  0  0  0  0  0  0  0  0  0  0
   44.5808    5.4484   -5.7545 C   0  0  1  0  0  0  0  0  0  0  0  0
   41.8157   11.1051   -0.5872 C   0  0  0  0  0  0  0  0  0  0  0  0
   40.8184   -1.1581   -6.3099 C   0  0  2  0  0  0  0  0  0  0  0  0
   42.1285   -1.7452   -6.0207 N   0  0  0  0  0  0  0  0  0  0  0  0
   38.8618    0.1994   -0.9420 C   0  0  0  0  0  0  0  0  0  0  0  0
   42.2173    4.8325   -3.5479 C   0  0  2  0  0  0  0  0  0  0  0  0
   42.2137    6.0035   -2.6173 O   0  0  0  0  0  0  0  0  0  0  0  0
   45.5810    6.6750   -5.3854 C   0  0  2  0  0  0  0  0  0  0  0  0
   45.2843    7.8275   -6.2962 N   0  0  0  0  0  0  0  0  0  0  0  0
   40.8192   10.4799   -1.4062 C   0  0  0  0  0  0  0  0  0  0  0  0
   39.5845   11.1405   -1.6389 N   0  0  0  0  0  0  0  0  0  0  0  0
   40.9297    0.0989   -7.2914 C   0  0  1  0  0  0  0  0  0  0  0  0
   41.5658   -0.3140   -8.4911 O   0  0  0  0  0  0  0  0  0  0  0  0
   39.4267   -0.3663   -2.3671 C   0  0  2  0  0  0  0  0  0  0  0  0
   40.0460   -1.6517   -2.2069 N   0  0  0  0  0  0  0  0  0  0  0  0
   42.2299    5.0651   -5.0706 C   0  0  2  0  0  0  0  0  0  0  0  0
   43.2349    5.9276   -5.5831 O   0  0  0  0  0  0  0  0  0  0  0  0
   47.0440    6.1743   -5.5798 C   0  0  1  0  0  0  0  0  0  0  0  0
   47.2268    5.0627   -4.6320 O   0  0  0  0  0  0  0  0  0  0  0  0
   39.2728   12.4173   -1.0905 C   0  0  0  0  0  0  0  0  0  0  0  0
   39.4982    0.6500   -7.5547 C   0  0  2  0  0  0  0  0  0  0  0  0
   39.5373    1.8244   -8.4593 O   0  0  0  0  0  0  0  0  0  0  0  0
   40.4743    0.6556   -2.9735 C   0  0  2  0  0  0  0  0  0  0  0  0
   40.7871    5.5358   -5.3724 C   0  0  1  0  0  0  0  0  0  0  0  0
   47.2639    5.6807   -7.1141 C   0  0  2  0  0  0  0  0  0  0  0  0
   47.0824    6.7866   -8.0672 O   0  0  0  0  0  0  0  0  0  0  0  0
   40.2192   13.0843   -0.2741 C   0  0  0  0  0  0  0  0  0  0  0  0
   38.8178    1.0817   -6.1988 C   0  0  2  0  0  0  0  0  0  0  0  0
   38.8129   -0.1052   -5.3584 O   0  0  0  0  0  0  0  0  0  0  0  0
   39.7541    2.0394   -3.1329 C   0  0  2  0  0  0  0  0  0  0  0  0
   40.7713    2.8634   -3.6892 O   0  0  0  0  0  0  0  0  0  0  0  0
   40.2534    4.9719   -6.6882 C   0  0  0  0  0  0  0  0  0  0  0  0
   40.3573    3.5760   -6.8354 O   0  0  0  0  0  0  0  0  0  0  0  0
   46.2296    4.5098   -7.4488 C   0  0  1  0  0  0  0  0  0  0  0  0
   44.8261    5.0234   -7.2019 O   0  0  0  0  0  0  0  0  0  0  0  0
   41.5229   12.4365   -0.0003 C   0  0  0  0  0  0  0  0  0  0  0  0
   37.4650    1.5718   -6.5081 C   0  0  0  0  0  0  0  0  0  0  0  0
   37.5193    2.8775   -6.7995 O   0  0  0  0  0  0  0  0  0  0  0  0
   39.2460    2.5727   -1.7276 C   0  0  1  0  0  0  0  0  0  0  0  0
   38.6015    3.7936   -1.8871 O   0  0  0  0  0  0  0  0  0  0  0  0
   43.2562    7.0427   -2.4449 C   0  0  0  0  0  0  0  0  0  0  0  0
   46.4777    4.0887   -8.9228 C   0  0  0  0  0  0  0  0  0  0  0  0
   45.5687    3.0388   -9.3104 N   0  0  0  0  0  0  0  0  0  0  0  0
   42.7659    8.0000   -1.3538 C   0  0  0  0  0  0  0  0  0  0  0  0
   43.5236    9.2900   -1.4447 N   0  0  0  0  0  0  0  0  0  0  0  0
   43.2041   10.3352   -0.3421 C   0  0  0  0  0  0  0  0  0  0  0  0
  1  2  1  6  0  0  0
  1  9  1  0  0  0  0
  1 35  1  0  0  0  0
  3  4  1  1  0  0  0
  3 11  1  0  0  0  0
  3 45  1  0  0  0  0
  5  6  1  0  0  0  0
  5 12  1  0  0  0  0
  5 37  1  6  0  0  0
  6 30  1  0  0  0  0
  7 14  1  0  0  0  0
  7 41  1  0  0  0  0
  7 23  1  6  0  0  0
  8 16  2  0  0  0  0
  8 42  1  0  0  0  0
  9 10  1  1  0  0  0
  9 18  1  0  0  0  0
 11 20  1  0  0  0  0
 12 13  1  1  0  0  0
 12 22  1  0  0  0  0
 13 47  1  0  0  0  0
 14 15  1  6  0  0  0
 14 24  1  0  0  0  0
 16 17  1  0  0  0  0
 17 26  2  0  0  0  0
 18 19  1  6  0  0  0
 18 27  1  0  0  0  0
 20 21  1  1  0  0  0
 20 29  1  0  0  0  0
 22 23  1  1  0  0  0
 22 30  1  0  0  0  0
 24 25  1  1  0  0  0
 24 31  1  0  0  0  0
 26 33  1  0  0  0  0
 27 28  1  6  0  0  0
 27 34  1  0  0  0  0
 29  2  1  6  0  0  0
 29 36  1  0  0  0  0
 30 38  1  6  0  0  0
 31 32  1  6  0  0  0
 31 40  1  0  0  0  0
 33 42  2  0  0  0  0
 34 35  1  0  0  0  0
 34 43  1  6  0  0  0
 36 37  1  1  0  0  0
 36 45  1  0  0  0  0
 38 39  1  0  0  0  0
 40 41  1  0  0  0  0
 40 48  1  6  0  0  0
 43 44  1  0  0  0  0
 45 46  1  6  0  0  0
 47 50  1  0  0  0  0
 48 49  1  0  0  0  0
 50 51  1  0  0  0  0
 51 52  1  0  0  0  0
 52  8  1  0  0  0  0
M  END
>  <CHROM.1>
178.78760005,-85.88924899,-143.39901668,-172.03515454,-179.29649993,78.52538624
27.68178889,-64.30552012,-87.44660436,-149.36251174,-179.38523468,-161.37045620
-176.17353123,-77.13928467,22.84193348,41.66273349,4.34482610,-4.44407107
1.87472404,-0.65016941,-2.61978037

>  <Name>
2be0_lig

>  <RI>
2.75444e+07

>  <Rbt.Current_Directory>
/home/itssahil/PROJECTS/Mol_Feturizer/New_Systems/rnas/2be0

>  <Rbt.Executable>
rbdock ($Id: //depot/dev/client3/rdock/2013.1/src/exe/rbdock.cxx#4 $)

>  <Rbt.Library>
libRbt.so (2013.1, Build901 2013/11/27)

>  <Rbt.Parameter_File>
/export/apps/rDock/src/rDock_2013.1_src/data/scripts/dock_solv.prm

>  <Rbt.Receptor>
prm/pocket_docking_5.prm

>  <SCORE>
-12.7677

>  <SCORE.INTER>
-2.65948

>  <SCORE.INTER.CONST>
1

>  <SCORE.INTER.POLAR>
-0.891466

>  <SCORE.INTER.ROT>
15

>  <SCORE.INTER.SOLV>
14.3972

>  <SCORE.INTER.VDW>
-17.2005

>  <SCORE.INTER.norm>
-0.0511439

>  <SCORE.INTRA>
-10.1082

>  <SCORE.INTRA.DIHEDRAL>
-25.6235

>  <SCORE.INTRA.DIHEDRAL.0>
47.8724

>  <SCORE.INTRA.POLAR>
0

>  <SCORE.INTRA.POLAR.0>
0

>  <SCORE.INTRA.REPUL>
0

>  <SCORE.INTRA.REPUL.0>
0

>  <SCORE.INTRA.SOLV>
-1.42679

>  <SCORE.INTRA.SOLV.lig_0>
-115.677

>  <SCORE.INTRA.VDW>
3.41696

>  <SCORE.INTRA.VDW.0>
-7.4833

>  <SCORE.INTRA.norm>
-0.194389

>  <SCORE.RESTR>
0

>  <SCORE.RESTR.CAVITY>
0

>  <SCORE.RESTR.norm>
0

>  <SCORE.SYSTEM>
0

>  <SCORE.SYSTEM.CONST>
0

>  <SCORE.SYSTEM.DIHEDRAL>
0

>  <SCORE.SYSTEM.SOLV>
0

>  <SCORE.SYSTEM.norm>
0

>  <SCORE.heavy>
52

>  <SCORE.norm>
-0.245532

>  <RMSD>
9.884

$$$$
2be0_lig
 OpenBabel11021811423D
libRbt.so/2013.1/901 2013/11/27
 52 56  0  0  0  0  0  0  0  0999 V2000
   42.5712    4.3181   -2.2069 C   0  0  2  0  0  0  0  0  0  0  0  0
   41.9389    5.3374   -1.4694 O   0  0  0  0  0  0  0  0  0  0  0  0
   43.0218    9.4519   -0.3428 C   0  0  2  0  0  0  0  0  0  0  0  0
   43.8215   10.5864    0.1984 N   0  0  0  0  0  0  0  0  0  0  0  0
   43.7019    7.5126   -4.4173 C   0  0  2  0  0  0  0  0  0  0  0  0
   42.4578    7.6088   -5.1407 O   0  0  0  0  0  0  0  0  0  0  0  0
   43.1802    4.0986   -7.7126 C   0  0  1  0  0  0  0  0  0  0  0  0
   45.1232   11.0187  -10.0727 C   0  0  0  0  0  0  0  0  0  0  0  0
   41.5246    3.2449   -2.7155 C   0  0  2  0  0  0  0  0  0  0  0  0
   40.4561    3.9106   -3.4636 N   0  0  0  0  0  0  0  0  0  0  0  0
   42.8356    8.3521    0.7991 C   0  0  0  0  0  0  0  0  0  0  0  0
   44.6748    6.7278   -5.3117 C   0  0  2  0  0  0  0  0  0  0  0  0
   45.2547    7.7791   -6.2039 O   0  0  0  0  0  0  0  0  0  0  0  0
   42.8973    2.8557   -6.7044 C   0  0  2  0  0  0  0  0  0  0  0  0
   44.1995    2.1810   -6.3964 N   0  0  0  0  0  0  0  0  0  0  0  0
   45.7447   11.7309  -11.1503 C   0  0  0  0  0  0  0  0  0  0  0  0
   45.2471   11.5817  -12.4714 N   0  0  0  0  0  0  0  0  0  0  0  0
   40.9572    2.4162   -1.4716 C   0  0  1  0  0  0  0  0  0  0  0  0
   40.0164    1.4661   -1.9475 O   0  0  0  0  0  0  0  0  0  0  0  0
   41.9738    7.0813    0.2404 C   0  0  2  0  0  0  0  0  0  0  0  0
   41.7971    6.0853    1.2593 N   0  0  0  0  0  0  0  0  0  0  0  0
   43.6861    5.6961   -5.8869 C   0  0  2  0  0  0  0  0  0  0  0  0
   44.0951    4.9886   -7.0482 O   0  0  0  0  0  0  0  0  0  0  0  0
   41.9174    1.8753   -7.4169 C   0  0  1  0  0  0  0  0  0  0  0  0
   40.6780    2.6338   -7.6537 O   0  0  0  0  0  0  0  0  0  0  0  0
   44.1415   10.7439  -12.7934 C   0  0  0  0  0  0  0  0  0  0  0  0
   42.1522    1.7341   -0.7444 C   0  0  2  0  0  0  0  0  0  0  0  0
   41.6870    0.9506    0.4256 O   0  0  0  0  0  0  0  0  0  0  0  0
   42.7099    6.4397   -1.0070 C   0  0  2  0  0  0  0  0  0  0  0  0
   42.3863    6.5138   -6.0769 C   0  0  1  0  0  0  0  0  0  0  0  0
   42.5668    1.3585   -8.8158 C   0  0  2  0  0  0  0  0  0  0  0  0
   43.8062    0.5998   -8.5868 O   0  0  0  0  0  0  0  0  0  0  0  0
   43.4863   10.0161  -11.7697 C   0  0  0  0  0  0  0  0  0  0  0  0
   43.1833    2.8185   -0.2460 C   0  0  2  0  0  0  0  0  0  0  0  0
   43.5969    3.5516   -1.4319 O   0  0  0  0  0  0  0  0  0  0  0  0
   42.8769    7.5604   -2.0910 C   0  0  2  0  0  0  0  0  0  0  0  0
   43.5285    6.8771   -3.1549 O   0  0  0  0  0  0  0  0  0  0  0  0
   41.1354    5.7094   -5.7273 C   0  0  0  0  0  0  0  0  0  0  0  0
   39.9163    6.4026   -5.8479 O   0  0  0  0  0  0  0  0  0  0  0  0
   42.8731    2.6141   -9.7552 C   0  0  1  0  0  0  0  0  0  0  0  0
   43.7886    3.5614   -9.0076 O   0  0  0  0  0  0  0  0  0  0  0  0
   43.9680   10.1369  -10.3741 C   0  0  0  0  0  0  0  0  0  0  0  0
   44.2964    2.1151    0.4115 C   0  0  0  0  0  0  0  0  0  0  0  0
   44.9783    1.4092   -0.4992 O   0  0  0  0  0  0  0  0  0  0  0  0
   43.7432    8.7634   -1.5256 C   0  0  1  0  0  0  0  0  0  0  0  0
   43.8733    9.7520   -2.4937 O   0  0  0  0  0  0  0  0  0  0  0  0
   46.3090    7.6293   -7.2346 C   0  0  0  0  0  0  0  0  0  0  0  0
   43.4989    2.0627  -11.0651 C   0  0  0  0  0  0  0  0  0  0  0  0
   43.9158    3.1441  -11.9227 N   0  0  0  0  0  0  0  0  0  0  0  0
   46.0181    8.6568   -8.3332 C   0  0  0  0  0  0  0  0  0  0  0  0
   45.5544    9.9377   -7.7079 N   0  0  0  0  0  0  0  0  0  0  0  0
   45.7064   11.2077   -8.5879 C   0  0  0  0  0  0  0  0  0  0  0  0
  1  2  1  1  0  0  0
  1  9  1  0  0  0  0
  1 35  1  0  0  0  0
  3  4  1  1  0  0  0
  3 11  1  0  0  0  0
  3 45  1  0  0  0  0
  5  6  1  0  0  0  0
  5 12  1  0  0  0  0
  5 37  1  1  0  0  0
  6 30  1  0  0  0  0
  7 14  1  0  0  0  0
  7 41  1  0  0  0  0
  7 23  1  1  0  0  0
  8 16  2  0  0  0  0
  8 42  1  0  0  0  0
  9 10  1  1  0  0  0
  9 18  1  0  0  0  0
 11 20  1  0  0  0  0
 12 13  1  6  0  0  0
 12 22  1  0  0  0  0
 13 47  1  0  0  0  0
 14 15  1  6  0  0  0
 14 24  1  0  0  0  0
 16 17  1  0  0  0  0
 17 26  2  0  0  0  0
 18 19  1  6  0  0  0
 18 27  1  0  0  0  0
 20 21  1  1  0  0  0
 20 29  1  0  0  0  0
 22 23  1  6  0  0  0
 22 30  1  0  0  0  0
 24 25  1  6  0  0  0
 24 31  1  0  0  0  0
 26 33  1  0  0  0  0
 27 28  1  1  0  0  0
 27 34  1  0  0  0  0
 29  2  1  6  0  0  0
 29 36  1  0  0  0  0
 30 38  1  1  0  0  0
 31 32  1  1  0  0  0
 31 40  1  0  0  0  0
 33 42  2  0  0  0  0
 34 35  1  0  0  0  0
 34 43  1  6  0  0  0
 36 37  1  6  0  0  0
 36 45  1  0  0  0  0
 38 39  1  0  0  0  0
 40 41  1  0  0  0  0
 40 48  1  6  0  0  0
 43 44  1  0  0  0  0
 45 46  1  6  0  0  0
 47 50  1  0  0  0  0
 48 49  1  0  0  0  0
 50 51  1  0  0  0  0
 51 52  1  0  0  0  0
 52  8  1  0  0  0  0
M  END
>  <CHROM.1>
-175.82617861,-72.71293413,-66.74996771,176.60645642,148.91711204,-174.37025913
-156.52882485,62.33346014,67.26417146,171.50542679,-174.89674826,39.50690586
158.76398938,49.08167200,-148.31810522,43.24452810,5.75606427,-5.15631658
2.51899644,1.32549055,1.08102399

>  <Name>
2be0_lig

>  <RI>
0

>  <Rbt.Current_Directory>
/home/itssahil/PROJECTS/Mol_Feturizer/New_Systems/rnas/2be0

>  <Rbt.Executable>
rbdock ($Id: //depot/dev/client3/rdock/2013.1/src/exe/rbdock.cxx#4 $)

>  <Rbt.Library>
libRbt.so (2013.1, Build901 2013/11/27)

>  <Rbt.Parameter_File>
/export/apps/rDock/src/rDock_2013.1_src/data/scripts/dock_solv.prm

>  <Rbt.Receptor>
prm/pocket_docking_6.prm

>  <SCORE>
-43.0393

>  <SCORE.INTER>
-25.5985

>  <SCORE.INTER.CONST>
1

>  <SCORE.INTER.POLAR>
-2.54506

>  <SCORE.INTER.ROT>
15

>  <SCORE.INTER.SOLV>
17.4473

>  <SCORE.INTER.VDW>
-27.9979

>  <SCORE.INTER.norm>
-0.492278

>  <SCORE.INTRA>
-17.4408

>  <SCORE.INTRA.DIHEDRAL>
-36.6696

>  <SCORE.INTRA.DIHEDRAL.0>
47.8724

>  <SCORE.INTRA.POLAR>
0

>  <SCORE.INTRA.POLAR.0>
0

>  <SCORE.INTRA.REPUL>
0.0506635

>  <SCORE.INTRA.REPUL.0>
0

>  <SCORE.INTRA.SOLV>
-1.15418

>  <SCORE.INTRA.SOLV.lig_0>
-115.677

>  <SCORE.INTRA.VDW>
1.21771

>  <SCORE.INTRA.VDW.0>
-7.4833

>  <SCORE.INTRA.norm>
-0.335401

>  <SCORE.RESTR>
0

>  <SCORE.RESTR.CAVITY>
0

>  <SCORE.RESTR.norm>
0

>  <SCORE.SYSTEM>
0

>  <SCORE.SYSTEM.CONST>
0

>  <SCORE.SYSTEM.DIHEDRAL>
0

>  <SCORE.SYSTEM.SOLV>
0

>  <SCORE.SYSTEM.norm>
0

>  <SCORE.heavy>
52

>  <SCORE.norm>
-0.827679

>  <RMSD>
9.884

$$$$
2be0_lig
 OpenBabel11021811423D
libRbt.so/2013.1/901 2013/11/27
 52 56  0  0  0  0  0  0  0  0999 V2000
   40.7689    4.1858    0.0411 C   0  0  2  0  0  0  0  0  0  0  0  0
   39.8815    5.1353   -0.5009 O   0  0  0  0  0  0  0  0  0  0  0  0
   39.8974    9.3933   -1.6145 C   0  0  2  0  0  0  0  0  0  0  0  0
   40.2974   10.8282   -1.6393 N   0  0  0  0  0  0  0  0  0  0  0  0
   41.6115    5.3808   -3.6635 C   0  0  2  0  0  0  0  0  0  0  0  0
   42.2030    4.0688   -3.5683 O   0  0  0  0  0  0  0  0  0  0  0  0
   46.1533    5.4321   -5.2011 C   0  0  1  0  0  0  0  0  0  0  0  0
   43.9767    9.0728  -10.5321 C   0  0  0  0  0  0  0  0  0  0  0  0
   40.7875    4.2557    1.6224 C   0  0  2  0  0  0  0  0  0  0  0  0
   39.4243    4.1224    2.1404 N   0  0  0  0  0  0  0  0  0  0  0  0
   39.5322    8.9784   -0.1170 C   0  0  0  0  0  0  0  0  0  0  0  0
   42.3819    6.1356   -4.7586 C   0  0  2  0  0  0  0  0  0  0  0  0
   41.6968    5.7161   -6.0204 O   0  0  0  0  0  0  0  0  0  0  0  0
   47.0747    6.2738   -6.2421 C   0  0  2  0  0  0  0  0  0  0  0  0
   46.6655    5.9207   -7.6398 N   0  0  0  0  0  0  0  0  0  0  0  0
   43.4064    9.6686  -11.7046 C   0  0  0  0  0  0  0  0  0  0  0  0
   44.1544   10.6223  -12.4436 N   0  0  0  0  0  0  0  0  0  0  0  0
   41.4751    5.6206    2.0919 C   0  0  1  0  0  0  0  0  0  0  0  0
   41.4749    5.6670    3.5103 O   0  0  0  0  0  0  0  0  0  0  0  0
   39.1007    7.4041   -0.0440 C   0  0  2  0  0  0  0  0  0  0  0  0
   38.7673    7.0186    1.2982 N   0  0  0  0  0  0  0  0  0  0  0  0
   43.7993    5.6181   -4.4488 C   0  0  2  0  0  0  0  0  0  0  0  0
   44.7829    5.7876   -5.4589 O   0  0  0  0  0  0  0  0  0  0  0  0
   48.5625    5.8884   -5.9835 C   0  0  1  0  0  0  0  0  0  0  0  0
   48.8564    6.2922   -4.5986 O   0  0  0  0  0  0  0  0  0  0  0  0
   45.4683   11.0306  -12.0760 C   0  0  0  0  0  0  0  0  0  0  0  0
   42.9178    5.6739    1.5106 C   0  0  2  0  0  0  0  0  0  0  0  0
   43.6075    6.9242    1.9104 O   0  0  0  0  0  0  0  0  0  0  0  0
   40.2847    6.4972   -0.5780 C   0  0  2  0  0  0  0  0  0  0  0  0
   43.5615    4.1429   -4.0474 C   0  0  1  0  0  0  0  0  0  0  0  0
   48.7653    4.2870   -6.1845 C   0  0  2  0  0  0  0  0  0  0  0  0
   48.4729    3.8759   -7.5665 O   0  0  0  0  0  0  0  0  0  0  0  0
   46.0841   10.4753  -10.9274 C   0  0  0  0  0  0  0  0  0  0  0  0
   42.8784    5.6025   -0.0645 C   0  0  2  0  0  0  0  0  0  0  0  0
   42.1907    4.3636   -0.3915 O   0  0  0  0  0  0  0  0  0  0  0  0
   40.6104    6.9514   -2.0432 C   0  0  2  0  0  0  0  0  0  0  0  0
   41.6637    6.0728   -2.4202 O   0  0  0  0  0  0  0  0  0  0  0  0
   44.4644    3.6988   -2.8977 C   0  0  0  0  0  0  0  0  0  0  0  0
   45.6426    3.0286   -3.2770 O   0  0  0  0  0  0  0  0  0  0  0  0
   47.8070    3.4996   -5.1773 C   0  0  1  0  0  0  0  0  0  0  0  0
   46.3794    3.9382   -5.4306 O   0  0  0  0  0  0  0  0  0  0  0  0
   45.3447    9.4763  -10.1214 C   0  0  0  0  0  0  0  0  0  0  0  0
   44.2663    5.6350   -0.5532 C   0  0  0  0  0  0  0  0  0  0  0  0
   44.5712    6.8774   -0.9486 O   0  0  0  0  0  0  0  0  0  0  0  0
   41.0545    8.4743   -2.0729 C   0  0  1  0  0  0  0  0  0  0  0  0
   41.3294    8.8641   -3.3783 O   0  0  0  0  0  0  0  0  0  0  0  0
   41.8349    6.2966   -7.3769 C   0  0  0  0  0  0  0  0  0  0  0  0
   48.0349    1.9830   -5.4214 C   0  0  0  0  0  0  0  0  0  0  0  0
   47.5475    1.5998   -6.7231 N   0  0  0  0  0  0  0  0  0  0  0  0
   43.3334    6.4690   -7.6457 C   0  0  0  0  0  0  0  0  0  0  0  0
   43.5801    7.8193   -8.2478 N   0  0  0  0  0  0  0  0  0  0  0  0
   43.1081    7.9957   -9.7162 C   0  0  0  0  0  0  0  0  0  0  0  0
  1  2  1  6  0  0  0
  1  9  1  0  0  0  0
  1 35  1  0  0  0  0
  3  4  1  1  0  0  0
  3 11  1  0  0  0  0
  3 45  1  0  0  0  0
  5  6  1  0  0  0  0
  5 12  1  0  0  0  0
  5 37  1  1  0  0  0
  6 30  1  0  0  0  0
  7 14  1  0  0  0  0
  7 41  1  0  0  0  0
  7 23  1  6  0  0  0
  8 16  2  0  0  0  0
  8 42  1  0  0  0  0
  9 10  1  6  0  0  0
  9 18  1  0  0  0  0
 11 20  1  0  0  0  0
 12 13  1  6  0  0  0
 12 22  1  0  0  0  0
 13 47  1  0  0  0  0
 14 15  1  6  0  0  0
 14 24  1  0  0  0  0
 16 17  1  0  0  0  0
 17 26  2  0  0  0  0
 18 19  1  1  0  0  0
 18 27  1  0  0  0  0
 20 21  1  1  0  0  0
 20 29  1  0  0  0  0
 22 23  1  6  0  0  0
 22 30  1  0  0  0  0
 24 25  1  1  0  0  0
 24 31  1  0  0  0  0
 26 33  1  0  0  0  0
 27 28  1  6  0  0  0
 27 34  1  0  0  0  0
 29  2  1  6  0  0  0
 29 36  1  0  0  0  0
 30 38  1  1  0  0  0
 31 32  1  6  0  0  0
 31 40  1  0  0  0  0
 33 42  2  0  0  0  0
 34 35  1  0  0  0  0
 34 43  1  1  0  0  0
 36 37  1  1  0  0  0
 36 45  1  0  0  0  0
 38 39  1  0  0  0  0
 40 41  1  0  0  0  0
 40 48  1  6  0  0  0
 43 44  1  0  0  0  0
 45 46  1  6  0  0  0
 47 50  1  0  0  0  0
 48 49  1  0  0  0  0
 50 51  1  0  0  0  0
 51 52  1  0  0  0  0
 52  8  1  0  0  0  0
M  END
>  <CHROM.1>
78.07467694,-145.54906343,-157.17608905,167.97603622,46.63390635,174.78670100
-133.73711653,147.46124073,-99.29770163,131.26822393,-67.74091956,-135.04671236
-72.01611734,-151.29541745,-159.01951044,43.50100067,6.22220521,-3.92151050
-2.16245841,0.65039733,-1.05327136

>  <Name>
2be0_lig

>  <RI>
0

>  <Rbt.Current_Directory>
/home/itssahil/PROJECTS/Mol_Feturizer/New_Systems/rnas/2be0

>  <Rbt.Executable>
rbdock ($Id: //depot/dev/client3/rdock/2013.1/src/exe/rbdock.cxx#4 $)

>  <Rbt.Library>
libRbt.so (2013.1, Build901 2013/11/27)

>  <Rbt.Parameter_File>
/export/apps/rDock/src/rDock_2013.1_src/data/scripts/dock_solv.prm

>  <Rbt.Receptor>
prm/pocket_docking_2.prm

>  <SCORE>
-0.715217

>  <SCORE.INTER>
-8.50794

>  <SCORE.INTER.CONST>
1

>  <SCORE.INTER.POLAR>
-0.894427

>  <SCORE.INTER.ROT>
15

>  <SCORE.INTER.SOLV>
20.2378

>  <SCORE.INTER.VDW>
-23.0365

>  <SCORE.INTER.norm>
-0.163614

>  <SCORE.INTRA>
-0.429242

>  <SCORE.INTRA.DIHEDRAL>
-11.6055

>  <SCORE.INTRA.DIHEDRAL.0>
47.8724

>  <SCORE.INTRA.POLAR>
0

>  <SCORE.INTRA.POLAR.0>
0

>  <SCORE.INTRA.REPUL>
0

>  <SCORE.INTRA.REPUL.0>
0

>  <SCORE.INTRA.SOLV>
6.23467

>  <SCORE.INTRA.SOLV.lig_0>
-115.677

>  <SCORE.INTRA.VDW>
2.25615

>  <SCORE.INTRA.VDW.0>
-7.4833

>  <SCORE.INTRA.norm>
-0.00825465

>  <SCORE.RESTR>
8.22197

>  <SCORE.RESTR.CAVITY>
8.22197

>  <SCORE.RESTR.norm>
0.158115

>  <SCORE.SYSTEM>
0

>  <SCORE.SYSTEM.CONST>
0

>  <SCORE.SYSTEM.DIHEDRAL>
0

>  <SCORE.SYSTEM.SOLV>
0

>  <SCORE.SYSTEM.norm>
0

>  <SCORE.heavy>
52

>  <SCORE.norm>
-0.0137542

>  <RMSD>
9.887

$$$$
2be0_lig
 OpenBabel11021811423D
libRbt.so/2013.1/901 2013/11/27
 52 56  0  0  0  0  0  0  0  0999 V2000
   42.8242    4.5877   -0.3811 C   0  0  2  0  0  0  0  0  0  0  0  0
   44.0119    5.2344   -0.7736 O   0  0  0  0  0  0  0  0  0  0  0  0
   42.6806    9.4246   -0.9755 C   0  0  2  0  0  0  0  0  0  0  0  0
   42.7380   10.9120   -0.9139 N   0  0  0  0  0  0  0  0  0  0  0  0
   44.2098    6.9309   -4.4706 C   0  0  2  0  0  0  0  0  0  0  0  0
   43.7250    5.7321   -5.1097 O   0  0  0  0  0  0  0  0  0  0  0  0
   48.4984    5.8155   -5.9957 C   0  0  1  0  0  0  0  0  0  0  0  0
   44.3051   10.2008  -11.7634 C   0  0  0  0  0  0  0  0  0  0  0  0
   42.9784    3.0138   -0.4512 C   0  0  2  0  0  0  0  0  0  0  0  0
   44.1416    2.5945    0.3335 N   0  0  0  0  0  0  0  0  0  0  0  0
   43.1640    8.8245    0.4225 C   0  0  0  0  0  0  0  0  0  0  0  0
   45.5010    7.3315   -5.2019 C   0  0  2  0  0  0  0  0  0  0  0  0
   45.0094    8.1305   -6.3669 O   0  0  0  0  0  0  0  0  0  0  0  0
   49.3992    5.8291   -7.3484 C   0  0  2  0  0  0  0  0  0  0  0  0
   49.0682    4.6124   -8.1581 N   0  0  0  0  0  0  0  0  0  0  0  0
   43.8593   10.7830  -12.9951 C   0  0  0  0  0  0  0  0  0  0  0  0
   44.7654   11.5391  -13.7840 N   0  0  0  0  0  0  0  0  0  0  0  0
   43.0885    2.5520   -1.9778 C   0  0  1  0  0  0  0  0  0  0  0  0
   43.2335    1.1409   -2.0181 O   0  0  0  0  0  0  0  0  0  0  0  0
   43.1293    7.1912    0.3916 C   0  0  2  0  0  0  0  0  0  0  0  0
   43.5601    6.6387    1.6448 N   0  0  0  0  0  0  0  0  0  0  0  0
   46.0879    5.9259   -5.4309 C   0  0  2  0  0  0  0  0  0  0  0  0
   47.1178    5.8072   -6.4013 O   0  0  0  0  0  0  0  0  0  0  0  0
   50.8989    5.8245   -6.9243 C   0  0  1  0  0  0  0  0  0  0  0  0
   51.1119    7.0619   -6.1557 O   0  0  0  0  0  0  0  0  0  0  0  0
   46.1222   11.7581  -13.4110 C   0  0  0  0  0  0  0  0  0  0  0  0
   41.8118    3.0252   -2.7316 C   0  0  2  0  0  0  0  0  0  0  0  0
   41.8581    2.6277   -4.1596 O   0  0  0  0  0  0  0  0  0  0  0  0
   44.0609    6.6559   -0.7725 C   0  0  2  0  0  0  0  0  0  0  0  0
   44.8401    5.0622   -5.7329 C   0  0  1  0  0  0  0  0  0  0  0  0
   51.2177    4.5094   -6.0215 C   0  0  2  0  0  0  0  0  0  0  0  0
   51.0066    3.2686   -6.7833 O   0  0  0  0  0  0  0  0  0  0  0  0
   46.6200   11.2064  -12.2049 C   0  0  0  0  0  0  0  0  0  0  0  0
   41.6755    4.5943   -2.6503 C   0  0  2  0  0  0  0  0  0  0  0  0
   41.6393    4.9195   -1.2333 O   0  0  0  0  0  0  0  0  0  0  0  0
   43.5516    7.2815   -2.1173 C   0  0  2  0  0  0  0  0  0  0  0  0
   44.4410    6.7291   -3.0802 O   0  0  0  0  0  0  0  0  0  0  0  0
   44.9295    3.6706   -5.1088 C   0  0  0  0  0  0  0  0  0  0  0  0
   44.0742    2.7011   -5.6654 O   0  0  0  0  0  0  0  0  0  0  0  0
   50.2778    4.5114   -4.7295 C   0  0  1  0  0  0  0  0  0  0  0  0
   48.8342    4.5638   -5.1857 O   0  0  0  0  0  0  0  0  0  0  0  0
   45.7139   10.4097  -11.3454 C   0  0  0  0  0  0  0  0  0  0  0  0
   40.4442    4.9784   -3.3591 C   0  0  0  0  0  0  0  0  0  0  0  0
   40.3480    6.3133   -3.3953 O   0  0  0  0  0  0  0  0  0  0  0  0
   43.6276    8.8654   -2.0636 C   0  0  1  0  0  0  0  0  0  0  0  0
   43.1636    9.4045   -3.2576 O   0  0  0  0  0  0  0  0  0  0  0  0
   44.3079    7.6487   -7.5803 C   0  0  0  0  0  0  0  0  0  0  0  0
   50.6175    3.2333   -3.9155 C   0  0  0  0  0  0  0  0  0  0  0  0
   50.1201    2.0577   -4.5860 N   0  0  0  0  0  0  0  0  0  0  0  0
   44.1764    8.8423   -8.5318 C   0  0  0  0  0  0  0  0  0  0  0  0
   43.9450    8.3451   -9.9267 N   0  0  0  0  0  0  0  0  0  0  0  0
   43.2587    9.3490  -10.8918 C   0  0  0  0  0  0  0  0  0  0  0  0
  1  2  1  6  0  0  0
  1  9  1  0  0  0  0
  1 35  1  0  0  0  0
  3  4  1  1  0  0  0
  3 11  1  0  0  0  0
  3 45  1  0  0  0  0
  5  6  1  0  0  0  0
  5 12  1  0  0  0  0
  5 37  1  1  0  0  0
  6 30  1  0  0  0  0
  7 14  1  0  0  0  0
  7 41  1  0  0  0  0
  7 23  1  6  0  0  0
  8 16  2  0  0  0  0
  8 42  1  0  0  0  0
  9 10  1  1  0  0  0
  9 18  1  0  0  0  0
 11 20  1  0  0  0  0
 12 13  1  6  0  0  0
 12 22  1  0  0  0  0
 13 47  1  0  0  0  0
 14 15  1  6  0  0  0
 14 24  1  0  0  0  0
 16 17  1  0  0  0  0
 17 26  2  0  0  0  0
 18 19  1  1  0  0  0
 18 27  1  0  0  0  0
 20 21  1  1  0  0  0
 20 29  1  0  0  0  0
 22 23  1  6  0  0  0
 22 30  1  0  0  0  0
 24 25  1  1  0  0  0
 24 31  1  0  0  0  0
 26 33  1  0  0  0  0
 27 28  1  6  0  0  0
 27 34  1  0  0  0  0
 29  2  1  6  0  0  0
 29 36  1  0  0  0  0
 30 38  1  1  0  0  0
 31 32  1  6  0  0  0
 31 40  1  0  0  0  0
 33 42  2  0  0  0  0
 34 35  1  0  0  0  0
 34 43  1  6  0  0  0
 36 37  1  6  0  0  0
 36 45  1  0  0  0  0
 38 39  1  0  0  0  0
 40 41  1  0  0  0  0
 40 48  1  6  0  0  0
 43 44  1  0  0  0  0
 45 46  1  6  0  0  0
 47 50  1  0  0  0  0
 48 49  1  0  0  0  0
 50 51  1  0  0  0  0
 51 52  1  0  0  0  0
 52  8  1  0  0  0  0
M  END
>  <CHROM.1>
-179.94846272,-106.37282286,-173.85904065,-71.85849516,-173.37368673,96.71481051
32.14588292,83.04481493,-175.46114311,172.41048249,-71.92091765,159.62063335
157.20229733,94.07890840,157.56949249,45.10112083,6.28790172,-4.97640475
1.93374410,-0.51244039,2.16551647

>  <Name>
2be0_lig

>  <RI>
0

>  <Rbt.Current_Directory>
/home/itssahil/PROJECTS/Mol_Feturizer/New_Systems/rnas/2be0

>  <Rbt.Executable>
rbdock ($Id: //depot/dev/client3/rdock/2013.1/src/exe/rbdock.cxx#4 $)

>  <Rbt.Library>
libRbt.so (2013.1, Build901 2013/11/27)

>  <Rbt.Parameter_File>
/export/apps/rDock/src/rDock_2013.1_src/data/scripts/dock_solv.prm

>  <Rbt.Receptor>
prm/pocket_docking_6.prm

>  <SCORE>
-42.0434

>  <SCORE.INTER>
-29.8224

>  <SCORE.INTER.CONST>
1

>  <SCORE.INTER.POLAR>
-2.45176

>  <SCORE.INTER.ROT>
15

>  <SCORE.INTER.SOLV>
24.9277

>  <SCORE.INTER.VDW>
-33.6183

>  <SCORE.INTER.norm>
-0.573507

>  <SCORE.INTRA>
-12.2211

>  <SCORE.INTRA.DIHEDRAL>
-26.2408

>  <SCORE.INTRA.DIHEDRAL.0>
47.8724

>  <SCORE.INTRA.POLAR>
0

>  <SCORE.INTRA.POLAR.0>
0

>  <SCORE.INTRA.REPUL>
0

>  <SCORE.INTRA.REPUL.0>
0

>  <SCORE.INTRA.SOLV>
-0.640893

>  <SCORE.INTRA.SOLV.lig_0>
-115.677

>  <SCORE.INTRA.VDW>
1.21979

>  <SCORE.INTRA.VDW.0>
-7.4833

>  <SCORE.INTRA.norm>
-0.23502

>  <SCORE.RESTR>
0

>  <SCORE.RESTR.CAVITY>
0

>  <SCORE.RESTR.norm>
0

>  <SCORE.SYSTEM>
0

>  <SCORE.SYSTEM.CONST>
0

>  <SCORE.SYSTEM.DIHEDRAL>
0

>  <SCORE.SYSTEM.SOLV>
0

>  <SCORE.SYSTEM.norm>
0

>  <SCORE.heavy>
52

>  <SCORE.norm>
-0.808528

>  <RMSD>
9.887

$$$$
2be0_lig
 OpenBabel11021811423D
libRbt.so/2013.1/901 2013/11/27
 52 56  0  0  0  0  0  0  0  0999 V2000
   42.4395    9.2083   -3.2882 C   0  0  2  0  0  0  0  0  0  0  0  0
   43.4192    8.2758   -3.6800 O   0  0  0  0  0  0  0  0  0  0  0  0
   43.8996    3.9152   -4.0332 C   0  0  2  0  0  0  0  0  0  0  0  0
   43.5944    2.4625   -3.9072 N   0  0  0  0  0  0  0  0  0  0  0  0
   42.5841    7.6148   -6.9437 C   0  0  2  0  0  0  0  0  0  0  0  0
   41.9689    7.0630   -8.1258 O   0  0  0  0  0  0  0  0  0  0  0  0
   46.6629    6.1202   -7.9742 C   0  0  1  0  0  0  0  0  0  0  0  0
   48.4015   11.9836  -10.0061 C   0  0  0  0  0  0  0  0  0  0  0  0
   42.7577    9.8072   -1.8579 C   0  0  2  0  0  0  0  0  0  0  0  0
   44.1121   10.3638   -1.8439 N   0  0  0  0  0  0  0  0  0  0  0  0
   43.8690    4.5834   -2.5838 C   0  0  0  0  0  0  0  0  0  0  0  0
   44.1036    7.5614   -7.1691 C   0  0  2  0  0  0  0  0  0  0  0  0
   44.3891    8.8194   -7.9262 O   0  0  0  0  0  0  0  0  0  0  0  0
   47.7095    5.0945   -8.6771 C   0  0  2  0  0  0  0  0  0  0  0  0
   47.2122    3.6940   -8.4845 N   0  0  0  0  0  0  0  0  0  0  0  0
   47.5849   12.9324  -10.7044 C   0  0  0  0  0  0  0  0  0  0  0  0
   48.0047   13.4268  -11.9671 N   0  0  0  0  0  0  0  0  0  0  0  0
   42.5648    8.6748   -0.7460 C   0  0  1  0  0  0  0  0  0  0  0  0
   42.8618    9.2293    0.5261 O   0  0  0  0  0  0  0  0  0  0  0  0
   44.1857    6.1835   -2.6799 C   0  0  2  0  0  0  0  0  0  0  0  0
   44.1633    6.7963   -1.3817 N   0  0  0  0  0  0  0  0  0  0  0  0
   44.1876    6.2007   -7.8863 C   0  0  2  0  0  0  0  0  0  0  0  0
   45.3828    5.9206   -8.6002 O   0  0  0  0  0  0  0  0  0  0  0  0
   49.0991    5.2900   -7.9991 C   0  0  1  0  0  0  0  0  0  0  0  0
   49.4929    6.6835   -8.2642 O   0  0  0  0  0  0  0  0  0  0  0  0
   49.2199   13.0254  -12.5919 C   0  0  0  0  0  0  0  0  0  0  0  0
   41.1015    8.1501   -0.8221 C   0  0  2  0  0  0  0  0  0  0  0  0
   40.8623    7.0903    0.1871 O   0  0  0  0  0  0  0  0  0  0  0  0
   43.1196    6.8867   -3.6172 C   0  0  2  0  0  0  0  0  0  0  0  0
   42.9139    6.1801   -8.7645 C   0  0  1  0  0  0  0  0  0  0  0  0
   48.9837    5.0055   -6.4017 C   0  0  2  0  0  0  0  0  0  0  0  0
   48.5901    3.6144   -6.1290 O   0  0  0  0  0  0  0  0  0  0  0  0
   50.0675   12.0894  -11.9498 C   0  0  0  0  0  0  0  0  0  0  0  0
   40.8038    7.5584   -2.2534 C   0  0  2  0  0  0  0  0  0  0  0  0
   41.0588    8.6383   -3.1934 O   0  0  0  0  0  0  0  0  0  0  0  0
   43.1828    6.1884   -5.0198 C   0  0  2  0  0  0  0  0  0  0  0  0
   42.2069    6.8996   -5.7717 O   0  0  0  0  0  0  0  0  0  0  0  0
   42.2658    4.7976   -8.8191 C   0  0  0  0  0  0  0  0  0  0  0  0
   40.9619    4.7604   -9.3478 O   0  0  0  0  0  0  0  0  0  0  0  0
   47.9109    6.0012   -5.7609 C   0  0  1  0  0  0  0  0  0  0  0  0
   46.5906    5.8118   -6.4791 O   0  0  0  0  0  0  0  0  0  0  0  0
   49.6746   11.5439  -10.6298 C   0  0  0  0  0  0  0  0  0  0  0  0
   39.4053    7.1001   -2.2710 C   0  0  0  0  0  0  0  0  0  0  0  0
   39.2613    6.0740   -1.4230 O   0  0  0  0  0  0  0  0  0  0  0  0
   42.8408    4.6443   -4.8938 C   0  0  1  0  0  0  0  0  0  0  0  0
   42.9111    4.0382   -6.1425 O   0  0  0  0  0  0  0  0  0  0  0  0
   45.6924    9.3107   -8.4325 C   0  0  0  0  0  0  0  0  0  0  0  0
   47.8356    5.6770   -4.2441 C   0  0  0  0  0  0  0  0  0  0  0  0
   46.6304    6.2199   -3.6684 N   0  0  0  0  0  0  0  0  0  0  0  0
   45.4583   10.7147   -8.9993 C   0  0  0  0  0  0  0  0  0  0  0  0
   46.3877   11.6833   -8.3325 N   0  0  0  0  0  0  0  0  0  0  0  0
   47.9010   11.4401   -8.5798 C   0  0  0  0  0  0  0  0  0  0  0  0
  1  2  1  1  0  0  0
  1  9  1  0  0  0  0
  1 35  1  0  0  0  0
  3  4  1  1  0  0  0
  3 11  1  0  0  0  0
  3 45  1  0  0  0  0
  5  6  1  0  0  0  0
  5 12  1  0  0  0  0
  5 37  1  1  0  0  0
  6 30  1  0  0  0  0
  7 14  1  0  0  0  0
  7 41  1  0  0  0  0
  7 23  1  6  0  0  0
  8 16  2  0  0  0  0
  8 42  1  0  0  0  0
  9 10  1  6  0  0  0
  9 18  1  0  0  0  0
 11 20  1  0  0  0  0
 12 13  1  6  0  0  0
 12 22  1  0  0  0  0
 13 47  1  0  0  0  0
 14 15  1  1  0  0  0
 14 24  1  0  0  0  0
 16 17  1  0  0  0  0
 17 26  2  0  0  0  0
 18 19  1  1  0  0  0
 18 27  1  0  0  0  0
 20 21  1  1  0  0  0
 20 29  1  0  0  0  0
 22 23  1  6  0  0  0
 22 30  1  0  0  0  0
 24 25  1  1  0  0  0
 24 31  1  0  0  0  0
 26 33  1  0  0  0  0
 27 28  1  1  0  0  0
 27 34  1  0  0  0  0
 29  2  1  6  0  0  0
 29 36  1  0  0  0  0
 30 38  1  1  0  0  0
 31 32  1  6  0  0  0
 31 40  1  0  0  0  0
 33 42  2  0  0  0  0
 34 35  1  0  0  0  0
 34 43  1  1  0  0  0
 36 37  1  6  0  0  0
 36 45  1  0  0  0  0
 38 39  1  0  0  0  0
 40 41  1  0  0  0  0
 40 48  1  1  0  0  0
 43 44  1  0  0  0  0
 45 46  1  6  0  0  0
 47 50  1  0  0  0  0
 48 49  1  0  0  0  0
 50 51  1  0  0  0  0
 51 52  1  0  0  0  0
 52  8  1  0  0  0  0
M  END
>  <CHROM.1>
103.88364635,115.72094952,152.84786796,-179.57044394,-173.90221495,49.04357697
-122.31656163,50.43249803,-65.69618537,119.22635635,-162.35823215,124.41727188
63.64613146,79.39424159,17.70470751,44.71219226,7.43212213,-5.92893316,2.76042244
-0.88356104,3.05705083

>  <Name>
2be0_lig

>  <RI>
224

>  <Rbt.Current_Directory>
/home/itssahil/PROJECTS/Mol_Feturizer/New_Systems/rnas/2be0

>  <Rbt.Executable>
rbdock ($Id: //depot/dev/client3/rdock/2013.1/src/exe/rbdock.cxx#4 $)

>  <Rbt.Library>
libRbt.so (2013.1, Build901 2013/11/27)

>  <Rbt.Parameter_File>
/export/apps/rDock/src/rDock_2013.1_src/data/scripts/dock_solv.prm

>  <Rbt.Receptor>
prm/blind_docking_100.prm

>  <SCORE>
24.8741

>  <SCORE.INTER>
2.75218

>  <SCORE.INTER.CONST>
1

>  <SCORE.INTER.POLAR>
-0.854911

>  <SCORE.INTER.ROT>
15

>  <SCORE.INTER.SOLV>
25.9413

>  <SCORE.INTER.VDW>
-17.5626

>  <SCORE.INTER.norm>
0.0529265

>  <SCORE.INTRA>
6.34543

>  <SCORE.INTRA.DIHEDRAL>
-8.16186

>  <SCORE.INTRA.DIHEDRAL.0>
47.8724

>  <SCORE.INTRA.POLAR>
0

>  <SCORE.INTRA.POLAR.0>
0

>  <SCORE.INTRA.REPUL>
0.134899

>  <SCORE.INTRA.REPUL.0>
0

>  <SCORE.INTRA.SOLV>
7.94897

>  <SCORE.INTRA.SOLV.lig_0>
-115.677

>  <SCORE.INTRA.VDW>
5.77738

>  <SCORE.INTRA.VDW.0>
-7.4833

>  <SCORE.INTRA.norm>
0.122028

>  <SCORE.RESTR>
15.7765

>  <SCORE.RESTR.CAVITY>
15.7765

>  <SCORE.RESTR.norm>
0.303394

>  <SCORE.SYSTEM>
0

>  <SCORE.SYSTEM.CONST>
0

>  <SCORE.SYSTEM.DIHEDRAL>
0

>  <SCORE.SYSTEM.SOLV>
0

>  <SCORE.SYSTEM.norm>
0

>  <SCORE.heavy>
52

>  <SCORE.norm>
0.478348

>  <RMSD>
9.907

$$$$
2be0_lig
 OpenBabel11021811423D
libRbt.so/2013.1/901 2013/11/27
 52 56  0  0  0  0  0  0  0  0999 V2000
   42.9756    1.5458   -4.9536 C   0  0  2  0  0  0  0  0  0  0  0  0
   41.7972    1.6369   -5.7191 O   0  0  0  0  0  0  0  0  0  0  0  0
   40.8187    5.8742   -5.0417 C   0  0  2  0  0  0  0  0  0  0  0  0
   40.0983    7.1742   -5.1446 N   0  0  0  0  0  0  0  0  0  0  0  0
   38.5858    2.1176   -4.3676 C   0  0  2  0  0  0  0  0  0  0  0  0
   37.7175    1.4747   -3.4121 O   0  0  0  0  0  0  0  0  0  0  0  0
   38.3874   -2.6164   -5.0672 C   0  0  1  0  0  0  0  0  0  0  0  0
   36.2633    0.9906  -11.4206 C   0  0  0  0  0  0  0  0  0  0  0  0
   43.7162    0.1693   -5.2030 C   0  0  2  0  0  0  0  0  0  0  0  0
   43.9524   -0.0137   -6.6366 N   0  0  0  0  0  0  0  0  0  0  0  0
   41.2412    5.3936   -6.5042 C   0  0  0  0  0  0  0  0  0  0  0  0
   38.6435    1.2014   -5.6004 C   0  0  2  0  0  0  0  0  0  0  0  0
   37.4419    1.6066   -6.3936 O   0  0  0  0  0  0  0  0  0  0  0  0
   39.9487   -2.9818   -4.8019 C   0  0  2  0  0  0  0  0  0  0  0  0
   40.6795   -2.9455   -6.1097 N   0  0  0  0  0  0  0  0  0  0  0  0
   36.0390    0.6643  -12.7983 C   0  0  0  0  0  0  0  0  0  0  0  0
   37.0793    0.0680  -13.5581 N   0  0  0  0  0  0  0  0  0  0  0  0
   42.8542   -1.0251   -4.5815 C   0  0  1  0  0  0  0  0  0  0  0  0
   43.5307   -2.2492   -4.8221 O   0  0  0  0  0  0  0  0  0  0  0  0
   42.0234    3.9607   -6.4365 C   0  0  2  0  0  0  0  0  0  0  0  0
   42.4111    3.5182   -7.7462 N   0  0  0  0  0  0  0  0  0  0  0  0
   38.6622   -0.1606   -4.8810 C   0  0  2  0  0  0  0  0  0  0  0  0
   38.3497   -1.3059   -5.6602 O   0  0  0  0  0  0  0  0  0  0  0  0
   40.0061   -4.4060   -4.1715 C   0  0  1  0  0  0  0  0  0  0  0  0
   39.2772   -4.3197   -2.8953 O   0  0  0  0  0  0  0  0  0  0  0  0
   38.3624   -0.2292  -13.0166 C   0  0  0  0  0  0  0  0  0  0  0  0
   42.6627   -0.7582   -3.0602 C   0  0  2  0  0  0  0  0  0  0  0  0
   41.8637   -1.8350   -2.4267 O   0  0  0  0  0  0  0  0  0  0  0  0
   41.0916    2.8712   -5.7624 C   0  0  2  0  0  0  0  0  0  0  0  0
   37.7129    0.0571   -3.6787 C   0  0  1  0  0  0  0  0  0  0  0  0
   39.3139   -5.4856   -5.1721 C   0  0  2  0  0  0  0  0  0  0  0  0
   40.0370   -5.5769   -6.4501 O   0  0  0  0  0  0  0  0  0  0  0  0
   38.6421    0.0697  -11.6603 C   0  0  0  0  0  0  0  0  0  0  0  0
   41.9242    0.6167   -2.8323 C   0  0  2  0  0  0  0  0  0  0  0  0
   42.7504    1.6257   -3.4760 O   0  0  0  0  0  0  0  0  0  0  0  0
   40.6979    3.3953   -4.3378 C   0  0  2  0  0  0  0  0  0  0  0  0
   39.8838    2.3460   -3.8284 O   0  0  0  0  0  0  0  0  0  0  0  0
   38.2092   -0.6364   -2.4111 C   0  0  0  0  0  0  0  0  0  0  0  0
   37.3668   -0.5231   -1.2892 O   0  0  0  0  0  0  0  0  0  0  0  0
   37.7974   -5.0619   -5.4437 C   0  0  1  0  0  0  0  0  0  0  0  0
   37.7853   -3.6572   -6.0105 O   0  0  0  0  0  0  0  0  0  0  0  0
   37.5899    0.6935  -10.8249 C   0  0  0  0  0  0  0  0  0  0  0  0
   41.7918    0.8234   -1.3812 C   0  0  0  0  0  0  0  0  0  0  0  0
   41.0554    1.9179   -1.1518 O   0  0  0  0  0  0  0  0  0  0  0  0
   39.9145    4.7710   -4.4428 C   0  0  1  0  0  0  0  0  0  0  0  0
   39.5820    5.2270   -3.1727 O   0  0  0  0  0  0  0  0  0  0  0  0
   36.9327    1.0176   -7.6546 C   0  0  0  0  0  0  0  0  0  0  0  0
   37.1941   -6.1178   -6.4094 C   0  0  0  0  0  0  0  0  0  0  0  0
   35.8350   -5.7767   -6.7492 N   0  0  0  0  0  0  0  0  0  0  0  0
   35.7336    1.8623   -8.0975 C   0  0  0  0  0  0  0  0  0  0  0  0
   34.9537    1.1150   -9.1367 N   0  0  0  0  0  0  0  0  0  0  0  0
   35.0678    1.6632  -10.5847 C   0  0  0  0  0  0  0  0  0  0  0  0
  1  2  1  6  0  0  0
  1  9  1  0  0  0  0
  1 35  1  0  0  0  0
  3  4  1  6  0  0  0
  3 11  1  0  0  0  0
  3 45  1  0  0  0  0
  5  6  1  0  0  0  0
  5 12  1  0  0  0  0
  5 37  1  1  0  0  0
  6 30  1  0  0  0  0
  7 14  1  0  0  0  0
  7 41  1  0  0  0  0
  7 23  1  6  0  0  0
  8 16  2  0  0  0  0
  8 42  1  0  0  0  0
  9 10  1  6  0  0  0
  9 18  1  0  0  0  0
 11 20  1  0  0  0  0
 12 13  1  6  0  0  0
 12 22  1  0  0  0  0
 13 47  1  0  0  0  0
 14 15  1  6  0  0  0
 14 24  1  0  0  0  0
 16 17  1  0  0  0  0
 17 26  2  0  0  0  0
 18 19  1  1  0  0  0
 18 27  1  0  0  0  0
 20 21  1  6  0  0  0
 20 29  1  0  0  0  0
 22 23  1  6  0  0  0
 22 30  1  0  0  0  0
 24 25  1  1  0  0  0
 24 31  1  0  0  0  0
 26 33  1  0  0  0  0
 27 28  1  6  0  0  0
 27 34  1  0  0  0  0
 29  2  1  1  0  0  0
 29 36  1  0  0  0  0
 30 38  1  1  0  0  0
 31 32  1  6  0  0  0
 31 40  1  0  0  0  0
 33 42  2  0  0  0  0
 34 35  1  0  0  0  0
 34 43  1  1  0  0  0
 36 37  1  6  0  0  0
 36 45  1  0  0  0  0
 38 39  1  0  0  0  0
 40 41  1  0  0  0  0
 40 48  1  6  0  0  0
 43 44  1  0  0  0  0
 45 46  1  1  0  0  0
 47 50  1  0  0  0  0
 48 49  1  0  0  0  0
 50 51  1  0  0  0  0
 51 52  1  0  0  0  0
 52  8  1  0  0  0  0
M  END
>  <CHROM.1>
-171.74718751,-154.51622701,-70.97931856,-176.36321603,-176.14965218,178.07136695
63.32687726,66.08006091,-174.07307735,-70.49792706,-177.69621854,-164.58593113
-108.01206956,90.88073341,139.79301559,39.51485143,0.16773765,-5.76500394
0.17920670,-0.99761400,-0.33961680

>  <Name>
2be0_lig

>  <RI>
0

>  <Rbt.Current_Directory>
/home/itssahil/PROJECTS/Mol_Feturizer/New_Systems/rnas/2be0

>  <Rbt.Executable>
rbdock ($Id: //depot/dev/client3/rdock/2013.1/src/exe/rbdock.cxx#4 $)

>  <Rbt.Library>
libRbt.so (2013.1, Build901 2013/11/27)

>  <Rbt.Parameter_File>
/export/apps/rDock/src/rDock_2013.1_src/data/scripts/dock_solv.prm

>  <Rbt.Receptor>
prm/pocket_docking_7.prm

>  <SCORE>
-14.4319

>  <SCORE.INTER>
6.00872

>  <SCORE.INTER.CONST>
1

>  <SCORE.INTER.POLAR>
0

>  <SCORE.INTER.ROT>
15

>  <SCORE.INTER.SOLV>
10.0383

>  <SCORE.INTER.VDW>
-12.9403

>  <SCORE.INTER.norm>
0.115552

>  <SCORE.INTRA>
-20.4406

>  <SCORE.INTRA.DIHEDRAL>
-39.4259

>  <SCORE.INTRA.DIHEDRAL.0>
47.8724

>  <SCORE.INTRA.POLAR>
0

>  <SCORE.INTRA.POLAR.0>
0

>  <SCORE.INTRA.REPUL>
0

>  <SCORE.INTRA.REPUL.0>
0

>  <SCORE.INTRA.SOLV>
-0.427773

>  <SCORE.INTRA.SOLV.lig_0>
-115.677

>  <SCORE.INTRA.VDW>
-0.513736

>  <SCORE.INTRA.VDW.0>
-7.4833

>  <SCORE.INTRA.norm>
-0.393088

>  <SCORE.RESTR>
0

>  <SCORE.RESTR.CAVITY>
0

>  <SCORE.RESTR.norm>
0

>  <SCORE.SYSTEM>
0

>  <SCORE.SYSTEM.CONST>
0

>  <SCORE.SYSTEM.DIHEDRAL>
0

>  <SCORE.SYSTEM.SOLV>
0

>  <SCORE.SYSTEM.norm>
0

>  <SCORE.heavy>
52

>  <SCORE.norm>
-0.277536

>  <RMSD>
9.912

$$$$
2be0_lig
 OpenBabel11021811423D
libRbt.so/2013.1/901 2013/11/27
 52 56  0  0  0  0  0  0  0  0999 V2000
   42.9978    4.8531    0.6221 C   0  0  2  0  0  0  0  0  0  0  0  0
   42.6578    5.7178   -0.4360 O   0  0  0  0  0  0  0  0  0  0  0  0
   42.2725   10.0883   -0.7846 C   0  0  2  0  0  0  0  0  0  0  0  0
   42.5832   11.5351   -0.6127 N   0  0  0  0  0  0  0  0  0  0  0  0
   44.2226    7.1720   -3.7986 C   0  0  2  0  0  0  0  0  0  0  0  0
   42.9570    7.4260   -4.4420 O   0  0  0  0  0  0  0  0  0  0  0  0
   42.3785    2.9418   -5.1537 C   0  0  1  0  0  0  0  0  0  0  0  0
   45.2495   10.8747   -9.5044 C   0  0  0  0  0  0  0  0  0  0  0  0
   43.1992    3.3696    0.1079 C   0  0  2  0  0  0  0  0  0  0  0  0
   44.1788    3.3511   -0.9804 N   0  0  0  0  0  0  0  0  0  0  0  0
   42.1519    9.4051    0.6531 C   0  0  0  0  0  0  0  0  0  0  0  0
   44.7592    5.8548   -4.3812 C   0  0  2  0  0  0  0  0  0  0  0  0
   45.4608    6.2852   -5.6302 O   0  0  0  0  0  0  0  0  0  0  0  0
   42.6526    2.1698   -3.7501 C   0  0  2  0  0  0  0  0  0  0  0  0
   44.0121    1.5419   -3.8046 N   0  0  0  0  0  0  0  0  0  0  0  0
   44.3748   10.4411  -10.5540 C   0  0  0  0  0  0  0  0  0  0  0  0
   44.0945   11.3109  -11.6403 N   0  0  0  0  0  0  0  0  0  0  0  0
   41.7913    2.7617   -0.3441 C   0  0  1  0  0  0  0  0  0  0  0  0
   41.9947    1.4360   -0.8081 O   0  0  0  0  0  0  0  0  0  0  0  0
   41.8249    7.8108    0.5081 C   0  0  2  0  0  0  0  0  0  0  0  0
   41.7117    7.1847    1.7952 N   0  0  0  0  0  0  0  0  0  0  0  0
   43.4307    5.0812   -4.4774 C   0  0  2  0  0  0  0  0  0  0  0  0
   43.4137    3.9294   -5.3078 O   0  0  0  0  0  0  0  0  0  0  0  0
   41.5457    1.0866   -3.5760 C   0  0  1  0  0  0  0  0  0  0  0  0
   40.2662    1.8126   -3.5189 O   0  0  0  0  0  0  0  0  0  0  0  0
   44.6447   12.6201  -11.7470 C   0  0  0  0  0  0  0  0  0  0  0  0
   40.8191    2.8078    0.8704 C   0  0  2  0  0  0  0  0  0  0  0  0
   39.4897    2.2585    0.5099 O   0  0  0  0  0  0  0  0  0  0  0  0
   42.9683    7.1017   -0.3282 C   0  0  2  0  0  0  0  0  0  0  0  0
   42.4128    6.1692   -4.8947 C   0  0  1  0  0  0  0  0  0  0  0  0
   41.5786    0.0510   -4.8300 C   0  0  2  0  0  0  0  0  0  0  0  0
   42.8548   -0.6780   -4.8935 O   0  0  0  0  0  0  0  0  0  0  0  0
   45.5167   13.1030  -10.7404 C   0  0  0  0  0  0  0  0  0  0  0  0
   40.6318    4.2926    1.3681 C   0  0  2  0  0  0  0  0  0  0  0  0
   41.9633    4.7737    1.7008 O   0  0  0  0  0  0  0  0  0  0  0  0
   43.0522    7.8150   -1.7223 C   0  0  2  0  0  0  0  0  0  0  0  0
   44.0875    7.0975   -2.3831 O   0  0  0  0  0  0  0  0  0  0  0  0
   41.0596    5.9959   -4.2069 C   0  0  0  0  0  0  0  0  0  0  0  0
   39.9973    6.7306   -4.7663 O   0  0  0  0  0  0  0  0  0  0  0  0
   41.3539    0.8574   -6.1909 C   0  0  1  0  0  0  0  0  0  0  0  0
   42.4204    1.9280   -6.2966 O   0  0  0  0  0  0  0  0  0  0  0  0
   45.8401   12.2340   -9.5852 C   0  0  0  0  0  0  0  0  0  0  0  0
   39.7236    4.2699    2.5260 C   0  0  0  0  0  0  0  0  0  0  0  0
   38.5013    3.8964    2.1269 O   0  0  0  0  0  0  0  0  0  0  0  0
   43.4008    9.3527   -1.5457 C   0  0  1  0  0  0  0  0  0  0  0  0
   43.4613    9.9723   -2.7883 O   0  0  0  0  0  0  0  0  0  0  0  0
   44.9070    7.0345   -6.7827 C   0  0  0  0  0  0  0  0  0  0  0  0
   41.4063   -0.1764   -7.3484 C   0  0  0  0  0  0  0  0  0  0  0  0
   41.3269    0.4876   -8.6258 N   0  0  0  0  0  0  0  0  0  0  0  0
   46.0859    7.4164   -7.6837 C   0  0  0  0  0  0  0  0  0  0  0  0
   45.6209    8.3827   -8.7309 N   0  0  0  0  0  0  0  0  0  0  0  0
   45.5498    9.8691   -8.2883 C   0  0  0  0  0  0  0  0  0  0  0  0
  1  2  1  6  0  0  0
  1  9  1  0  0  0  0
  1 35  1  0  0  0  0
  3  4  1  1  0  0  0
  3 11  1  0  0  0  0
  3 45  1  0  0  0  0
  5  6  1  0  0  0  0
  5 12  1  0  0  0  0
  5 37  1  1  0  0  0
  6 30  1  0  0  0  0
  7 14  1  0  0  0  0
  7 41  1  0  0  0  0
  7 23  1  6  0  0  0
  8 16  2  0  0  0  0
  8 42  1  0  0  0  0
  9 10  1  6  0  0  0
  9 18  1  0  0  0  0
 11 20  1  0  0  0  0
 12 13  1  6  0  0  0
 12 22  1  0  0  0  0
 13 47  1  0  0  0  0
 14 15  1  6  0  0  0
 14 24  1  0  0  0  0
 16 17  1  0  0  0  0
 17 26  2  0  0  0  0
 18 19  1  1  0  0  0
 18 27  1  0  0  0  0
 20 21  1  1  0  0  0
 20 29  1  0  0  0  0
 22 23  1  6  0  0  0
 22 30  1  0  0  0  0
 24 25  1  6  0  0  0
 24 31  1  0  0  0  0
 26 33  1  0  0  0  0
 27 28  1  6  0  0  0
 27 34  1  0  0  0  0
 29  2  1  6  0  0  0
 29 36  1  0  0  0  0
 30 38  1  1  0  0  0
 31 32  1  6  0  0  0
 31 40  1  0  0  0  0
 33 42  2  0  0  0  0
 34 35  1  0  0  0  0
 34 43  1  1  0  0  0
 36 37  1  6  0  0  0
 36 45  1  0  0  0  0
 38 39  1  0  0  0  0
 40 41  1  0  0  0  0
 40 48  1  6  0  0  0
 43 44  1  0  0  0  0
 45 46  1  6  0  0  0
 47 50  1  0  0  0  0
 48 49  1  0  0  0  0
 50 51  1  0  0  0  0
 51 52  1  0  0  0  0
 52  8  1  0  0  0  0
M  END
>  <CHROM.1>
-154.10565300,-28.26954321,-70.81883582,-57.17138665,170.89394506,161.44540029
-82.87351605,78.58307075,-67.00243365,161.95342098,-175.03334497,-169.86907118
82.69523753,171.79029137,35.39322791,42.78663664,5.71709895,-3.69565362,-3.12017546
-1.26000113,-2.42389466

>  <Name>
2be0_lig

>  <RI>
0

>  <Rbt.Current_Directory>
/home/itssahil/PROJECTS/Mol_Feturizer/New_Systems/rnas/2be0

>  <Rbt.Executable>
rbdock ($Id: //depot/dev/client3/rdock/2013.1/src/exe/rbdock.cxx#4 $)

>  <Rbt.Library>
libRbt.so (2013.1, Build901 2013/11/27)

>  <Rbt.Parameter_File>
/export/apps/rDock/src/rDock_2013.1_src/data/scripts/dock_solv.prm

>  <Rbt.Receptor>
prm/pocket_docking_4.prm

>  <SCORE>
-28.0972

>  <SCORE.INTER>
-16.4646

>  <SCORE.INTER.CONST>
1

>  <SCORE.INTER.POLAR>
-2.31675

>  <SCORE.INTER.ROT>
15

>  <SCORE.INTER.SOLV>
15.5386

>  <SCORE.INTER.VDW>
-22.0334

>  <SCORE.INTER.norm>
-0.316626

>  <SCORE.INTRA>
-11.6553

>  <SCORE.INTRA.DIHEDRAL>
-31.3265

>  <SCORE.INTRA.DIHEDRAL.0>
47.8724

>  <SCORE.INTRA.POLAR>
0

>  <SCORE.INTRA.POLAR.0>
0

>  <SCORE.INTRA.REPUL>
0

>  <SCORE.INTRA.REPUL.0>
0

>  <SCORE.INTRA.SOLV>
3.15649

>  <SCORE.INTRA.SOLV.lig_0>
-115.677

>  <SCORE.INTRA.VDW>
2.42973

>  <SCORE.INTRA.VDW.0>
-7.4833

>  <SCORE.INTRA.norm>
-0.22414

>  <SCORE.RESTR>
0.0226405

>  <SCORE.RESTR.CAVITY>
0.0226405

>  <SCORE.RESTR.norm>
0.000435394

>  <SCORE.SYSTEM>
0

>  <SCORE.SYSTEM.CONST>
0

>  <SCORE.SYSTEM.DIHEDRAL>
0

>  <SCORE.SYSTEM.SOLV>
0

>  <SCORE.SYSTEM.norm>
0

>  <SCORE.heavy>
52

>  <SCORE.norm>
-0.540331

>  <RMSD>
9.915

$$$$
2be0_lig
 OpenBabel11021811423D
libRbt.so/2013.1/901 2013/11/27
 52 56  0  0  0  0  0  0  0  0999 V2000
   42.3735    4.2761   -2.7756 C   0  0  2  0  0  0  0  0  0  0  0  0
   41.7614    5.2640   -1.9804 O   0  0  0  0  0  0  0  0  0  0  0  0
   42.9712    9.2242   -0.4890 C   0  0  2  0  0  0  0  0  0  0  0  0
   43.8010   10.2776    0.1600 N   0  0  0  0  0  0  0  0  0  0  0  0
   43.5414    7.5666   -4.7455 C   0  0  2  0  0  0  0  0  0  0  0  0
   42.2748    7.6164   -5.4336 O   0  0  0  0  0  0  0  0  0  0  0  0
   45.3227    4.5922   -7.5675 C   0  0  1  0  0  0  0  0  0  0  0  0
   44.0081   10.2479  -11.7867 C   0  0  0  0  0  0  0  0  0  0  0  0
   41.3356    3.1599   -3.2029 C   0  0  2  0  0  0  0  0  0  0  0  0
   40.1804    3.7809   -3.8544 N   0  0  0  0  0  0  0  0  0  0  0  0
   42.7232    8.0393    0.5516 C   0  0  0  0  0  0  0  0  0  0  0  0
   44.5321    6.8691   -5.6912 C   0  0  2  0  0  0  0  0  0  0  0  0
   45.0280    7.9811   -6.5600 O   0  0  0  0  0  0  0  0  0  0  0  0
   45.5431    4.1368   -9.1119 C   0  0  2  0  0  0  0  0  0  0  0  0
   44.4850    3.1393   -9.4742 N   0  0  0  0  0  0  0  0  0  0  0  0
   43.0734   11.0646  -12.5037 C   0  0  0  0  0  0  0  0  0  0  0  0
   43.5344   11.9125  -13.5447 N   0  0  0  0  0  0  0  0  0  0  0  0
   40.9108    2.3025   -1.9222 C   0  0  1  0  0  0  0  0  0  0  0  0
   39.9757    1.3138   -2.3250 O   0  0  0  0  0  0  0  0  0  0  0  0
   41.8267    6.8540   -0.1275 C   0  0  2  0  0  0  0  0  0  0  0  0
   41.5944    5.7826    0.7996 N   0  0  0  0  0  0  0  0  0  0  0  0
   43.5874    5.8029   -6.2775 C   0  0  2  0  0  0  0  0  0  0  0  0
   44.0037    5.1595   -7.4729 O   0  0  0  0  0  0  0  0  0  0  0  0
   46.9642    3.5073   -9.2268 C   0  0  1  0  0  0  0  0  0  0  0  0
   47.9151    4.5721   -8.8672 O   0  0  0  0  0  0  0  0  0  0  0  0
   44.9044   12.0005  -13.9236 C   0  0  0  0  0  0  0  0  0  0  0  0
   42.1910    1.6709   -1.3023 C   0  0  2  0  0  0  0  0  0  0  0  0
   41.8598    0.8634   -0.1033 O   0  0  0  0  0  0  0  0  0  0  0  0
   42.5629    6.2932   -1.4132 C   0  0  2  0  0  0  0  0  0  0  0  0
   42.2393    6.5514   -6.4058 C   0  0  1  0  0  0  0  0  0  0  0  0
   47.0937    2.2380   -8.2178 C   0  0  2  0  0  0  0  0  0  0  0  0
   46.1458    1.1698   -8.5711 O   0  0  0  0  0  0  0  0  0  0  0  0
   45.8739   11.2161  -13.2515 C   0  0  0  0  0  0  0  0  0  0  0  0
   43.2121    2.7976   -0.8837 C   0  0  2  0  0  0  0  0  0  0  0  0
   43.4928    3.5526   -2.0945 O   0  0  0  0  0  0  0  0  0  0  0  0
   42.7914    7.4947   -2.3946 C   0  0  2  0  0  0  0  0  0  0  0  0
   43.4381    6.8799   -3.5024 O   0  0  0  0  0  0  0  0  0  0  0  0
   41.0452    5.6660   -6.0535 C   0  0  0  0  0  0  0  0  0  0  0  0
   39.7823    6.2756   -6.1753 O   0  0  0  0  0  0  0  0  0  0  0  0
   46.8223    2.7209   -6.7191 C   0  0  1  0  0  0  0  0  0  0  0  0
   45.4535    3.3672   -6.6630 O   0  0  0  0  0  0  0  0  0  0  0  0
   45.4438   10.3154  -12.1569 C   0  0  0  0  0  0  0  0  0  0  0  0
   44.4058    2.1414   -0.3265 C   0  0  0  0  0  0  0  0  0  0  0  0
   44.1199    1.6499    0.8857 O   0  0  0  0  0  0  0  0  0  0  0  0
   43.6898    8.6117   -1.7145 C   0  0  1  0  0  0  0  0  0  0  0  0
   43.8743    9.6732   -2.5924 O   0  0  0  0  0  0  0  0  0  0  0  0
   44.3348    8.6417   -7.6911 C   0  0  0  0  0  0  0  0  0  0  0  0
   46.9478    1.4707   -5.8065 C   0  0  0  0  0  0  0  0  0  0  0  0
   46.8511    1.8448   -4.4175 N   0  0  0  0  0  0  0  0  0  0  0  0
   44.2108    7.6063   -8.8136 C   0  0  0  0  0  0  0  0  0  0  0  0
   44.5064    8.2597  -10.1298 N   0  0  0  0  0  0  0  0  0  0  0  0
   43.4580    9.2970  -10.6147 C   0  0  0  0  0  0  0  0  0  0  0  0
  1  2  1  1  0  0  0
  1  9  1  0  0  0  0
  1 35  1  0  0  0  0
  3  4  1  1  0  0  0
  3 11  1  0  0  0  0
  3 45  1  0  0  0  0
  5  6  1  0  0  0  0
  5 12  1  0  0  0  0
  5 37  1  1  0  0  0
  6 30  1  0  0  0  0
  7 14  1  0  0  0  0
  7 41  1  0  0  0  0
  7 23  1  6  0  0  0
  8 16  2  0  0  0  0
  8 42  1  0  0  0  0
  9 10  1  1  0  0  0
  9 18  1  0  0  0  0
 11 20  1  0  0  0  0
 12 13  1  6  0  0  0
 12 22  1  0  0  0  0
 13 47  1  0  0  0  0
 14 15  1  1  0  0  0
 14 24  1  0  0  0  0
 16 17  1  0  0  0  0
 17 26  2  0  0  0  0
 18 19  1  6  0  0  0
 18 27  1  0  0  0  0
 20 21  1  1  0  0  0
 20 29  1  0  0  0  0
 22 23  1  6  0  0  0
 22 30  1  0  0  0  0
 24 25  1  1  0  0  0
 24 31  1  0  0  0  0
 26 33  1  0  0  0  0
 27 28  1  1  0  0  0
 27 34  1  0  0  0  0
 29  2  1  6  0  0  0
 29 36  1  0  0  0  0
 30 38  1  1  0  0  0
 31 32  1  6  0  0  0
 31 40  1  0  0  0  0
 33 42  2  0  0  0  0
 34 35  1  0  0  0  0
 34 43  1  6  0  0  0
 36 37  1  6  0  0  0
 36 45  1  0  0  0  0
 38 39  1  0  0  0  0
 40 41  1  0  0  0  0
 40 48  1  1  0  0  0
 43 44  1  0  0  0  0
 45 46  1  6  0  0  0
 47 50  1  0  0  0  0
 48 49  1  0  0  0  0
 50 51  1  0  0  0  0
 51 52  1  0  0  0  0
 52  8  1  0  0  0  0
M  END
>  <CHROM.1>
175.02724475,-73.41215339,-171.99356627,-76.43854514,-67.49210232,50.23308026
-155.57758062,64.99683739,-72.98607234,165.29631767,174.15268879,-138.41606356
-68.48083977,163.84055108,167.84384032,43.71788733,5.79369112,-5.40398965
2.05649090,-1.15092083,2.48447549

>  <Name>
2be0_lig

>  <RI>
0

>  <Rbt.Current_Directory>
/home/itssahil/PROJECTS/Mol_Feturizer/New_Systems/rnas/2be0

>  <Rbt.Executable>
rbdock ($Id: //depot/dev/client3/rdock/2013.1/src/exe/rbdock.cxx#4 $)

>  <Rbt.Library>
libRbt.so (2013.1, Build901 2013/11/27)

>  <Rbt.Parameter_File>
/export/apps/rDock/src/rDock_2013.1_src/data/scripts/dock_solv.prm

>  <Rbt.Receptor>
prm/pocket_docking_6.prm

>  <SCORE>
-38.8181

>  <SCORE.INTER>
-22.9541

>  <SCORE.INTER.CONST>
1

>  <SCORE.INTER.POLAR>
-1.91678

>  <SCORE.INTER.ROT>
15

>  <SCORE.INTER.SOLV>
16.2013

>  <SCORE.INTER.VDW>
-27.9139

>  <SCORE.INTER.norm>
-0.441424

>  <SCORE.INTRA>
-15.864

>  <SCORE.INTRA.DIHEDRAL>
-34.5565

>  <SCORE.INTRA.DIHEDRAL.0>
47.8724

>  <SCORE.INTRA.POLAR>
0

>  <SCORE.INTRA.POLAR.0>
0

>  <SCORE.INTRA.REPUL>
0.0103259

>  <SCORE.INTRA.REPUL.0>
0

>  <SCORE.INTRA.SOLV>
-2.10501

>  <SCORE.INTRA.SOLV.lig_0>
-115.677

>  <SCORE.INTRA.VDW>
2.41513

>  <SCORE.INTRA.VDW.0>
-7.4833

>  <SCORE.INTRA.norm>
-0.305077

>  <SCORE.RESTR>
0

>  <SCORE.RESTR.CAVITY>
0

>  <SCORE.RESTR.norm>
0

>  <SCORE.SYSTEM>
0

>  <SCORE.SYSTEM.CONST>
0

>  <SCORE.SYSTEM.DIHEDRAL>
0

>  <SCORE.SYSTEM.SOLV>
0

>  <SCORE.SYSTEM.norm>
0

>  <SCORE.heavy>
52

>  <SCORE.norm>
-0.746501

>  <RMSD>
9.920

$$$$
2be0_lig
 OpenBabel11021811423D
libRbt.so/2013.1/901 2013/11/27
 52 56  0  0  0  0  0  0  0  0999 V2000
   44.7565   -0.3634   -3.2138 C   0  0  2  0  0  0  0  0  0  0  0  0
   44.2622    0.9288   -3.4757 O   0  0  0  0  0  0  0  0  0  0  0  0
   41.8025    1.5310    0.1241 C   0  0  2  0  0  0  0  0  0  0  0  0
   41.0106    2.2339    1.1721 N   0  0  0  0  0  0  0  0  0  0  0  0
   41.0684    2.4103   -4.1253 C   0  0  2  0  0  0  0  0  0  0  0  0
   40.3446    2.3368   -5.3707 O   0  0  0  0  0  0  0  0  0  0  0  0
   44.1343    3.2950   -7.7217 C   0  0  1  0  0  0  0  0  0  0  0  0
   39.5512    8.6944   -1.1757 C   0  0  0  0  0  0  0  0  0  0  0  0
   45.4942   -0.9624   -4.4798 C   0  0  2  0  0  0  0  0  0  0  0  0
   46.5338   -0.0354   -4.9321 N   0  0  0  0  0  0  0  0  0  0  0  0
   43.2666    2.1642    0.0629 C   0  0  0  0  0  0  0  0  0  0  0  0
   42.2632    3.3478   -4.3619 C   0  0  2  0  0  0  0  0  0  0  0  0
   41.6903    4.7098   -4.1295 O   0  0  0  0  0  0  0  0  0  0  0  0
   45.2279    4.4190   -8.1484 C   0  0  2  0  0  0  0  0  0  0  0  0
   44.5140    5.7119   -8.4024 N   0  0  0  0  0  0  0  0  0  0  0  0
   39.3724   10.0927   -0.9152 C   0  0  0  0  0  0  0  0  0  0  0  0
   38.3775   10.5150    0.0051 N   0  0  0  0  0  0  0  0  0  0  0  0
   44.4260   -1.2700   -5.6287 C   0  0  1  0  0  0  0  0  0  0  0  0
   45.1077   -1.7984   -6.7558 O   0  0  0  0  0  0  0  0  0  0  0  0
   44.1650    1.4288   -1.0869 C   0  0  2  0  0  0  0  0  0  0  0  0
   45.4858    1.9881   -1.1507 N   0  0  0  0  0  0  0  0  0  0  0  0
   42.6302    2.9055   -5.7911 C   0  0  2  0  0  0  0  0  0  0  0  0
   43.4674    3.7742   -6.5401 O   0  0  0  0  0  0  0  0  0  0  0  0
   45.9496    3.9194   -9.4363 C   0  0  1  0  0  0  0  0  0  0  0  0
   46.6241    2.6637   -9.0679 O   0  0  0  0  0  0  0  0  0  0  0  0
   37.5269    9.6071    0.6981 C   0  0  0  0  0  0  0  0  0  0  0  0
   43.3708   -2.2681   -5.0695 C   0  0  2  0  0  0  0  0  0  0  0  0
   42.3468   -2.5898   -6.0928 O   0  0  0  0  0  0  0  0  0  0  0  0
   43.4579    1.5757   -2.4968 C   0  0  2  0  0  0  0  0  0  0  0  0
   41.2545    2.6410   -6.4479 C   0  0  1  0  0  0  0  0  0  0  0  0
   44.8646    3.6775  -10.6238 C   0  0  2  0  0  0  0  0  0  0  0  0
   44.1862    4.9284  -10.9970 O   0  0  0  0  0  0  0  0  0  0  0  0
   37.6578    8.2132    0.4821 C   0  0  0  0  0  0  0  0  0  0  0  0
   42.6476   -1.6542   -3.8095 C   0  0  2  0  0  0  0  0  0  0  0  0
   43.6992   -1.3583   -2.8497 O   0  0  0  0  0  0  0  0  0  0  0  0
   42.0247    0.9501   -2.3795 C   0  0  2  0  0  0  0  0  0  0  0  0
   41.4953    1.1241   -3.6883 O   0  0  0  0  0  0  0  0  0  0  0  0
   41.2740    1.4244   -7.3719 C   0  0  0  0  0  0  0  0  0  0  0  0
   41.6234    0.2054   -6.7609 O   0  0  0  0  0  0  0  0  0  0  0  0
   43.7828    2.6038  -10.1443 C   0  0  1  0  0  0  0  0  0  0  0  0
   43.1408    3.1060   -8.8675 O   0  0  0  0  0  0  0  0  0  0  0  0
   38.6809    7.7213   -0.4695 C   0  0  0  0  0  0  0  0  0  0  0  0
   41.6812   -2.6477   -3.3145 C   0  0  0  0  0  0  0  0  0  0  0  0
   41.0668   -2.1685   -2.2257 O   0  0  0  0  0  0  0  0  0  0  0  0
   41.1707    1.7069   -1.2770 C   0  0  1  0  0  0  0  0  0  0  0  0
   39.9081    1.1347   -1.1780 O   0  0  0  0  0  0  0  0  0  0  0  0
   40.5647    5.3653   -4.8364 C   0  0  0  0  0  0  0  0  0  0  0  0
   42.7717    2.4228  -11.3089 C   0  0  0  0  0  0  0  0  0  0  0  0
   41.7762    1.4371  -10.9679 N   0  0  0  0  0  0  0  0  0  0  0  0
   40.5258    6.8246   -4.3712 C   0  0  0  0  0  0  0  0  0  0  0  0
   40.3966    6.8691   -2.8785 N   0  0  0  0  0  0  0  0  0  0  0  0
   40.6855    8.2453   -2.2206 C   0  0  0  0  0  0  0  0  0  0  0  0
  1  2  1  6  0  0  0
  1  9  1  0  0  0  0
  1 35  1  0  0  0  0
  3  4  1  1  0  0  0
  3 11  1  0  0  0  0
  3 45  1  0  0  0  0
  5  6  1  0  0  0  0
  5 12  1  0  0  0  0
  5 37  1  6  0  0  0
  6 30  1  0  0  0  0
  7 14  1  0  0  0  0
  7 41  1  0  0  0  0
  7 23  1  1  0  0  0
  8 16  2  0  0  0  0
  8 42  1  0  0  0  0
  9 10  1  6  0  0  0
  9 18  1  0  0  0  0
 11 20  1  0  0  0  0
 12 13  1  6  0  0  0
 12 22  1  0  0  0  0
 13 47  1  0  0  0  0
 14 15  1  6  0  0  0
 14 24  1  0  0  0  0
 16 17  1  0  0  0  0
 17 26  2  0  0  0  0
 18 19  1  6  0  0  0
 18 27  1  0  0  0  0
 20 21  1  6  0  0  0
 20 29  1  0  0  0  0
 22 23  1  6  0  0  0
 22 30  1  0  0  0  0
 24 25  1  1  0  0  0
 24 31  1  0  0  0  0
 26 33  1  0  0  0  0
 27 28  1  6  0  0  0
 27 34  1  0  0  0  0
 29  2  1  6  0  0  0
 29 36  1  0  0  0  0
 30 38  1  6  0  0  0
 31 32  1  1  0  0  0
 31 40  1  0  0  0  0
 33 42  2  0  0  0  0
 34 35  1  0  0  0  0
 34 43  1  1  0  0  0
 36 37  1  6  0  0  0
 36 45  1  0  0  0  0
 38 39  1  0  0  0  0
 40 41  1  0  0  0  0
 40 48  1  6  0  0  0
 43 44  1  0  0  0  0
 45 46  1  1  0  0  0
 47 50  1  0  0  0  0
 48 49  1  0  0  0  0
 50 51  1  0  0  0  0
 51 52  1  0  0  0  0
 52  8  1  0  0  0  0
M  END
>  <CHROM.1>
174.02047278,-169.38564871,-168.50067535,-59.09497547,-171.16896514,163.80093149
47.19867354,-56.56761720,178.75560837,-74.74356748,178.47687817,-56.67982798
165.80755235,131.29654431,-154.79288545,42.42468308,2.68638627,-4.59820251
-0.00027190,-1.11760160,2.38923861

>  <Name>
2be0_lig

>  <RI>
0

>  <Rbt.Current_Directory>
/home/itssahil/PROJECTS/Mol_Feturizer/New_Systems/rnas/2be0

>  <Rbt.Executable>
rbdock ($Id: //depot/dev/client3/rdock/2013.1/src/exe/rbdock.cxx#4 $)

>  <Rbt.Library>
libRbt.so (2013.1, Build901 2013/11/27)

>  <Rbt.Parameter_File>
/export/apps/rDock/src/rDock_2013.1_src/data/scripts/dock_solv.prm

>  <Rbt.Receptor>
prm/pocket_docking_7.prm

>  <SCORE>
-24.2106

>  <SCORE.INTER>
-5.22032

>  <SCORE.INTER.CONST>
1

>  <SCORE.INTER.POLAR>
0

>  <SCORE.INTER.ROT>
15

>  <SCORE.INTER.SOLV>
12.9853

>  <SCORE.INTER.VDW>
-21.4086

>  <SCORE.INTER.norm>
-0.100391

>  <SCORE.INTRA>
-18.9903

>  <SCORE.INTRA.DIHEDRAL>
-40.5583

>  <SCORE.INTRA.DIHEDRAL.0>
47.8724

>  <SCORE.INTRA.POLAR>
0

>  <SCORE.INTRA.POLAR.0>
0

>  <SCORE.INTRA.REPUL>
0

>  <SCORE.INTRA.REPUL.0>
0

>  <SCORE.INTRA.SOLV>
-1.02754

>  <SCORE.INTRA.SOLV.lig_0>
-115.677

>  <SCORE.INTRA.VDW>
1.8026

>  <SCORE.INTRA.VDW.0>
-7.4833

>  <SCORE.INTRA.norm>
-0.365198

>  <SCORE.RESTR>
0

>  <SCORE.RESTR.CAVITY>
0

>  <SCORE.RESTR.norm>
0

>  <SCORE.SYSTEM>
0

>  <SCORE.SYSTEM.CONST>
0

>  <SCORE.SYSTEM.DIHEDRAL>
0

>  <SCORE.SYSTEM.SOLV>
0

>  <SCORE.SYSTEM.norm>
0

>  <SCORE.heavy>
52

>  <SCORE.norm>
-0.465589

>  <RMSD>
9.925

$$$$
2be0_lig
 OpenBabel11021811423D
libRbt.so/2013.1/901 2013/11/27
 52 56  0  0  0  0  0  0  0  0999 V2000
   38.9698    9.0181   -1.4664 C   0  0  2  0  0  0  0  0  0  0  0  0
   40.3385    9.3479   -1.4395 O   0  0  0  0  0  0  0  0  0  0  0  0
   44.1532    7.5672   -0.1560 C   0  0  2  0  0  0  0  0  0  0  0  0
   45.1107    6.5756    0.4093 N   0  0  0  0  0  0  0  0  0  0  0  0
   42.0182    8.0022   -4.4239 C   0  0  2  0  0  0  0  0  0  0  0  0
   41.0384    7.5662   -5.3884 O   0  0  0  0  0  0  0  0  0  0  0  0
   45.1025    5.8079   -6.4552 C   0  0  1  0  0  0  0  0  0  0  0  0
   46.7801   10.5793   -9.8035 C   0  0  0  0  0  0  0  0  0  0  0  0
   38.3827    8.8871   -0.0022 C   0  0  2  0  0  0  0  0  0  0  0  0
   38.6594   10.1104    0.7538 N   0  0  0  0  0  0  0  0  0  0  0  0
   43.0386    7.8996    0.9374 C   0  0  0  0  0  0  0  0  0  0  0  0
   43.3705    7.4282   -4.8757 C   0  0  2  0  0  0  0  0  0  0  0  0
   43.8667    8.4374   -5.8620 O   0  0  0  0  0  0  0  0  0  0  0  0
   45.5832    5.1952   -7.8816 C   0  0  2  0  0  0  0  0  0  0  0  0
   45.5492    3.6994   -7.7979 N   0  0  0  0  0  0  0  0  0  0  0  0
   47.9723   11.1425  -10.3660 C   0  0  0  0  0  0  0  0  0  0  0  0
   47.9226   11.7640  -11.6412 N   0  0  0  0  0  0  0  0  0  0  0  0
   38.9957    7.5930    0.7087 C   0  0  1  0  0  0  0  0  0  0  0  0
   38.4634    7.4981    2.0208 O   0  0  0  0  0  0  0  0  0  0  0  0
   41.9581    8.9755    0.3504 C   0  0  2  0  0  0  0  0  0  0  0  0
   40.9508    9.2848    1.3256 N   0  0  0  0  0  0  0  0  0  0  0  0
   42.8890    6.0500   -5.3673 C   0  0  2  0  0  0  0  0  0  0  0  0
   43.7717    5.3202   -6.2069 O   0  0  0  0  0  0  0  0  0  0  0  0
   47.0301    5.7045   -8.1577 C   0  0  1  0  0  0  0  0  0  0  0  0
   46.9408    7.1719   -8.2355 O   0  0  0  0  0  0  0  0  0  0  0  0
   46.7284   11.8599  -12.4110 C   0  0  0  0  0  0  0  0  0  0  0  0
   38.6455    6.3434   -0.1504 C   0  0  2  0  0  0  0  0  0  0  0  0
   39.1932    5.1073    0.4589 O   0  0  0  0  0  0  0  0  0  0  0  0
   41.2731    8.3921   -0.9534 C   0  0  2  0  0  0  0  0  0  0  0  0
   41.5198    6.3607   -6.0175 C   0  0  1  0  0  0  0  0  0  0  0  0
   48.0225    5.2388   -6.9560 C   0  0  2  0  0  0  0  0  0  0  0  0
   48.1163    3.7730   -6.8720 O   0  0  0  0  0  0  0  0  0  0  0  0
   45.5187   11.3225  -11.9062 C   0  0  0  0  0  0  0  0  0  0  0  0
   39.2379    6.4928   -1.6045 C   0  0  2  0  0  0  0  0  0  0  0  0
   38.6693    7.7177   -2.1439 O   0  0  0  0  0  0  0  0  0  0  0  0
   42.4083    8.0736   -1.9873 C   0  0  2  0  0  0  0  0  0  0  0  0
   41.6861    7.5751   -3.1068 O   0  0  0  0  0  0  0  0  0  0  0  0
   40.4842    5.2712   -5.7441 C   0  0  0  0  0  0  0  0  0  0  0  0
   39.1406    5.6890   -5.7835 O   0  0  0  0  0  0  0  0  0  0  0  0
   47.4865    5.8217   -5.5683 C   0  0  1  0  0  0  0  0  0  0  0  0
   46.0645    5.3419   -5.3629 O   0  0  0  0  0  0  0  0  0  0  0  0
   45.5179   10.6626  -10.5800 C   0  0  0  0  0  0  0  0  0  0  0  0
   38.8576    5.2963   -2.3725 C   0  0  0  0  0  0  0  0  0  0  0  0
   39.5916    4.2530   -1.9658 O   0  0  0  0  0  0  0  0  0  0  0  0
   43.4209    7.0042   -1.3970 C   0  0  1  0  0  0  0  0  0  0  0  0
   44.4257    6.7406   -2.3202 O   0  0  0  0  0  0  0  0  0  0  0  0
   44.1330    8.2540   -7.3083 C   0  0  0  0  0  0  0  0  0  0  0  0
   48.4627    5.3376   -4.4619 C   0  0  0  0  0  0  0  0  0  0  0  0
   48.4879    3.8973   -4.4022 N   0  0  0  0  0  0  0  0  0  0  0  0
   44.3327    9.6476   -7.9126 C   0  0  0  0  0  0  0  0  0  0  0  0
   45.6457   10.2067   -7.4539 N   0  0  0  0  0  0  0  0  0  0  0  0
   46.8654    9.8834   -8.3583 C   0  0  0  0  0  0  0  0  0  0  0  0
  1  2  1  1  0  0  0
  1  9  1  0  0  0  0
  1 35  1  0  0  0  0
  3  4  1  1  0  0  0
  3 11  1  0  0  0  0
  3 45  1  0  0  0  0
  5  6  1  0  0  0  0
  5 12  1  0  0  0  0
  5 37  1  1  0  0  0
  6 30  1  0  0  0  0
  7 14  1  0  0  0  0
  7 41  1  0  0  0  0
  7 23  1  1  0  0  0
  8 16  2  0  0  0  0
  8 42  1  0  0  0  0
  9 10  1  1  0  0  0
  9 18  1  0  0  0  0
 11 20  1  0  0  0  0
 12 13  1  6  0  0  0
 12 22  1  0  0  0  0
 13 47  1  0  0  0  0
 14 15  1  1  0  0  0
 14 24  1  0  0  0  0
 16 17  1  0  0  0  0
 17 26  2  0  0  0  0
 18 19  1  1  0  0  0
 18 27  1  0  0  0  0
 20 21  1  1  0  0  0
 20 29  1  0  0  0  0
 22 23  1  6  0  0  0
 22 30  1  0  0  0  0
 24 25  1  1  0  0  0
 24 31  1  0  0  0  0
 26 33  1  0  0  0  0
 27 28  1  1  0  0  0
 27 34  1  0  0  0  0
 29  2  1  6  0  0  0
 29 36  1  0  0  0  0
 30 38  1  1  0  0  0
 31 32  1  1  0  0  0
 31 40  1  0  0  0  0
 33 42  2  0  0  0  0
 34 35  1  0  0  0  0
 34 43  1  6  0  0  0
 36 37  1  6  0  0  0
 36 45  1  0  0  0  0
 38 39  1  0  0  0  0
 40 41  1  0  0  0  0
 40 48  1  1  0  0  0
 43 44  1  0  0  0  0
 45 46  1  6  0  0  0
 47 50  1  0  0  0  0
 48 49  1  0  0  0  0
 50 51  1  0  0  0  0
 51 52  1  0  0  0  0
 52  8  1  0  0  0  0
M  END
>  <CHROM.1>
68.00740070,-170.24722163,-154.84551621,-116.99222004,168.13293248,6.26348419
-116.33983115,38.04780499,-73.80905107,135.99933782,-60.69454158,71.49996927
89.92832090,66.57135128,139.31809030,43.27243539,7.41156463,-4.44420170,2.46187942
-0.65075885,2.33025886

>  <Name>
2be0_lig

>  <RI>
224

>  <Rbt.Current_Directory>
/home/itssahil/PROJECTS/Mol_Feturizer/New_Systems/rnas/2be0

>  <Rbt.Executable>
rbdock ($Id: //depot/dev/client3/rdock/2013.1/src/exe/rbdock.cxx#4 $)

>  <Rbt.Library>
libRbt.so (2013.1, Build901 2013/11/27)

>  <Rbt.Parameter_File>
/export/apps/rDock/src/rDock_2013.1_src/data/scripts/dock_solv.prm

>  <Rbt.Receptor>
prm/blind_docking_100.prm

>  <SCORE>
5.21115

>  <SCORE.INTER>
-10.1082

>  <SCORE.INTER.CONST>
1

>  <SCORE.INTER.POLAR>
-2.04359

>  <SCORE.INTER.ROT>
15

>  <SCORE.INTER.SOLV>
22.876

>  <SCORE.INTER.VDW>
-21.1522

>  <SCORE.INTER.norm>
-0.194389

>  <SCORE.INTRA>
3.51189

>  <SCORE.INTRA.DIHEDRAL>
-12.7506

>  <SCORE.INTRA.DIHEDRAL.0>
47.8724

>  <SCORE.INTRA.POLAR>
0

>  <SCORE.INTRA.POLAR.0>
0

>  <SCORE.INTRA.REPUL>
0.0753777

>  <SCORE.INTRA.REPUL.0>
0

>  <SCORE.INTRA.SOLV>
6.83396

>  <SCORE.INTRA.SOLV.lig_0>
-115.677

>  <SCORE.INTRA.VDW>
6.09334

>  <SCORE.INTRA.VDW.0>
-7.4833

>  <SCORE.INTRA.norm>
0.0675364

>  <SCORE.RESTR>
11.8075

>  <SCORE.RESTR.CAVITY>
11.8075

>  <SCORE.RESTR.norm>
0.227067

>  <SCORE.SYSTEM>
0

>  <SCORE.SYSTEM.CONST>
0

>  <SCORE.SYSTEM.DIHEDRAL>
0

>  <SCORE.SYSTEM.SOLV>
0

>  <SCORE.SYSTEM.norm>
0

>  <SCORE.heavy>
52

>  <SCORE.norm>
0.100215

>  <RMSD>
9.937

$$$$
2be0_lig
 OpenBabel11021811423D
libRbt.so/2013.1/901 2013/11/27
 52 56  0  0  0  0  0  0  0  0999 V2000
   39.2724   -1.4389   -5.3913 C   0  0  2  0  0  0  0  0  0  0  0  0
   39.2738   -2.7846   -4.9765 O   0  0  0  0  0  0  0  0  0  0  0  0
   41.8001   -6.1194   -6.3432 C   0  0  2  0  0  0  0  0  0  0  0  0
   42.3431   -7.1875   -7.2285 N   0  0  0  0  0  0  0  0  0  0  0  0
   42.7302   -1.8275   -7.1021 C   0  0  2  0  0  0  0  0  0  0  0  0
   43.8006   -2.0140   -6.1535 O   0  0  0  0  0  0  0  0  0  0  0  0
   43.5051    2.2147   -4.6347 C   0  0  1  0  0  0  0  0  0  0  0  0
   43.2429    6.0364   -9.0375 C   0  0  0  0  0  0  0  0  0  0  0  0
   38.5068   -0.5202   -4.3542 C   0  0  2  0  0  0  0  0  0  0  0  0
   39.0742   -0.7036   -3.0166 N   0  0  0  0  0  0  0  0  0  0  0  0
   40.2354   -6.3582   -6.1353 C   0  0  0  0  0  0  0  0  0  0  0  0
   42.6779   -0.3248   -7.4211 C   0  0  2  0  0  0  0  0  0  0  0  0
   43.6928   -0.1626   -8.5079 O   0  0  0  0  0  0  0  0  0  0  0  0
   42.0607    2.1145   -3.8964 C   0  0  2  0  0  0  0  0  0  0  0  0
   41.0376    2.8039   -4.7470 N   0  0  0  0  0  0  0  0  0  0  0  0
   42.2931    6.6444   -9.9224 C   0  0  0  0  0  0  0  0  0  0  0  0
   42.5172    7.9638  -10.3956 N   0  0  0  0  0  0  0  0  0  0  0  0
   36.9438   -0.8540   -4.3920 C   0  0  1  0  0  0  0  0  0  0  0  0
   36.2777   -0.0262   -3.4511 O   0  0  0  0  0  0  0  0  0  0  0  0
   39.5972   -5.1970   -5.1791 C   0  0  2  0  0  0  0  0  0  0  0  0
   38.1898   -5.4018   -4.9823 N   0  0  0  0  0  0  0  0  0  0  0  0
   42.9704    0.2254   -6.0124 C   0  0  2  0  0  0  0  0  0  0  0  0
   43.3724    1.5843   -5.9214 O   0  0  0  0  0  0  0  0  0  0  0  0
   42.1856    2.8061   -2.5054 C   0  0  1  0  0  0  0  0  0  0  0  0
   43.1968    2.0420   -1.7564 O   0  0  0  0  0  0  0  0  0  0  0  0
   43.6574    8.7351  -10.0309 C   0  0  0  0  0  0  0  0  0  0  0  0
   36.4226   -0.6211   -5.8398 C   0  0  2  0  0  0  0  0  0  0  0  0
   34.9733   -0.9195   -5.9389 O   0  0  0  0  0  0  0  0  0  0  0  0
   39.8405   -3.7727   -5.8284 C   0  0  2  0  0  0  0  0  0  0  0  0
   44.0074   -0.7738   -5.4465 C   0  0  1  0  0  0  0  0  0  0  0  0
   42.6407    4.3564   -2.6937 C   0  0  2  0  0  0  0  0  0  0  0  0
   41.6348    5.1262   -3.4419 O   0  0  0  0  0  0  0  0  0  0  0  0
   44.6309    8.1865   -9.1601 C   0  0  0  0  0  0  0  0  0  0  0  0
   37.1970   -1.5441   -6.8576 C   0  0  2  0  0  0  0  0  0  0  0  0
   38.6043   -1.2084   -6.7107 O   0  0  0  0  0  0  0  0  0  0  0  0
   41.3865   -3.5935   -6.0206 C   0  0  2  0  0  0  0  0  0  0  0  0
   41.4862   -2.2938   -6.5900 O   0  0  0  0  0  0  0  0  0  0  0  0
   43.7872   -1.0645   -3.9628 C   0  0  0  0  0  0  0  0  0  0  0  0
   44.2866   -0.0933   -3.0748 O   0  0  0  0  0  0  0  0  0  0  0  0
   44.0388    4.4096   -3.4652 C   0  0  1  0  0  0  0  0  0  0  0  0
   43.8856    3.6870   -4.7877 O   0  0  0  0  0  0  0  0  0  0  0  0
   44.4428    6.8132   -8.6378 C   0  0  0  0  0  0  0  0  0  0  0  0
   36.6779   -1.2648   -8.2062 C   0  0  0  0  0  0  0  0  0  0  0  0
   36.8911    0.0219   -8.5087 O   0  0  0  0  0  0  0  0  0  0  0  0
   41.9670   -4.7182   -6.9774 C   0  0  1  0  0  0  0  0  0  0  0  0
   43.3384   -4.5519   -7.1293 O   0  0  0  0  0  0  0  0  0  0  0  0
   44.3830    1.0747   -8.9425 C   0  0  0  0  0  0  0  0  0  0  0  0
   44.4155    5.9077   -3.6252 C   0  0  0  0  0  0  0  0  0  0  0  0
   44.7089    6.4969   -2.3425 N   0  0  0  0  0  0  0  0  0  0  0  0
   43.2989    2.1001   -9.2900 C   0  0  0  0  0  0  0  0  0  0  0  0
   43.8721    3.4821   -9.1993 N   0  0  0  0  0  0  0  0  0  0  0  0
   42.9643    4.5419   -8.5188 C   0  0  0  0  0  0  0  0  0  0  0  0
  1  2  1  1  0  0  0
  1  9  1  0  0  0  0
  1 35  1  0  0  0  0
  3  4  1  6  0  0  0
  3 11  1  0  0  0  0
  3 45  1  0  0  0  0
  5  6  1  0  0  0  0
  5 12  1  0  0  0  0
  5 37  1  1  0  0  0
  6 30  1  0  0  0  0
  7 14  1  0  0  0  0
  7 41  1  0  0  0  0
  7 23  1  6  0  0  0
  8 16  2  0  0  0  0
  8 42  1  0  0  0  0
  9 10  1  1  0  0  0
  9 18  1  0  0  0  0
 11 20  1  0  0  0  0
 12 13  1  6  0  0  0
 12 22  1  0  0  0  0
 13 47  1  0  0  0  0
 14 15  1  6  0  0  0
 14 24  1  0  0  0  0
 16 17  1  0  0  0  0
 17 26  2  0  0  0  0
 18 19  1  1  0  0  0
 18 27  1  0  0  0  0
 20 21  1  6  0  0  0
 20 29  1  0  0  0  0
 22 23  1  6  0  0  0
 22 30  1  0  0  0  0
 24 25  1  1  0  0  0
 24 31  1  0  0  0  0
 26 33  1  0  0  0  0
 27 28  1  1  0  0  0
 27 34  1  0  0  0  0
 29  2  1  1  0  0  0
 29 36  1  0  0  0  0
 30 38  1  1  0  0  0
 31 32  1  6  0  0  0
 31 40  1  0  0  0  0
 33 42  2  0  0  0  0
 34 35  1  0  0  0  0
 34 43  1  6  0  0  0
 36 37  1  6  0  0  0
 36 45  1  0  0  0  0
 38 39  1  0  0  0  0
 40 41  1  0  0  0  0
 40 48  1  6  0  0  0
 43 44  1  0  0  0  0
 45 46  1  1  0  0  0
 47 50  1  0  0  0  0
 48 49  1  0  0  0  0
 50 51  1  0  0  0  0
 51 52  1  0  0  0  0
 52  8  1  0  0  0  0
M  END
>  <CHROM.1>
175.89339068,-49.99414433,-58.52870730,-159.84819599,-55.37658474,172.42261987
-175.17311456,163.48352890,60.58448035,-170.64815992,67.56629624,157.41522417
-137.53800795,-152.40212578,105.70168680,41.52072538,0.57205586,-6.02405696
1.98497630,-0.18872456,3.11542927

>  <Name>
2be0_lig

>  <RI>
0

>  <Rbt.Current_Directory>
/home/itssahil/PROJECTS/Mol_Feturizer/New_Systems/rnas/2be0

>  <Rbt.Executable>
rbdock ($Id: //depot/dev/client3/rdock/2013.1/src/exe/rbdock.cxx#4 $)

>  <Rbt.Library>
libRbt.so (2013.1, Build901 2013/11/27)

>  <Rbt.Parameter_File>
/export/apps/rDock/src/rDock_2013.1_src/data/scripts/dock_solv.prm

>  <Rbt.Receptor>
prm/pocket_docking_7.prm

>  <SCORE>
-20.4209

>  <SCORE.INTER>
-2.06633

>  <SCORE.INTER.CONST>
1

>  <SCORE.INTER.POLAR>
-0.890437

>  <SCORE.INTER.ROT>
15

>  <SCORE.INTER.SOLV>
9.99119

>  <SCORE.INTER.VDW>
-15.3398

>  <SCORE.INTER.norm>
-0.039737

>  <SCORE.INTRA>
-18.3546

>  <SCORE.INTRA.DIHEDRAL>
-39.2451

>  <SCORE.INTRA.DIHEDRAL.0>
47.8724

>  <SCORE.INTRA.POLAR>
0

>  <SCORE.INTRA.POLAR.0>
0

>  <SCORE.INTRA.REPUL>
0

>  <SCORE.INTRA.REPUL.0>
0

>  <SCORE.INTRA.SOLV>
-1.81497

>  <SCORE.INTRA.SOLV.lig_0>
-115.677

>  <SCORE.INTRA.VDW>
2.17544

>  <SCORE.INTRA.VDW.0>
-7.4833

>  <SCORE.INTRA.norm>
-0.352973

>  <SCORE.RESTR>
0

>  <SCORE.RESTR.CAVITY>
0

>  <SCORE.RESTR.norm>
0

>  <SCORE.SYSTEM>
0

>  <SCORE.SYSTEM.CONST>
0

>  <SCORE.SYSTEM.DIHEDRAL>
0

>  <SCORE.SYSTEM.SOLV>
0

>  <SCORE.SYSTEM.norm>
0

>  <SCORE.heavy>
52

>  <SCORE.norm>
-0.39271

>  <RMSD>
9.946

$$$$
2be0_lig
 OpenBabel11021811423D
libRbt.so/2013.1/901 2013/11/27
 52 56  0  0  0  0  0  0  0  0999 V2000
   43.6274    3.5775   -0.4355 C   0  0  2  0  0  0  0  0  0  0  0  0
   43.4755    4.6498   -1.3355 O   0  0  0  0  0  0  0  0  0  0  0  0
   42.6202    8.8529   -0.3491 C   0  0  2  0  0  0  0  0  0  0  0  0
   42.8123   10.2254    0.1976 N   0  0  0  0  0  0  0  0  0  0  0  0
   44.2533    6.9961   -4.3317 C   0  0  2  0  0  0  0  0  0  0  0  0
   43.5529    5.9376   -5.0168 O   0  0  0  0  0  0  0  0  0  0  0  0
   48.2937    5.5198   -6.0076 C   0  0  1  0  0  0  0  0  0  0  0  0
   45.1127    9.4368  -10.2785 C   0  0  0  0  0  0  0  0  0  0  0  0
   44.1764    2.2867   -1.1692 C   0  0  2  0  0  0  0  0  0  0  0  0
   45.4131    2.6109   -1.8833 N   0  0  0  0  0  0  0  0  0  0  0  0
   42.7893    7.7918    0.8315 C   0  0  0  0  0  0  0  0  0  0  0  0
   45.5939    7.1838   -5.0597 C   0  0  2  0  0  0  0  0  0  0  0  0
   45.2547    8.1115   -6.1830 O   0  0  0  0  0  0  0  0  0  0  0  0
   49.1198    5.6358   -7.4024 C   0  0  2  0  0  0  0  0  0  0  0  0
   48.8185    4.4309   -8.2408 N   0  0  0  0  0  0  0  0  0  0  0  0
   43.7142    9.2359  -10.5207 C   0  0  0  0  0  0  0  0  0  0  0  0
   43.0843    9.9063  -11.6019 N   0  0  0  0  0  0  0  0  0  0  0  0
   43.0540    1.7074   -2.1492 C   0  0  1  0  0  0  0  0  0  0  0  0
   43.5680    0.5568   -2.8018 O   0  0  0  0  0  0  0  0  0  0  0  0
   42.5996    6.2693    0.2695 C   0  0  2  0  0  0  0  0  0  0  0  0
   42.7472    5.3047    1.3227 N   0  0  0  0  0  0  0  0  0  0  0  0
   45.9097    5.7056   -5.3567 C   0  0  2  0  0  0  0  0  0  0  0  0
   46.8965    5.4426   -6.3433 O   0  0  0  0  0  0  0  0  0  0  0  0
   50.6375    5.7067   -7.0547 C   0  0  1  0  0  0  0  0  0  0  0  0
   50.8179    6.9266   -6.2507 O   0  0  0  0  0  0  0  0  0  0  0  0
   43.7792   10.7883  -12.4778 C   0  0  0  0  0  0  0  0  0  0  0  0
   41.7851    1.3792   -1.3099 C   0  0  2  0  0  0  0  0  0  0  0  0
   40.7032    0.8395   -2.1685 O   0  0  0  0  0  0  0  0  0  0  0  0
   43.6636    5.9800   -0.8680 C   0  0  2  0  0  0  0  0  0  0  0  0
   44.5226    5.1019   -5.6816 C   0  0  1  0  0  0  0  0  0  0  0  0
   51.0796    4.3821   -6.2206 C   0  0  2  0  0  0  0  0  0  0  0  0
   50.9017    3.1586   -7.0181 O   0  0  0  0  0  0  0  0  0  0  0  0
   45.1631   11.0250  -12.2884 C   0  0  0  0  0  0  0  0  0  0  0  0
   41.2539    2.6763   -0.5868 C   0  0  2  0  0  0  0  0  0  0  0  0
   42.3555    3.1570    0.2320 O   0  0  0  0  0  0  0  0  0  0  0  0
   43.4623    7.0528   -1.9939 C   0  0  2  0  0  0  0  0  0  0  0  0
   44.4479    6.6926   -2.9542 O   0  0  0  0  0  0  0  0  0  0  0  0
   44.3550    3.6911   -5.1199 C   0  0  0  0  0  0  0  0  0  0  0  0
   43.0324    3.2120   -5.0706 O   0  0  0  0  0  0  0  0  0  0  0  0
   50.2103    4.2814   -4.8838 C   0  0  1  0  0  0  0  0  0  0  0  0
   48.7442    4.2627   -5.2644 O   0  0  0  0  0  0  0  0  0  0  0  0
   45.8667   10.3499  -11.1734 C   0  0  0  0  0  0  0  0  0  0  0  0
   40.0715    2.3003    0.2047 C   0  0  0  0  0  0  0  0  0  0  0  0
   39.3696    3.3995    0.5079 O   0  0  0  0  0  0  0  0  0  0  0  0
   43.6835    8.5158   -1.4209 C   0  0  1  0  0  0  0  0  0  0  0  0
   43.4917    9.4547   -2.4275 O   0  0  0  0  0  0  0  0  0  0  0  0
   44.0391    8.1213   -7.0306 C   0  0  0  0  0  0  0  0  0  0  0  0
   50.6664    2.9980   -4.1379 C   0  0  0  0  0  0  0  0  0  0  0  0
   52.1019    2.9708   -4.0061 N   0  0  0  0  0  0  0  0  0  0  0  0
   44.1637    6.9541   -8.0152 C   0  0  0  0  0  0  0  0  0  0  0  0
   45.3347    7.1886   -8.9211 N   0  0  0  0  0  0  0  0  0  0  0  0
   45.7994    8.6643   -9.0489 C   0  0  0  0  0  0  0  0  0  0  0  0
  1  2  1  6  0  0  0
  1  9  1  0  0  0  0
  1 35  1  0  0  0  0
  3  4  1  1  0  0  0
  3 11  1  0  0  0  0
  3 45  1  0  0  0  0
  5  6  1  0  0  0  0
  5 12  1  0  0  0  0
  5 37  1  1  0  0  0
  6 30  1  0  0  0  0
  7 14  1  0  0  0  0
  7 41  1  0  0  0  0
  7 23  1  6  0  0  0
  8 16  2  0  0  0  0
  8 42  1  0  0  0  0
  9 10  1  6  0  0  0
  9 18  1  0  0  0  0
 11 20  1  0  0  0  0
 12 13  1  6  0  0  0
 12 22  1  0  0  0  0
 13 47  1  0  0  0  0
 14 15  1  6  0  0  0
 14 24  1  0  0  0  0
 16 17  1  0  0  0  0
 17 26  2  0  0  0  0
 18 19  1  1  0  0  0
 18 27  1  0  0  0  0
 20 21  1  1  0  0  0
 20 29  1  0  0  0  0
 22 23  1  6  0  0  0
 22 30  1  0  0  0  0
 24 25  1  1  0  0  0
 24 31  1  0  0  0  0
 26 33  1  0  0  0  0
 27 28  1  6  0  0  0
 27 34  1  0  0  0  0
 29  2  1  6  0  0  0
 29 36  1  0  0  0  0
 30 38  1  1  0  0  0
 31 32  1  6  0  0  0
 31 40  1  0  0  0  0
 33 42  2  0  0  0  0
 34 35  1  0  0  0  0
 34 43  1  1  0  0  0
 36 37  1  6  0  0  0
 36 45  1  0  0  0  0
 38 39  1  0  0  0  0
 40 41  1  0  0  0  0
 40 48  1  6  0  0  0
 43 44  1  0  0  0  0
 45 46  1  6  0  0  0
 47 50  1  0  0  0  0
 48 49  1  0  0  0  0
 50 51  1  0  0  0  0
 51 52  1  0  0  0  0
 52  8  1  0  0  0  0
M  END
>  <CHROM.1>
-148.30899266,-88.83174223,-162.43321252,-39.54575140,-75.19611819,80.60262728
-60.90165487,48.13669812,-161.96156829,152.35340173,50.62441989,-64.16437074
-21.57045159,-92.37286342,42.08997974,45.02433424,5.68164289,-4.49175917
-2.10068993,0.49452004,-0.87528011

>  <Name>
2be0_lig

>  <RI>
2.10017e+07

>  <Rbt.Current_Directory>
/home/itssahil/PROJECTS/Mol_Feturizer/New_Systems/rnas/2be0

>  <Rbt.Executable>
rbdock ($Id: //depot/dev/client3/rdock/2013.1/src/exe/rbdock.cxx#4 $)

>  <Rbt.Library>
libRbt.so (2013.1, Build901 2013/11/27)

>  <Rbt.Parameter_File>
/export/apps/rDock/src/rDock_2013.1_src/data/scripts/dock_solv.prm

>  <Rbt.Receptor>
prm/pocket_docking_3.prm

>  <SCORE>
-32.9215

>  <SCORE.INTER>
-29.2183

>  <SCORE.INTER.CONST>
1

>  <SCORE.INTER.POLAR>
-3.01805

>  <SCORE.INTER.ROT>
15

>  <SCORE.INTER.SOLV>
22.4217

>  <SCORE.INTER.VDW>
-30.4926

>  <SCORE.INTER.norm>
-0.561889

>  <SCORE.INTRA>
-4.72803

>  <SCORE.INTRA.DIHEDRAL>
-26.7095

>  <SCORE.INTRA.DIHEDRAL.0>
47.8724

>  <SCORE.INTRA.POLAR>
0

>  <SCORE.INTRA.POLAR.0>
0

>  <SCORE.INTRA.REPUL>
0

>  <SCORE.INTRA.REPUL.0>
0

>  <SCORE.INTRA.SOLV>
1.97783

>  <SCORE.INTRA.SOLV.lig_0>
-115.677

>  <SCORE.INTRA.VDW>
7.63781

>  <SCORE.INTRA.VDW.0>
-7.4833

>  <SCORE.INTRA.norm>
-0.0909237

>  <SCORE.RESTR>
1.02478

>  <SCORE.RESTR.CAVITY>
1.02478

>  <SCORE.RESTR.norm>
0.0197073

>  <SCORE.SYSTEM>
0

>  <SCORE.SYSTEM.CONST>
0

>  <SCORE.SYSTEM.DIHEDRAL>
0

>  <SCORE.SYSTEM.SOLV>
0

>  <SCORE.SYSTEM.norm>
0

>  <SCORE.heavy>
52

>  <SCORE.norm>
-0.633106

>  <RMSD>
9.952

$$$$
2be0_lig
 OpenBabel11021811423D
libRbt.so/2013.1/901 2013/11/27
 52 56  0  0  0  0  0  0  0  0999 V2000
   41.5400    8.9235   -3.3898 C   0  0  2  0  0  0  0  0  0  0  0  0
   42.8030    8.3037   -3.4483 O   0  0  0  0  0  0  0  0  0  0  0  0
   44.5022    4.2451   -3.5546 C   0  0  2  0  0  0  0  0  0  0  0  0
   44.5796    2.7610   -3.4500 N   0  0  0  0  0  0  0  0  0  0  0  0
   42.8594    7.6300   -6.7202 C   0  0  2  0  0  0  0  0  0  0  0  0
   42.8587    7.0149   -8.0248 O   0  0  0  0  0  0  0  0  0  0  0  0
   47.3889    6.1975   -7.4814 C   0  0  1  0  0  0  0  0  0  0  0  0
   48.5161   11.7972   -9.9278 C   0  0  0  0  0  0  0  0  0  0  0  0
   41.2985    9.6007   -1.9795 C   0  0  2  0  0  0  0  0  0  0  0  0
   42.3984   10.5186   -1.6758 N   0  0  0  0  0  0  0  0  0  0  0  0
   43.9872    4.8408   -2.1660 C   0  0  0  0  0  0  0  0  0  0  0  0
   44.2801    8.1669   -6.4843 C   0  0  2  0  0  0  0  0  0  0  0  0
   44.2583    9.5123   -7.1378 O   0  0  0  0  0  0  0  0  0  0  0  0
   46.9609    5.1414   -6.3226 C   0  0  2  0  0  0  0  0  0  0  0  0
   46.9667    5.8493   -5.0017 N   0  0  0  0  0  0  0  0  0  0  0  0
   48.4161   10.4037  -10.2486 C   0  0  0  0  0  0  0  0  0  0  0  0
   49.4659    9.7695  -10.9633 N   0  0  0  0  0  0  0  0  0  0  0  0
   41.1368    8.4699   -0.8611 C   0  0  1  0  0  0  0  0  0  0  0  0
   40.9291    9.0970    0.3950 O   0  0  0  0  0  0  0  0  0  0  0  0
   43.8746    6.4690   -2.2436 C   0  0  2  0  0  0  0  0  0  0  0  0
   43.4142    7.0177   -0.9993 N   0  0  0  0  0  0  0  0  0  0  0  0
   45.0767    7.0163   -7.1279 C   0  0  2  0  0  0  0  0  0  0  0  0
   46.4350    7.2744   -7.4521 O   0  0  0  0  0  0  0  0  0  0  0  0
   47.9943    3.9748   -6.3334 C   0  0  1  0  0  0  0  0  0  0  0  0
   47.8906    3.3469   -7.6609 O   0  0  0  0  0  0  0  0  0  0  0  0
   50.6382   10.4561  -11.3905 C   0  0  0  0  0  0  0  0  0  0  0  0
   39.9437    7.5512   -1.2544 C   0  0  2  0  0  0  0  0  0  0  0  0
   39.7462    6.4760   -0.2524 O   0  0  0  0  0  0  0  0  0  0  0  0
   42.8819    6.8841   -3.4063 C   0  0  2  0  0  0  0  0  0  0  0  0
   44.2077    6.6161   -8.3439 C   0  0  1  0  0  0  0  0  0  0  0  0
   49.4914    4.5552   -6.0729 C   0  0  2  0  0  0  0  0  0  0  0  0
   49.6024    5.1847   -4.7478 O   0  0  0  0  0  0  0  0  0  0  0  0
   50.7934   11.8342  -11.1012 C   0  0  0  0  0  0  0  0  0  0  0  0
   40.2024    6.8868   -2.6612 C   0  0  2  0  0  0  0  0  0  0  0  0
   40.3910    7.9863   -3.5940 O   0  0  0  0  0  0  0  0  0  0  0  0
   43.4257    6.2669   -4.7414 C   0  0  2  0  0  0  0  0  0  0  0  0
   42.4764    6.7088   -5.7041 O   0  0  0  0  0  0  0  0  0  0  0  0
   44.1839    5.1056   -8.5715 C   0  0  0  0  0  0  0  0  0  0  0  0
   43.1693    4.6380   -9.4277 O   0  0  0  0  0  0  0  0  0  0  0  0
   49.8515    5.6233   -7.2053 C   0  0  1  0  0  0  0  0  0  0  0  0
   48.7983    6.7121   -7.1911 O   0  0  0  0  0  0  0  0  0  0  0  0
   49.7253   12.5424  -10.3582 C   0  0  0  0  0  0  0  0  0  0  0  0
   39.0360    6.0506   -2.9874 C   0  0  0  0  0  0  0  0  0  0  0  0
   38.8287    5.1695   -2.0008 O   0  0  0  0  0  0  0  0  0  0  0  0
   43.4931    4.6849   -4.6417 C   0  0  1  0  0  0  0  0  0  0  0  0
   43.9863    4.1543   -5.8277 O   0  0  0  0  0  0  0  0  0  0  0  0
   44.5080    9.8465   -8.5599 C   0  0  0  0  0  0  0  0  0  0  0  0
   51.2805    6.1487   -6.8998 C   0  0  0  0  0  0  0  0  0  0  0  0
   52.2418    5.0767   -6.9741 N   0  0  0  0  0  0  0  0  0  0  0  0
   45.9548   10.3400   -8.6621 C   0  0  0  0  0  0  0  0  0  0  0  0
   45.9710   11.7200   -9.2471 N   0  0  0  0  0  0  0  0  0  0  0  0
   47.3138   12.4883   -9.1170 C   0  0  0  0  0  0  0  0  0  0  0  0
  1  2  1  1  0  0  0
  1  9  1  0  0  0  0
  1 35  1  0  0  0  0
  3  4  1  1  0  0  0
  3 11  1  0  0  0  0
  3 45  1  0  0  0  0
  5  6  1  0  0  0  0
  5 12  1  0  0  0  0
  5 37  1  1  0  0  0
  6 30  1  0  0  0  0
  7 14  1  0  0  0  0
  7 41  1  0  0  0  0
  7 23  1  1  0  0  0
  8 16  2  0  0  0  0
  8 42  1  0  0  0  0
  9 10  1  1  0  0  0
  9 18  1  0  0  0  0
 11 20  1  0  0  0  0
 12 13  1  6  0  0  0
 12 22  1  0  0  0  0
 13 47  1  0  0  0  0
 14 15  1  1  0  0  0
 14 24  1  0  0  0  0
 16 17  1  0  0  0  0
 17 26  2  0  0  0  0
 18 19  1  1  0  0  0
 18 27  1  0  0  0  0
 20 21  1  1  0  0  0
 20 29  1  0  0  0  0
 22 23  1  6  0  0  0
 22 30  1  0  0  0  0
 24 25  1  6  0  0  0
 24 31  1  0  0  0  0
 26 33  1  0  0  0  0
 27 28  1  1  0  0  0
 27 34  1  0  0  0  0
 29  2  1  6  0  0  0
 29 36  1  0  0  0  0
 30 38  1  1  0  0  0
 31 32  1  1  0  0  0
 31 40  1  0  0  0  0
 33 42  2  0  0  0  0
 34 35  1  0  0  0  0
 34 43  1  6  0  0  0
 36 37  1  6  0  0  0
 36 45  1  0  0  0  0
 38 39  1  0  0  0  0
 40 41  1  0  0  0  0
 40 48  1  1  0  0  0
 43 44  1  0  0  0  0
 45 46  1  6  0  0  0
 47 50  1  0  0  0  0
 48 49  1  0  0  0  0
 50 51  1  0  0  0  0
 51 52  1  0  0  0  0
 52  8  1  0  0  0  0
M  END
>  <CHROM.1>
106.59636476,111.46920741,-34.26648303,-85.67861234,-99.35031298,152.33235952
-126.45926251,48.39615136,-55.54469696,113.37296017,62.44852054,-122.61007300
166.46858176,64.23433080,-22.13075769,44.97294954,7.28361971,-5.75572223
2.67189653,-0.58990865,2.65313921

>  <Name>
2be0_lig

>  <RI>
224

>  <Rbt.Current_Directory>
/home/itssahil/PROJECTS/Mol_Feturizer/New_Systems/rnas/2be0

>  <Rbt.Executable>
rbdock ($Id: //depot/dev/client3/rdock/2013.1/src/exe/rbdock.cxx#4 $)

>  <Rbt.Library>
libRbt.so (2013.1, Build901 2013/11/27)

>  <Rbt.Parameter_File>
/export/apps/rDock/src/rDock_2013.1_src/data/scripts/dock_solv.prm

>  <Rbt.Receptor>
prm/blind_docking_100.prm

>  <SCORE>
11.201

>  <SCORE.INTER>
-12.2387

>  <SCORE.INTER.CONST>
1

>  <SCORE.INTER.POLAR>
-1.28016

>  <SCORE.INTER.ROT>
15

>  <SCORE.INTER.SOLV>
22.153

>  <SCORE.INTER.VDW>
-24.8763

>  <SCORE.INTER.norm>
-0.23536

>  <SCORE.INTRA>
9.3916

>  <SCORE.INTRA.DIHEDRAL>
0.417026

>  <SCORE.INTRA.DIHEDRAL.0>
47.8724

>  <SCORE.INTRA.POLAR>
0

>  <SCORE.INTRA.POLAR.0>
0

>  <SCORE.INTRA.REPUL>
0

>  <SCORE.INTRA.REPUL.0>
0

>  <SCORE.INTRA.SOLV>
6.40224

>  <SCORE.INTRA.SOLV.lig_0>
-115.677

>  <SCORE.INTRA.VDW>
5.98196

>  <SCORE.INTRA.VDW.0>
-7.4833

>  <SCORE.INTRA.norm>
0.180608

>  <SCORE.RESTR>
14.0481

>  <SCORE.RESTR.CAVITY>
14.0481

>  <SCORE.RESTR.norm>
0.270156

>  <SCORE.SYSTEM>
0

>  <SCORE.SYSTEM.CONST>
0

>  <SCORE.SYSTEM.DIHEDRAL>
0

>  <SCORE.SYSTEM.SOLV>
0

>  <SCORE.SYSTEM.norm>
0

>  <SCORE.heavy>
52

>  <SCORE.norm>
0.215404

>  <RMSD>
9.960

$$$$
2be0_lig
 OpenBabel11021811423D
libRbt.so/2013.1/901 2013/11/27
 52 56  0  0  0  0  0  0  0  0999 V2000
   43.0568    4.4415   -2.4481 C   0  0  2  0  0  0  0  0  0  0  0  0
   44.0914    3.4865   -2.4286 O   0  0  0  0  0  0  0  0  0  0  0  0
   44.3586   -0.4483   -4.3822 C   0  0  2  0  0  0  0  0  0  0  0  0
   44.0752   -1.8797   -4.6828 N   0  0  0  0  0  0  0  0  0  0  0  0
   42.1230    3.5764   -5.6071 C   0  0  2  0  0  0  0  0  0  0  0  0
   40.8729    4.2958   -5.5976 O   0  0  0  0  0  0  0  0  0  0  0  0
   40.3902    0.3790   -8.4334 C   0  0  1  0  0  0  0  0  0  0  0  0
   43.9544    9.2671   -9.7892 C   0  0  0  0  0  0  0  0  0  0  0  0
   43.5870    5.8699   -2.0187 C   0  0  2  0  0  0  0  0  0  0  0  0
   44.7271    6.2476   -2.8566 N   0  0  0  0  0  0  0  0  0  0  0  0
   44.7710   -0.3085   -2.8464 C   0  0  0  0  0  0  0  0  0  0  0  0
   42.1197    2.6993   -6.8693 C   0  0  2  0  0  0  0  0  0  0  0  0
   42.6213    3.6200   -7.9361 O   0  0  0  0  0  0  0  0  0  0  0  0
   39.4230    0.0114   -9.6867 C   0  0  2  0  0  0  0  0  0  0  0  0
   37.9970    0.1881   -9.2610 N   0  0  0  0  0  0  0  0  0  0  0  0
   43.4432    9.2582  -11.1283 C   0  0  0  0  0  0  0  0  0  0  0  0
   43.7748   10.3161  -12.0148 N   0  0  0  0  0  0  0  0  0  0  0  0
   43.9641    5.8585   -0.4652 C   0  0  1  0  0  0  0  0  0  0  0  0
   44.4436    7.1441   -0.1028 O   0  0  0  0  0  0  0  0  0  0  0  0
   45.0771    1.2522   -2.4716 C   0  0  2  0  0  0  0  0  0  0  0  0
   45.4516    1.3913   -1.0925 N   0  0  0  0  0  0  0  0  0  0  0  0
   40.6387    2.2757   -6.8580 C   0  0  2  0  0  0  0  0  0  0  0  0
   40.1115    1.7414   -8.0634 O   0  0  0  0  0  0  0  0  0  0  0  0
   39.7043   -1.4675  -10.0902 C   0  0  1  0  0  0  0  0  0  0  0  0
   41.1167   -1.5190  -10.5022 O   0  0  0  0  0  0  0  0  0  0  0  0
   44.6041   11.4112  -11.6391 C   0  0  0  0  0  0  0  0  0  0  0  0
   42.6983    5.4616    0.3488 C   0  0  2  0  0  0  0  0  0  0  0  0
   42.9881    5.4299    1.8028 O   0  0  0  0  0  0  0  0  0  0  0  0
   43.7960    2.1365   -2.7654 C   0  0  2  0  0  0  0  0  0  0  0  0
   39.9072    3.5463   -6.3634 C   0  0  1  0  0  0  0  0  0  0  0  0
   39.4243   -2.4520   -8.8260 C   0  0  2  0  0  0  0  0  0  0  0  0
   38.0144   -2.4054   -8.4085 O   0  0  0  0  0  0  0  0  0  0  0  0
   45.1394   11.4737  -10.3289 C   0  0  0  0  0  0  0  0  0  0  0  0
   42.1853    4.0372   -0.0932 C   0  0  2  0  0  0  0  0  0  0  0  0
   41.9236    4.1317   -1.5206 O   0  0  0  0  0  0  0  0  0  0  0  0
   43.4279    1.9555   -4.2789 C   0  0  2  0  0  0  0  0  0  0  0  0
   42.2879    2.7927   -4.4298 O   0  0  0  0  0  0  0  0  0  0  0  0
   38.7473    3.2224   -5.4234 C   0  0  0  0  0  0  0  0  0  0  0  0
   37.7532    2.3801   -5.9559 O   0  0  0  0  0  0  0  0  0  0  0  0
   40.3596   -2.0251   -7.6030 C   0  0  1  0  0  0  0  0  0  0  0  0
   40.0881   -0.5713   -7.2752 O   0  0  0  0  0  0  0  0  0  0  0  0
   44.8222   10.3942   -9.3654 C   0  0  0  0  0  0  0  0  0  0  0  0
   40.9798    3.7273    0.6923 C   0  0  0  0  0  0  0  0  0  0  0  0
   39.9421    4.4223    0.2099 O   0  0  0  0  0  0  0  0  0  0  0  0
   43.1075    0.4351   -4.6006 C   0  0  1  0  0  0  0  0  0  0  0  0
   42.7936    0.2898   -5.9466 O   0  0  0  0  0  0  0  0  0  0  0  0
   41.9805    4.8466   -8.4662 C   0  0  0  0  0  0  0  0  0  0  0  0
   40.0418   -2.9882   -6.4270 C   0  0  0  0  0  0  0  0  0  0  0  0
   38.8150   -2.6044   -5.7741 N   0  0  0  0  0  0  0  0  0  0  0  0
   43.0308    5.5793   -9.3073 C   0  0  0  0  0  0  0  0  0  0  0  0
   42.6258    7.0129   -9.4728 N   0  0  0  0  0  0  0  0  0  0  0  0
   43.5639    8.0563   -8.8084 C   0  0  0  0  0  0  0  0  0  0  0  0
  1  2  1  1  0  0  0
  1  9  1  0  0  0  0
  1 35  1  0  0  0  0
  3  4  1  1  0  0  0
  3 11  1  0  0  0  0
  3 45  1  0  0  0  0
  5  6  1  0  0  0  0
  5 12  1  0  0  0  0
  5 37  1  1  0  0  0
  6 30  1  0  0  0  0
  7 14  1  0  0  0  0
  7 41  1  0  0  0  0
  7 23  1  1  0  0  0
  8 16  2  0  0  0  0
  8 42  1  0  0  0  0
  9 10  1  6  0  0  0
  9 18  1  0  0  0  0
 11 20  1  0  0  0  0
 12 13  1  6  0  0  0
 12 22  1  0  0  0  0
 13 47  1  0  0  0  0
 14 15  1  1  0  0  0
 14 24  1  0  0  0  0
 16 17  1  0  0  0  0
 17 26  2  0  0  0  0
 18 19  1  1  0  0  0
 18 27  1  0  0  0  0
 20 21  1  1  0  0  0
 20 29  1  0  0  0  0
 22 23  1  6  0  0  0
 22 30  1  0  0  0  0
 24 25  1  1  0  0  0
 24 31  1  0  0  0  0
 26 33  1  0  0  0  0
 27 28  1  1  0  0  0
 27 34  1  0  0  0  0
 29  2  1  6  0  0  0
 29 36  1  0  0  0  0
 30 38  1  1  0  0  0
 31 32  1  1  0  0  0
 31 40  1  0  0  0  0
 33 42  2  0  0  0  0
 34 35  1  0  0  0  0
 34 43  1  1  0  0  0
 36 37  1  1  0  0  0
 36 45  1  0  0  0  0
 38 39  1  0  0  0  0
 40 41  1  0  0  0  0
 40 48  1  1  0  0  0
 43 44  1  0  0  0  0
 45 46  1  6  0  0  0
 47 50  1  0  0  0  0
 48 49  1  0  0  0  0
 50 51  1  0  0  0  0
 51 52  1  0  0  0  0
 52  8  1  0  0  0  0
M  END
>  <CHROM.1>
178.96248116,176.82945101,169.37424951,-65.00526453,167.66989947,78.30748033
-172.32949215,-174.22233015,75.93334299,140.48934774,-78.14319197,-160.57922000
114.81300623,131.82174344,-1.02071718,42.08781607,3.16766507,-5.66920413
-0.46789248,1.17055812,2.02691793

>  <Name>
2be0_lig

>  <RI>
0

>  <Rbt.Current_Directory>
/home/itssahil/PROJECTS/Mol_Feturizer/New_Systems/rnas/2be0

>  <Rbt.Executable>
rbdock ($Id: //depot/dev/client3/rdock/2013.1/src/exe/rbdock.cxx#4 $)

>  <Rbt.Library>
libRbt.so (2013.1, Build901 2013/11/27)

>  <Rbt.Parameter_File>
/export/apps/rDock/src/rDock_2013.1_src/data/scripts/dock_solv.prm

>  <Rbt.Receptor>
prm/pocket_docking_4.prm

>  <SCORE>
-25.0692

>  <SCORE.INTER>
-10.7371

>  <SCORE.INTER.CONST>
1

>  <SCORE.INTER.POLAR>
-0.89405

>  <SCORE.INTER.ROT>
15

>  <SCORE.INTER.SOLV>
19.452

>  <SCORE.INTER.VDW>
-24.2619

>  <SCORE.INTER.norm>
-0.206483

>  <SCORE.INTRA>
-14.3818

>  <SCORE.INTRA.DIHEDRAL>
-32.4563

>  <SCORE.INTRA.DIHEDRAL.0>
47.8724

>  <SCORE.INTRA.POLAR>
0

>  <SCORE.INTRA.POLAR.0>
0

>  <SCORE.INTRA.REPUL>
0

>  <SCORE.INTRA.REPUL.0>
0

>  <SCORE.INTRA.SOLV>
-1.78725

>  <SCORE.INTRA.SOLV.lig_0>
-115.677

>  <SCORE.INTRA.VDW>
2.74002

>  <SCORE.INTRA.VDW.0>
-7.4833

>  <SCORE.INTRA.norm>
-0.276572

>  <SCORE.RESTR>
0.0496936

>  <SCORE.RESTR.CAVITY>
0.0496936

>  <SCORE.RESTR.norm>
0.000955646

>  <SCORE.SYSTEM>
0

>  <SCORE.SYSTEM.CONST>
0

>  <SCORE.SYSTEM.DIHEDRAL>
0

>  <SCORE.SYSTEM.SOLV>
0

>  <SCORE.SYSTEM.norm>
0

>  <SCORE.heavy>
52

>  <SCORE.norm>
-0.4821

>  <RMSD>
9.970

$$$$
2be0_lig
 OpenBabel11021811423D
libRbt.so/2013.1/901 2013/11/27
 52 56  0  0  0  0  0  0  0  0999 V2000
   41.3732   -0.7408   -6.3917 C   0  0  2  0  0  0  0  0  0  0  0  0
   41.1183   -1.9740   -7.0219 O   0  0  0  0  0  0  0  0  0  0  0  0
   37.7436   -4.7560   -6.5292 C   0  0  2  0  0  0  0  0  0  0  0  0
   36.8431   -5.7599   -5.8961 N   0  0  0  0  0  0  0  0  0  0  0  0
   37.6392   -0.4549   -5.3207 C   0  0  2  0  0  0  0  0  0  0  0  0
   36.7979   -0.2109   -6.4666 O   0  0  0  0  0  0  0  0  0  0  0  0
   39.1278    3.8371   -5.1960 C   0  0  1  0  0  0  0  0  0  0  0  0
   38.5317    3.3549    1.9103 C   0  0  0  0  0  0  0  0  0  0  0  0
   42.4714    0.0872   -7.1755 C   0  0  2  0  0  0  0  0  0  0  0  0
   42.0738    0.2350   -8.5771 N   0  0  0  0  0  0  0  0  0  0  0  0
   39.2331   -5.3299   -6.5503 C   0  0  0  0  0  0  0  0  0  0  0  0
   37.9694    0.9179   -4.7133 C   0  0  2  0  0  0  0  0  0  0  0  0
   36.8024    1.1945   -3.8195 O   0  0  0  0  0  0  0  0  0  0  0  0
   38.8055    5.4250   -5.3215 C   0  0  2  0  0  0  0  0  0  0  0  0
   38.7931    5.7996   -6.7724 N   0  0  0  0  0  0  0  0  0  0  0  0
   39.0149    4.5699    2.4979 C   0  0  0  0  0  0  0  0  0  0  0  0
   38.7702    4.8328    3.8712 N   0  0  0  0  0  0  0  0  0  0  0  0
   43.8921   -0.6311   -7.0291 C   0  0  1  0  0  0  0  0  0  0  0  0
   44.8597    0.1218   -7.7441 O   0  0  0  0  0  0  0  0  0  0  0  0
   40.2571   -4.2505   -7.2257 C   0  0  2  0  0  0  0  0  0  0  0  0
   41.6007   -4.7559   -7.2528 N   0  0  0  0  0  0  0  0  0  0  0  0
   38.1405    1.7180   -6.0184 C   0  0  2  0  0  0  0  0  0  0  0  0
   38.1000    3.1339   -5.9170 O   0  0  0  0  0  0  0  0  0  0  0  0
   39.9194    6.2010   -4.5558 C   0  0  1  0  0  0  0  0  0  0  0  0
   39.8282    5.7702   -3.1510 O   0  0  0  0  0  0  0  0  0  0  0  0
   38.0539    3.9379    4.7163 C   0  0  0  0  0  0  0  0  0  0  0  0
   44.2411   -0.7349   -5.5160 C   0  0  2  0  0  0  0  0  0  0  0  0
   45.5518   -1.3989   -5.3157 O   0  0  0  0  0  0  0  0  0  0  0  0
   40.2176   -2.8913   -6.4130 C   0  0  2  0  0  0  0  0  0  0  0  0
   37.0534    1.1252   -6.9463 C   0  0  1  0  0  0  0  0  0  0  0  0
   41.3769    5.8477   -5.1857 C   0  0  2  0  0  0  0  0  0  0  0  0
   41.4751    6.2752   -6.5900 O   0  0  0  0  0  0  0  0  0  0  0  0
   37.5532    2.7209    4.1918 C   0  0  0  0  0  0  0  0  0  0  0  0
   43.1362   -1.5621   -4.7528 C   0  0  2  0  0  0  0  0  0  0  0  0
   41.8812   -0.8664   -4.9895 O   0  0  0  0  0  0  0  0  0  0  0  0
   38.7360   -2.3776   -6.4136 C   0  0  2  0  0  0  0  0  0  0  0  0
   38.8216   -1.1635   -5.6775 O   0  0  0  0  0  0  0  0  0  0  0  0
   37.5286    0.9963   -8.3926 C   0  0  0  0  0  0  0  0  0  0  0  0
   36.6219    0.3800   -9.2753 O   0  0  0  0  0  0  0  0  0  0  0  0
   41.6313    4.2735   -5.0859 C   0  0  1  0  0  0  0  0  0  0  0  0
   40.5034    3.5583   -5.8007 O   0  0  0  0  0  0  0  0  0  0  0  0
   37.7814    2.4001    2.7638 C   0  0  0  0  0  0  0  0  0  0  0  0
   43.5081   -1.6074   -3.3296 C   0  0  0  0  0  0  0  0  0  0  0  0
   42.5558   -2.2476   -2.6397 O   0  0  0  0  0  0  0  0  0  0  0  0
   37.7752   -3.4354   -5.7240 C   0  0  1  0  0  0  0  0  0  0  0  0
   36.4656   -2.9706   -5.7417 O   0  0  0  0  0  0  0  0  0  0  0  0
   36.7510    1.1586   -2.3388 C   0  0  0  0  0  0  0  0  0  0  0  0
   43.0260    3.9957   -5.7096 C   0  0  0  0  0  0  0  0  0  0  0  0
   44.0570    4.6852   -4.9744 N   0  0  0  0  0  0  0  0  0  0  0  0
   37.8075    2.1419   -1.8247 C   0  0  0  0  0  0  0  0  0  0  0  0
   37.7280    2.2232   -0.3301 N   0  0  0  0  0  0  0  0  0  0  0  0
   38.8244    3.0831    0.3545 C   0  0  0  0  0  0  0  0  0  0  0  0
  1  2  1  6  0  0  0
  1  9  1  0  0  0  0
  1 35  1  0  0  0  0
  3  4  1  1  0  0  0
  3 11  1  0  0  0  0
  3 45  1  0  0  0  0
  5  6  1  0  0  0  0
  5 12  1  0  0  0  0
  5 37  1  6  0  0  0
  6 30  1  0  0  0  0
  7 14  1  0  0  0  0
  7 41  1  0  0  0  0
  7 23  1  6  0  0  0
  8 16  2  0  0  0  0
  8 42  1  0  0  0  0
  9 10  1  6  0  0  0
  9 18  1  0  0  0  0
 11 20  1  0  0  0  0
 12 13  1  1  0  0  0
 12 22  1  0  0  0  0
 13 47  1  0  0  0  0
 14 15  1  6  0  0  0
 14 24  1  0  0  0  0
 16 17  1  0  0  0  0
 17 26  2  0  0  0  0
 18 19  1  6  0  0  0
 18 27  1  0  0  0  0
 20 21  1  1  0  0  0
 20 29  1  0  0  0  0
 22 23  1  1  0  0  0
 22 30  1  0  0  0  0
 24 25  1  1  0  0  0
 24 31  1  0  0  0  0
 26 33  1  0  0  0  0
 27 28  1  6  0  0  0
 27 34  1  0  0  0  0
 29  2  1  6  0  0  0
 29 36  1  0  0  0  0
 30 38  1  6  0  0  0
 31 32  1  6  0  0  0
 31 40  1  0  0  0  0
 33 42  2  0  0  0  0
 34 35  1  0  0  0  0
 34 43  1  1  0  0  0
 36 37  1  1  0  0  0
 36 45  1  0  0  0  0
 38 39  1  0  0  0  0
 40 41  1  0  0  0  0
 40 48  1  6  0  0  0
 43 44  1  0  0  0  0
 45 46  1  6  0  0  0
 47 50  1  0  0  0  0
 48 49  1  0  0  0  0
 50 51  1  0  0  0  0
 51 52  1  0  0  0  0
 52  8  1  0  0  0  0
M  END
>  <CHROM.1>
176.13845919,-52.52030323,178.07781648,106.82880202,57.56714818,65.47282532
-172.94744328,59.62266946,176.98933240,-172.85246196,61.34754086,175.74049495
174.60996423,169.31036536,-150.15568671,39.83154064,0.86680644,-4.55914535
-1.27653781,0.94568543,0.59195955

>  <Name>
2be0_lig

>  <RI>
0

>  <Rbt.Current_Directory>
/home/itssahil/PROJECTS/Mol_Feturizer/New_Systems/rnas/2be0

>  <Rbt.Executable>
rbdock ($Id: //depot/dev/client3/rdock/2013.1/src/exe/rbdock.cxx#4 $)

>  <Rbt.Library>
libRbt.so (2013.1, Build901 2013/11/27)

>  <Rbt.Parameter_File>
/export/apps/rDock/src/rDock_2013.1_src/data/scripts/dock_solv.prm

>  <Rbt.Receptor>
prm/pocket_docking_7.prm

>  <SCORE>
-23.3332

>  <SCORE.INTER>
-3.37924

>  <SCORE.INTER.CONST>
1

>  <SCORE.INTER.POLAR>
0

>  <SCORE.INTER.ROT>
15

>  <SCORE.INTER.SOLV>
12.9576

>  <SCORE.INTER.VDW>
-20.172

>  <SCORE.INTER.norm>
-0.0649854

>  <SCORE.INTRA>
-19.9539

>  <SCORE.INTRA.DIHEDRAL>
-39.766

>  <SCORE.INTRA.DIHEDRAL.0>
47.8724

>  <SCORE.INTRA.POLAR>
0

>  <SCORE.INTRA.POLAR.0>
0

>  <SCORE.INTRA.REPUL>
0

>  <SCORE.INTRA.REPUL.0>
0

>  <SCORE.INTRA.SOLV>
-4.51567

>  <SCORE.INTRA.SOLV.lig_0>
-115.677

>  <SCORE.INTRA.VDW>
2.18689

>  <SCORE.INTRA.VDW.0>
-7.4833

>  <SCORE.INTRA.norm>
-0.38373

>  <SCORE.RESTR>
0

>  <SCORE.RESTR.CAVITY>
0

>  <SCORE.RESTR.norm>
0

>  <SCORE.SYSTEM>
0

>  <SCORE.SYSTEM.CONST>
0

>  <SCORE.SYSTEM.DIHEDRAL>
0

>  <SCORE.SYSTEM.SOLV>
0

>  <SCORE.SYSTEM.norm>
0

>  <SCORE.heavy>
52

>  <SCORE.norm>
-0.448715

>  <RMSD>
9.972

$$$$
2be0_lig
 OpenBabel11021811423D
libRbt.so/2013.1/901 2013/11/27
 52 56  0  0  0  0  0  0  0  0999 V2000
   43.3616    6.6633    1.0158 C   0  0  2  0  0  0  0  0  0  0  0  0
   43.8952    6.6686   -0.2873 O   0  0  0  0  0  0  0  0  0  0  0  0
   41.3801    9.6349   -2.3481 C   0  0  2  0  0  0  0  0  0  0  0  0
   40.9988   10.7473   -3.2628 N   0  0  0  0  0  0  0  0  0  0  0  0
   43.4295    6.2840   -4.1352 C   0  0  2  0  0  0  0  0  0  0  0  0
   43.5706    5.0146   -4.8054 O   0  0  0  0  0  0  0  0  0  0  0  0
   47.5375    6.0980   -5.3808 C   0  0  1  0  0  0  0  0  0  0  0  0
   45.9437   10.4198   -9.8231 C   0  0  0  0  0  0  0  0  0  0  0  0
   42.9906    5.1953    1.4774 C   0  0  2  0  0  0  0  0  0  0  0  0
   44.1573    4.3216    1.3357 N   0  0  0  0  0  0  0  0  0  0  0  0
   42.5376   10.1362   -1.3698 C   0  0  0  0  0  0  0  0  0  0  0  0
   44.8271    6.9225   -4.0970 C   0  0  2  0  0  0  0  0  0  0  0  0
   44.9322    7.6128   -5.4198 O   0  0  0  0  0  0  0  0  0  0  0  0
   46.8416    5.0932   -6.4519 C   0  0  2  0  0  0  0  0  0  0  0  0
   47.2115    3.6844   -6.0996 N   0  0  0  0  0  0  0  0  0  0  0  0
   46.9436   10.8097  -10.7733 C   0  0  0  0  0  0  0  0  0  0  0  0
   46.5622   11.1394  -12.1003 N   0  0  0  0  0  0  0  0  0  0  0  0
   41.7408    4.6661    0.6326 C   0  0  1  0  0  0  0  0  0  0  0  0
   41.4295    3.3477    1.0558 O   0  0  0  0  0  0  0  0  0  0  0  0
   42.9955    8.9383   -0.3572 C   0  0  2  0  0  0  0  0  0  0  0  0
   44.0353    9.3773    0.5302 N   0  0  0  0  0  0  0  0  0  0  0  0
   45.6583    5.6540   -3.8274 C   0  0  2  0  0  0  0  0  0  0  0  0
   47.0543    5.7329   -4.0755 O   0  0  0  0  0  0  0  0  0  0  0  0
   47.3666    5.4684   -7.8706 C   0  0  1  0  0  0  0  0  0  0  0  0
   46.9349    6.8545   -8.1147 O   0  0  0  0  0  0  0  0  0  0  0  0
   45.2117   11.1018  -12.5508 C   0  0  0  0  0  0  0  0  0  0  0  0
   40.5475    5.6413    0.8498 C   0  0  2  0  0  0  0  0  0  0  0  0
   39.3551    5.2031    0.0848 O   0  0  0  0  0  0  0  0  0  0  0  0
   43.5027    7.6922   -1.1936 C   0  0  2  0  0  0  0  0  0  0  0  0
   44.9346    4.5687   -4.6594 C   0  0  1  0  0  0  0  0  0  0  0  0
   48.9876    5.3408   -7.9156 C   0  0  2  0  0  0  0  0  0  0  0  0
   49.4264    3.9579   -7.6720 O   0  0  0  0  0  0  0  0  0  0  0  0
   44.1799   10.7248  -11.6563 C   0  0  0  0  0  0  0  0  0  0  0  0
   40.9363    7.0974    0.3850 C   0  0  2  0  0  0  0  0  0  0  0  0
   42.1074    7.4665    1.1643 O   0  0  0  0  0  0  0  0  0  0  0  0
   42.3361    7.2477   -2.1427 C   0  0  2  0  0  0  0  0  0  0  0  0
   42.8920    6.1305   -2.8256 O   0  0  0  0  0  0  0  0  0  0  0  0
   44.8884    3.2198   -3.9436 C   0  0  0  0  0  0  0  0  0  0  0  0
   44.6396    2.1055   -4.7667 O   0  0  0  0  0  0  0  0  0  0  0  0
   49.6272    6.3074   -6.8158 C   0  0  1  0  0  0  0  0  0  0  0  0
   49.0554    5.9397   -5.4621 O   0  0  0  0  0  0  0  0  0  0  0  0
   44.5261   10.3705  -10.2602 C   0  0  0  0  0  0  0  0  0  0  0  0
   39.7812    7.9748    0.6338 C   0  0  0  0  0  0  0  0  0  0  0  0
   38.8099    7.6933   -0.2438 O   0  0  0  0  0  0  0  0  0  0  0  0
   41.9382    8.4231   -3.1313 C   0  0  1  0  0  0  0  0  0  0  0  0
   40.8973    8.0172   -3.9579 O   0  0  0  0  0  0  0  0  0  0  0  0
   43.8529    7.9006   -6.3938 C   0  0  0  0  0  0  0  0  0  0  0  0
   51.1684    6.1355   -6.8975 C   0  0  0  0  0  0  0  0  0  0  0  0
   51.8370    7.3241   -6.4295 N   0  0  0  0  0  0  0  0  0  0  0  0
   44.5221    8.4106   -7.6742 C   0  0  0  0  0  0  0  0  0  0  0  0
   45.2143    9.7098   -7.3919 N   0  0  0  0  0  0  0  0  0  0  0  0
   46.4039   10.0537   -8.3283 C   0  0  0  0  0  0  0  0  0  0  0  0
  1  2  1  6  0  0  0
  1  9  1  0  0  0  0
  1 35  1  0  0  0  0
  3  4  1  6  0  0  0
  3 11  1  0  0  0  0
  3 45  1  0  0  0  0
  5  6  1  0  0  0  0
  5 12  1  0  0  0  0
  5 37  1  1  0  0  0
  6 30  1  0  0  0  0
  7 14  1  0  0  0  0
  7 41  1  0  0  0  0
  7 23  1  1  0  0  0
  8 16  2  0  0  0  0
  8 42  1  0  0  0  0
  9 10  1  6  0  0  0
  9 18  1  0  0  0  0
 11 20  1  0  0  0  0
 12 13  1  6  0  0  0
 12 22  1  0  0  0  0
 13 47  1  0  0  0  0
 14 15  1  1  0  0  0
 14 24  1  0  0  0  0
 16 17  1  0  0  0  0
 17 26  2  0  0  0  0
 18 19  1  1  0  0  0
 18 27  1  0  0  0  0
 20 21  1  1  0  0  0
 20 29  1  0  0  0  0
 22 23  1  6  0  0  0
 22 30  1  0  0  0  0
 24 25  1  1  0  0  0
 24 31  1  0  0  0  0
 26 33  1  0  0  0  0
 27 28  1  6  0  0  0
 27 34  1  0  0  0  0
 29  2  1  1  0  0  0
 29 36  1  0  0  0  0
 30 38  1  1  0  0  0
 31 32  1  1  0  0  0
 31 40  1  0  0  0  0
 33 42  2  0  0  0  0
 34 35  1  0  0  0  0
 34 43  1  1  0  0  0
 36 37  1  6  0  0  0
 36 45  1  0  0  0  0
 38 39  1  0  0  0  0
 40 41  1  0  0  0  0
 40 48  1  1  0  0  0
 43 44  1  0  0  0  0
 45 46  1  6  0  0  0
 47 50  1  0  0  0  0
 48 49  1  0  0  0  0
 50 51  1  0  0  0  0
 51 52  1  0  0  0  0
 52  8  1  0  0  0  0
M  END
>  <CHROM.1>
138.75697603,-162.71642318,-53.62679624,13.32574496,-170.79197109,-57.40709308
22.95757141,82.87363857,-71.67602269,-99.09344297,154.02542323,-64.33546375
154.67109739,70.30817047,177.49932633,44.51327529,7.02108011,-4.24422702
-2.29772475,0.64612289,-0.90697644

>  <Name>
2be0_lig

>  <RI>
224

>  <Rbt.Current_Directory>
/home/itssahil/PROJECTS/Mol_Feturizer/New_Systems/rnas/2be0

>  <Rbt.Executable>
rbdock ($Id: //depot/dev/client3/rdock/2013.1/src/exe/rbdock.cxx#4 $)

>  <Rbt.Library>
libRbt.so (2013.1, Build901 2013/11/27)

>  <Rbt.Parameter_File>
/export/apps/rDock/src/rDock_2013.1_src/data/scripts/dock_solv.prm

>  <Rbt.Receptor>
prm/blind_docking_100.prm

>  <SCORE>
18.2894

>  <SCORE.INTER>
-4.5359

>  <SCORE.INTER.CONST>
1

>  <SCORE.INTER.POLAR>
-1.4647

>  <SCORE.INTER.ROT>
15

>  <SCORE.INTER.SOLV>
40.2306

>  <SCORE.INTER.VDW>
-25.1518

>  <SCORE.INTER.norm>
-0.0872289

>  <SCORE.INTRA>
8.71951

>  <SCORE.INTRA.DIHEDRAL>
-18.4249

>  <SCORE.INTRA.DIHEDRAL.0>
47.8724

>  <SCORE.INTRA.POLAR>
0

>  <SCORE.INTRA.POLAR.0>
0

>  <SCORE.INTRA.REPUL>
0

>  <SCORE.INTRA.REPUL.0>
0

>  <SCORE.INTRA.SOLV>
2.73156

>  <SCORE.INTRA.SOLV.lig_0>
-115.677

>  <SCORE.INTRA.VDW>
16.5662

>  <SCORE.INTRA.VDW.0>
-7.4833

>  <SCORE.INTRA.norm>
0.167683

>  <SCORE.RESTR>
14.1058

>  <SCORE.RESTR.CAVITY>
14.1058

>  <SCORE.RESTR.norm>
0.271266

>  <SCORE.SYSTEM>
0

>  <SCORE.SYSTEM.CONST>
0

>  <SCORE.SYSTEM.DIHEDRAL>
0

>  <SCORE.SYSTEM.SOLV>
0

>  <SCORE.SYSTEM.norm>
0

>  <SCORE.heavy>
52

>  <SCORE.norm>
0.35172

>  <RMSD>
9.985

$$$$
2be0_lig
 OpenBabel11021811423D
libRbt.so/2013.1/901 2013/11/27
 52 56  0  0  0  0  0  0  0  0999 V2000
   42.3657    3.9913   -0.9129 C   0  0  2  0  0  0  0  0  0  0  0  0
   42.1648    5.2409   -1.5301 O   0  0  0  0  0  0  0  0  0  0  0  0
   43.0964    9.3879   -0.3876 C   0  0  2  0  0  0  0  0  0  0  0  0
   43.8553   10.5494    0.1551 N   0  0  0  0  0  0  0  0  0  0  0  0
   43.8325    7.5004   -4.4740 C   0  0  2  0  0  0  0  0  0  0  0  0
   42.5794    7.5810   -5.1835 O   0  0  0  0  0  0  0  0  0  0  0  0
   45.5691    4.4555   -7.2220 C   0  0  1  0  0  0  0  0  0  0  0  0
   44.6810   10.1124  -10.2899 C   0  0  0  0  0  0  0  0  0  0  0  0
   41.9652    2.8034   -1.8795 C   0  0  2  0  0  0  0  0  0  0  0  0
   42.6834    2.9341   -3.1490 N   0  0  0  0  0  0  0  0  0  0  0  0
   42.9593    8.2758    0.7495 C   0  0  0  0  0  0  0  0  0  0  0  0
   44.8104    6.7430   -5.3865 C   0  0  2  0  0  0  0  0  0  0  0  0
   45.3614    7.8139   -6.2736 O   0  0  0  0  0  0  0  0  0  0  0  0
   45.8692    4.1664   -8.7928 C   0  0  2  0  0  0  0  0  0  0  0  0
   44.8351    3.2143   -9.3122 N   0  0  0  0  0  0  0  0  0  0  0  0
   43.6972    9.9740  -11.3233 C   0  0  0  0  0  0  0  0  0  0  0  0
   44.0054   10.3835  -12.6471 N   0  0  0  0  0  0  0  0  0  0  0  0
   40.3801    2.7910   -2.0875 C   0  0  1  0  0  0  0  0  0  0  0  0
   40.0432    1.7251   -2.9618 O   0  0  0  0  0  0  0  0  0  0  0  0
   42.1433    6.9759    0.1889 C   0  0  2  0  0  0  0  0  0  0  0  0
   42.0111    5.9686    1.2034 N   0  0  0  0  0  0  0  0  0  0  0  0
   43.8348    5.6990   -5.9621 C   0  0  2  0  0  0  0  0  0  0  0  0
   44.2446    5.0111   -7.1348 O   0  0  0  0  0  0  0  0  0  0  0  0
   47.2970    3.5510   -8.9016 C   0  0  1  0  0  0  0  0  0  0  0  0
   48.2240    4.5705   -8.3832 O   0  0  0  0  0  0  0  0  0  0  0  0
   45.2648   10.9382  -13.0136 C   0  0  0  0  0  0  0  0  0  0  0  0
   39.6994    2.6367   -0.6965 C   0  0  2  0  0  0  0  0  0  0  0  0
   38.2220    2.6225   -0.8249 O   0  0  0  0  0  0  0  0  0  0  0  0
   42.8959    6.3694   -1.0662 C   0  0  2  0  0  0  0  0  0  0  0  0
   42.5183    6.4944   -6.1302 C   0  0  1  0  0  0  0  0  0  0  0  0
   47.3806    2.1816   -8.0277 C   0  0  2  0  0  0  0  0  0  0  0  0
   46.4564    1.1580   -8.5400 O   0  0  0  0  0  0  0  0  0  0  0  0
   46.2768   11.0982  -12.0352 C   0  0  0  0  0  0  0  0  0  0  0  0
   40.1106    3.8280    0.2517 C   0  0  2  0  0  0  0  0  0  0  0  0
   41.5621    3.7909    0.3338 O   0  0  0  0  0  0  0  0  0  0  0  0
   43.0134    7.5014   -2.1452 C   0  0  2  0  0  0  0  0  0  0  0  0
   43.6842    6.8490   -3.2165 O   0  0  0  0  0  0  0  0  0  0  0  0
   41.2861    5.6634   -5.7762 C   0  0  0  0  0  0  0  0  0  0  0  0
   40.0472    6.2983   -5.9842 O   0  0  0  0  0  0  0  0  0  0  0  0
   47.0318    2.5030   -6.5019 C   0  0  1  0  0  0  0  0  0  0  0  0
   45.6591    3.1413   -6.4471 O   0  0  0  0  0  0  0  0  0  0  0  0
   46.0044   10.6868  -10.6385 C   0  0  0  0  0  0  0  0  0  0  0  0
   39.4563    3.6166    1.5529 C   0  0  0  0  0  0  0  0  0  0  0  0
   40.0025    2.5554    2.1598 O   0  0  0  0  0  0  0  0  0  0  0  0
   43.8364    8.7336   -1.5783 C   0  0  1  0  0  0  0  0  0  0  0  0
   43.9227    9.7315   -2.5418 O   0  0  0  0  0  0  0  0  0  0  0  0
   46.3511    7.6801   -7.3686 C   0  0  0  0  0  0  0  0  0  0  0  0
   47.1162    1.1628   -5.7220 C   0  0  0  0  0  0  0  0  0  0  0  0
   46.7334    1.3522   -4.3449 N   0  0  0  0  0  0  0  0  0  0  0  0
   46.6546    9.0920   -7.8801 C   0  0  0  0  0  0  0  0  0  0  0  0
   45.4232    9.9390   -7.7669 N   0  0  0  0  0  0  0  0  0  0  0  0
   44.3051    9.6394   -8.8015 C   0  0  0  0  0  0  0  0  0  0  0  0
  1  2  1  6  0  0  0
  1  9  1  0  0  0  0
  1 35  1  0  0  0  0
  3  4  1  1  0  0  0
  3 11  1  0  0  0  0
  3 45  1  0  0  0  0
  5  6  1  0  0  0  0
  5 12  1  0  0  0  0
  5 37  1  1  0  0  0
  6 30  1  0  0  0  0
  7 14  1  0  0  0  0
  7 41  1  0  0  0  0
  7 23  1  6  0  0  0
  8 16  2  0  0  0  0
  8 42  1  0  0  0  0
  9 10  1  6  0  0  0
  9 18  1  0  0  0  0
 11 20  1  0  0  0  0
 12 13  1  6  0  0  0
 12 22  1  0  0  0  0
 13 47  1  0  0  0  0
 14 15  1  1  0  0  0
 14 24  1  0  0  0  0
 16 17  1  0  0  0  0
 17 26  2  0  0  0  0
 18 19  1  6  0  0  0
 18 27  1  0  0  0  0
 20 21  1  1  0  0  0
 20 29  1  0  0  0  0
 22 23  1  6  0  0  0
 22 30  1  0  0  0  0
 24 25  1  1  0  0  0
 24 31  1  0  0  0  0
 26 33  1  0  0  0  0
 27 28  1  6  0  0  0
 27 34  1  0  0  0  0
 29  2  1  6  0  0  0
 29 36  1  0  0  0  0
 30 38  1  1  0  0  0
 31 32  1  6  0  0  0
 31 40  1  0  0  0  0
 33 42  2  0  0  0  0
 34 35  1  0  0  0  0
 34 43  1  1  0  0  0
 36 37  1  6  0  0  0
 36 45  1  0  0  0  0
 38 39  1  0  0  0  0
 40 41  1  0  0  0  0
 40 48  1  1  0  0  0
 43 44  1  0  0  0  0
 45 46  1  6  0  0  0
 47 50  1  0  0  0  0
 48 49  1  0  0  0  0
 50 51  1  0  0  0  0
 51 52  1  0  0  0  0
 52  8  1  0  0  0  0
M  END
>  <CHROM.1>
-156.79679030,-71.75577574,-162.75722540,-179.55311292,-175.50014620,46.82830310
-83.41898296,67.45478420,68.96300497,171.88654923,-176.48324816,-33.18697111
-73.47140550,-71.34682086,-175.90772695,43.68563938,5.87796234,-4.84133927
-2.63380565,1.08586669,-0.20772431

>  <Name>
2be0_lig

>  <RI>
0

>  <Rbt.Current_Directory>
/home/itssahil/PROJECTS/Mol_Feturizer/New_Systems/rnas/2be0

>  <Rbt.Executable>
rbdock ($Id: //depot/dev/client3/rdock/2013.1/src/exe/rbdock.cxx#4 $)

>  <Rbt.Library>
libRbt.so (2013.1, Build901 2013/11/27)

>  <Rbt.Parameter_File>
/export/apps/rDock/src/rDock_2013.1_src/data/scripts/dock_solv.prm

>  <Rbt.Receptor>
prm/pocket_docking_6.prm

>  <SCORE>
-37.8146

>  <SCORE.INTER>
-22.9593

>  <SCORE.INTER.CONST>
1

>  <SCORE.INTER.POLAR>
-2.46793

>  <SCORE.INTER.ROT>
15

>  <SCORE.INTER.SOLV>
15.1997

>  <SCORE.INTER.VDW>
-25.7464

>  <SCORE.INTER.norm>
-0.441526

>  <SCORE.INTRA>
-14.8553

>  <SCORE.INTRA.DIHEDRAL>
-35.5937

>  <SCORE.INTRA.DIHEDRAL.0>
47.8724

>  <SCORE.INTRA.POLAR>
0

>  <SCORE.INTRA.POLAR.0>
0

>  <SCORE.INTRA.REPUL>
0.00363295

>  <SCORE.INTRA.REPUL.0>
0

>  <SCORE.INTRA.SOLV>
0.244843

>  <SCORE.INTRA.SOLV.lig_0>
-115.677

>  <SCORE.INTRA.VDW>
2.801

>  <SCORE.INTRA.VDW.0>
-7.4833

>  <SCORE.INTRA.norm>
-0.285678

>  <SCORE.RESTR>
0

>  <SCORE.RESTR.CAVITY>
0

>  <SCORE.RESTR.norm>
0

>  <SCORE.SYSTEM>
0

>  <SCORE.SYSTEM.CONST>
0

>  <SCORE.SYSTEM.DIHEDRAL>
0

>  <SCORE.SYSTEM.SOLV>
0

>  <SCORE.SYSTEM.norm>
0

>  <SCORE.heavy>
52

>  <SCORE.norm>
-0.727204

>  <RMSD>
10.005

$$$$
2be0_lig
 OpenBabel11021811423D
libRbt.so/2013.1/901 2013/11/27
 52 56  0  0  0  0  0  0  0  0999 V2000
   40.6841    5.5540   -0.3077 C   0  0  2  0  0  0  0  0  0  0  0  0
   40.1179    6.8193   -0.5552 O   0  0  0  0  0  0  0  0  0  0  0  0
   41.5188   10.9825   -0.2787 C   0  0  2  0  0  0  0  0  0  0  0  0
   42.1603   12.2052    0.2807 N   0  0  0  0  0  0  0  0  0  0  0  0
   43.7825    7.5041   -2.1768 C   0  0  2  0  0  0  0  0  0  0  0  0
   43.5471    8.5409   -3.1514 O   0  0  0  0  0  0  0  0  0  0  0  0
   42.4947    6.1685   -6.4470 C   0  0  1  0  0  0  0  0  0  0  0  0
   50.3336    5.7676   -6.4890 C   0  0  0  0  0  0  0  0  0  0  0  0
   39.6987    4.6384    0.5267 C   0  0  2  0  0  0  0  0  0  0  0  0
   38.4024    4.5601   -0.1501 N   0  0  0  0  0  0  0  0  0  0  0  0
   40.4063   10.4627    0.7414 C   0  0  0  0  0  0  0  0  0  0  0  0
   43.8830    6.1812   -2.9529 C   0  0  2  0  0  0  0  0  0  0  0  0
   45.3166    6.1326   -3.3767 O   0  0  0  0  0  0  0  0  0  0  0  0
   42.6360    4.9690   -7.5344 C   0  0  2  0  0  0  0  0  0  0  0  0
   44.0295    4.4218   -7.4676 N   0  0  0  0  0  0  0  0  0  0  0  0
   51.2839    6.8408   -6.4783 C   0  0  0  0  0  0  0  0  0  0  0  0
   52.6347    6.5805   -6.1284 N   0  0  0  0  0  0  0  0  0  0  0  0
   39.5637    5.2097    2.0137 C   0  0  1  0  0  0  0  0  0  0  0  0
   38.6715    4.3803    2.7418 O   0  0  0  0  0  0  0  0  0  0  0  0
   39.6869    9.1114    0.1701 C   0  0  2  0  0  0  0  0  0  0  0  0
   38.6819    8.6347    1.0780 N   0  0  0  0  0  0  0  0  0  0  0  0
   42.7834    6.4386   -4.0005 C   0  0  2  0  0  0  0  0  0  0  0  0
   42.7839    5.6091   -5.1531 O   0  0  0  0  0  0  0  0  0  0  0  0
   42.3386    5.5638   -8.9439 C   0  0  1  0  0  0  0  0  0  0  0  0
   40.9504    6.0521   -8.8988 O   0  0  0  0  0  0  0  0  0  0  0  0
   53.1088    5.2842   -5.7777 C   0  0  0  0  0  0  0  0  0  0  0  0
   40.9788    5.2466    2.6605 C   0  0  2  0  0  0  0  0  0  0  0  0
   40.9182    5.7737    4.0453 O   0  0  0  0  0  0  0  0  0  0  0  0
   40.7727    7.9813   -0.0607 C   0  0  2  0  0  0  0  0  0  0  0  0
   42.9340    7.9463   -4.3138 C   0  0  1  0  0  0  0  0  0  0  0  0
   43.3769    6.7732   -9.2678 C   0  0  2  0  0  0  0  0  0  0  0  0
   44.7666    6.2926   -9.3141 O   0  0  0  0  0  0  0  0  0  0  0  0
   52.2159    4.1843   -5.7717 C   0  0  0  0  0  0  0  0  0  0  0  0
   41.9454    6.1626    1.8154 C   0  0  2  0  0  0  0  0  0  0  0  0
   41.9593    5.5993    0.4747 O   0  0  0  0  0  0  0  0  0  0  0  0
   41.8437    8.5448   -1.0579 C   0  0  2  0  0  0  0  0  0  0  0  0
   42.7482    7.4562   -1.1994 O   0  0  0  0  0  0  0  0  0  0  0  0
   41.5861    8.6383   -4.5100 C   0  0  0  0  0  0  0  0  0  0  0  0
   41.0979    9.3414   -3.3926 O   0  0  0  0  0  0  0  0  0  0  0  0
   43.2388    7.9059   -8.1494 C   0  0  1  0  0  0  0  0  0  0  0  0
   43.4887    7.2761   -6.7945 O   0  0  0  0  0  0  0  0  0  0  0  0
   50.7951    4.4038   -6.1287 C   0  0  0  0  0  0  0  0  0  0  0  0
   43.2678    6.1410    2.4610 C   0  0  0  0  0  0  0  0  0  0  0  0
   43.1417    6.4881    3.7480 O   0  0  0  0  0  0  0  0  0  0  0  0
   42.5429    9.8371   -0.4589 C   0  0  1  0  0  0  0  0  0  0  0  0
   43.4811   10.3299   -1.3580 O   0  0  0  0  0  0  0  0  0  0  0  0
   45.9396    5.2739   -4.4116 C   0  0  0  0  0  0  0  0  0  0  0  0
   44.2571    9.0237   -8.5030 C   0  0  0  0  0  0  0  0  0  0  0  0
   45.3593    9.0186   -7.5736 N   0  0  0  0  0  0  0  0  0  0  0  0
   47.2394    5.9587   -4.8463 C   0  0  0  0  0  0  0  0  0  0  0  0
   47.7789    5.2760   -6.0668 N   0  0  0  0  0  0  0  0  0  0  0  0
   48.8122    6.0911   -6.8902 C   0  0  0  0  0  0  0  0  0  0  0  0
  1  2  1  1  0  0  0
  1  9  1  0  0  0  0
  1 35  1  0  0  0  0
  3  4  1  1  0  0  0
  3 11  1  0  0  0  0
  3 45  1  0  0  0  0
  5  6  1  0  0  0  0
  5 12  1  0  0  0  0
  5 37  1  1  0  0  0
  6 30  1  0  0  0  0
  7 14  1  0  0  0  0
  7 41  1  0  0  0  0
  7 23  1  1  0  0  0
  8 16  2  0  0  0  0
  8 42  1  0  0  0  0
  9 10  1  6  0  0  0
  9 18  1  0  0  0  0
 11 20  1  0  0  0  0
 12 13  1  6  0  0  0
 12 22  1  0  0  0  0
 13 47  1  0  0  0  0
 14 15  1  6  0  0  0
 14 24  1  0  0  0  0
 16 17  1  0  0  0  0
 17 26  2  0  0  0  0
 18 19  1  1  0  0  0
 18 27  1  0  0  0  0
 20 21  1  1  0  0  0
 20 29  1  0  0  0  0
 22 23  1  6  0  0  0
 22 30  1  0  0  0  0
 24 25  1  1  0  0  0
 24 31  1  0  0  0  0
 26 33  1  0  0  0  0
 27 28  1  1  0  0  0
 27 34  1  0  0  0  0
 29  2  1  6  0  0  0
 29 36  1  0  0  0  0
 30 38  1  1  0  0  0
 31 32  1  1  0  0  0
 31 40  1  0  0  0  0
 33 42  2  0  0  0  0
 34 35  1  0  0  0  0
 34 43  1  1  0  0  0
 36 37  1  1  0  0  0
 36 45  1  0  0  0  0
 38 39  1  0  0  0  0
 40 41  1  0  0  0  0
 40 48  1  6  0  0  0
 43 44  1  0  0  0  0
 45 46  1  6  0  0  0
 47 50  1  0  0  0  0
 48 49  1  0  0  0  0
 50 51  1  0  0  0  0
 51 52  1  0  0  0  0
 52  8  1  0  0  0  0
M  END
>  <CHROM.1>
119.37508559,-15.51300226,177.84846843,-164.08390187,158.10565718,-140.19197112
-152.77392969,-17.43020744,-54.22518425,171.46999356,-108.18149998,-169.37088872
161.40883074,94.12802458,-142.71911396,43.54764919,6.88550480,-3.10368991
2.30402359,-0.19419435,1.62003095

>  <Name>
2be0_lig

>  <RI>
224

>  <Rbt.Current_Directory>
/home/itssahil/PROJECTS/Mol_Feturizer/New_Systems/rnas/2be0

>  <Rbt.Executable>
rbdock ($Id: //depot/dev/client3/rdock/2013.1/src/exe/rbdock.cxx#4 $)

>  <Rbt.Library>
libRbt.so (2013.1, Build901 2013/11/27)

>  <Rbt.Parameter_File>
/export/apps/rDock/src/rDock_2013.1_src/data/scripts/dock_solv.prm

>  <Rbt.Receptor>
prm/blind_docking_100.prm

>  <SCORE>
20.9377

>  <SCORE.INTER>
4.88046

>  <SCORE.INTER.CONST>
1

>  <SCORE.INTER.POLAR>
-2.17159

>  <SCORE.INTER.ROT>
15

>  <SCORE.INTER.SOLV>
23.446

>  <SCORE.INTER.VDW>
-10.923

>  <SCORE.INTER.norm>
0.093855

>  <SCORE.INTRA>
1.7321

>  <SCORE.INTRA.DIHEDRAL>
-10.8879

>  <SCORE.INTRA.DIHEDRAL.0>
47.8724

>  <SCORE.INTRA.POLAR>
0

>  <SCORE.INTRA.POLAR.0>
0

>  <SCORE.INTRA.REPUL>
0.0431156

>  <SCORE.INTRA.REPUL.0>
0

>  <SCORE.INTRA.SOLV>
1.92979

>  <SCORE.INTRA.SOLV.lig_0>
-115.677

>  <SCORE.INTRA.VDW>
5.99558

>  <SCORE.INTRA.VDW.0>
-7.4833

>  <SCORE.INTRA.norm>
0.0333096

>  <SCORE.RESTR>
14.3251

>  <SCORE.RESTR.CAVITY>
14.3251

>  <SCORE.RESTR.norm>
0.275483

>  <SCORE.SYSTEM>
0

>  <SCORE.SYSTEM.CONST>
0

>  <SCORE.SYSTEM.DIHEDRAL>
0

>  <SCORE.SYSTEM.SOLV>
0

>  <SCORE.SYSTEM.norm>
0

>  <SCORE.heavy>
52

>  <SCORE.norm>
0.402647

>  <RMSD>
10.025

$$$$
2be0_lig
 OpenBabel11021811423D
libRbt.so/2013.1/901 2013/11/27
 52 56  0  0  0  0  0  0  0  0999 V2000
   39.1918    3.5238   -0.7760 C   0  0  2  0  0  0  0  0  0  0  0  0
   40.3763    3.0291   -1.3548 O   0  0  0  0  0  0  0  0  0  0  0  0
   42.9622    6.5869   -1.1940 C   0  0  2  0  0  0  0  0  0  0  0  0
   44.1013    7.4993   -1.4930 N   0  0  0  0  0  0  0  0  0  0  0  0
   40.5339    5.4658   -4.5565 C   0  0  2  0  0  0  0  0  0  0  0  0
   39.5012    5.2675   -5.5437 O   0  0  0  0  0  0  0  0  0  0  0  0
   43.0943    2.1365   -6.1011 C   0  0  1  0  0  0  0  0  0  0  0  0
   43.5360    8.7862  -10.1248 C   0  0  0  0  0  0  0  0  0  0  0  0
   39.0746    3.0967    0.7438 C   0  0  2  0  0  0  0  0  0  0  0  0
   40.2784    3.5089    1.4686 N   0  0  0  0  0  0  0  0  0  0  0  0
   43.5344    5.1816   -0.6981 C   0  0  0  0  0  0  0  0  0  0  0  0
   41.7648    4.6820   -5.0394 C   0  0  2  0  0  0  0  0  0  0  0  0
   42.4449    5.6371   -5.9682 O   0  0  0  0  0  0  0  0  0  0  0  0
   43.6114    1.1409   -7.2770 C   0  0  2  0  0  0  0  0  0  0  0  0
   42.6318    0.0159   -7.4192 N   0  0  0  0  0  0  0  0  0  0  0  0
   44.4921    9.2510   -9.1632 C   0  0  0  0  0  0  0  0  0  0  0  0
   45.1644   10.4826   -9.3786 N   0  0  0  0  0  0  0  0  0  0  0  0
   38.8279    1.5202    0.8414 C   0  0  1  0  0  0  0  0  0  0  0  0
   38.7334    1.1571    2.2101 O   0  0  0  0  0  0  0  0  0  0  0  0
   42.3142    4.1449   -0.3723 C   0  0  2  0  0  0  0  0  0  0  0  0
   42.8158    2.8770    0.0772 N   0  0  0  0  0  0  0  0  0  0  0  0
   41.0472    3.4426   -5.6067 C   0  0  2  0  0  0  0  0  0  0  0  0
   41.7918    2.6121   -6.4855 O   0  0  0  0  0  0  0  0  0  0  0  0
   45.0171    0.6067   -6.8675 C   0  0  1  0  0  0  0  0  0  0  0  0
   45.8933    1.7861   -6.7741 O   0  0  0  0  0  0  0  0  0  0  0  0
   44.9385   11.2994  -10.5230 C   0  0  0  0  0  0  0  0  0  0  0  0
   37.5282    1.1728    0.0588 C   0  0  2  0  0  0  0  0  0  0  0  0
   37.2481   -0.2825    0.1102 O   0  0  0  0  0  0  0  0  0  0  0  0
   41.4269    3.9355   -1.6678 C   0  0  2  0  0  0  0  0  0  0  0  0
   39.7631    4.0309   -6.2386 C   0  0  1  0  0  0  0  0  0  0  0  0
   44.9232   -0.1704   -5.4416 C   0  0  2  0  0  0  0  0  0  0  0  0
   44.0487   -1.3503   -5.5274 O   0  0  0  0  0  0  0  0  0  0  0  0
   44.0041   10.8922  -11.5070 C   0  0  0  0  0  0  0  0  0  0  0  0
   37.6641    1.6060   -1.4516 C   0  0  2  0  0  0  0  0  0  0  0  0
   37.9405    3.0337   -1.4348 O   0  0  0  0  0  0  0  0  0  0  0  0
   40.9002    5.3422   -2.1182 C   0  0  2  0  0  0  0  0  0  0  0  0
   40.1169    5.0347   -3.2650 O   0  0  0  0  0  0  0  0  0  0  0  0
   38.5451    3.1335   -6.0260 C   0  0  0  0  0  0  0  0  0  0  0  0
   38.5596    1.9156   -6.7315 O   0  0  0  0  0  0  0  0  0  0  0  0
   44.3657    0.8298   -4.3273 C   0  0  1  0  0  0  0  0  0  0  0  0
   43.0232    1.3604   -4.7864 O   0  0  0  0  0  0  0  0  0  0  0  0
   43.2768    9.6140  -11.3291 C   0  0  0  0  0  0  0  0  0  0  0  0
   36.4024    1.2734   -2.1324 C   0  0  0  0  0  0  0  0  0  0  0  0
   35.4229    2.0574   -1.6648 O   0  0  0  0  0  0  0  0  0  0  0  0
   42.1095    6.3125   -2.4554 C   0  0  1  0  0  0  0  0  0  0  0  0
   41.6270    7.5569   -2.8426 O   0  0  0  0  0  0  0  0  0  0  0  0
   43.6314    5.3984   -6.8235 C   0  0  0  0  0  0  0  0  0  0  0  0
   44.2874    0.0332   -2.9965 C   0  0  0  0  0  0  0  0  0  0  0  0
   43.9735    0.9116   -1.8971 N   0  0  0  0  0  0  0  0  0  0  0  0
   43.8793    6.6816   -7.6231 C   0  0  0  0  0  0  0  0  0  0  0  0
   42.6241    7.0702   -8.3443 N   0  0  0  0  0  0  0  0  0  0  0  0
   42.7893    7.3899   -9.8545 C   0  0  0  0  0  0  0  0  0  0  0  0
  1  2  1  6  0  0  0
  1  9  1  0  0  0  0
  1 35  1  0  0  0  0
  3  4  1  6  0  0  0
  3 11  1  0  0  0  0
  3 45  1  0  0  0  0
  5  6  1  0  0  0  0
  5 12  1  0  0  0  0
  5 37  1  1  0  0  0
  6 30  1  0  0  0  0
  7 14  1  0  0  0  0
  7 41  1  0  0  0  0
  7 23  1  6  0  0  0
  8 16  2  0  0  0  0
  8 42  1  0  0  0  0
  9 10  1  1  0  0  0
  9 18  1  0  0  0  0
 11 20  1  0  0  0  0
 12 13  1  6  0  0  0
 12 22  1  0  0  0  0
 13 47  1  0  0  0  0
 14 15  1  1  0  0  0
 14 24  1  0  0  0  0
 16 17  1  0  0  0  0
 17 26  2  0  0  0  0
 18 19  1  1  0  0  0
 18 27  1  0  0  0  0
 20 21  1  6  0  0  0
 20 29  1  0  0  0  0
 22 23  1  6  0  0  0
 22 30  1  0  0  0  0
 24 25  1  1  0  0  0
 24 31  1  0  0  0  0
 26 33  1  0  0  0  0
 27 28  1  6  0  0  0
 27 34  1  0  0  0  0
 29  2  1  1  0  0  0
 29 36  1  0  0  0  0
 30 38  1  1  0  0  0
 31 32  1  6  0  0  0
 31 40  1  0  0  0  0
 33 42  2  0  0  0  0
 34 35  1  0  0  0  0
 34 43  1  6  0  0  0
 36 37  1  6  0  0  0
 36 45  1  0  0  0  0
 38 39  1  0  0  0  0
 40 41  1  0  0  0  0
 40 48  1  1  0  0  0
 43 44  1  0  0  0  0
 45 46  1  1  0  0  0
 47 50  1  0  0  0  0
 48 49  1  0  0  0  0
 50 51  1  0  0  0  0
 51 52  1  0  0  0  0
 52  8  1  0  0  0  0
M  END
>  <CHROM.1>
-108.73018876,-169.71238210,176.07603461,-174.59779142,177.50662899,51.21478426
85.38706870,174.59119757,67.80326151,-112.45386096,171.86359954,-53.72670307
-130.60635138,-72.28125680,29.52289929,41.63111908,3.95785586,-4.29202934
2.33957141,-0.94277789,2.85454317

>  <Name>
2be0_lig

>  <RI>
0

>  <Rbt.Current_Directory>
/home/itssahil/PROJECTS/Mol_Feturizer/New_Systems/rnas/2be0

>  <Rbt.Executable>
rbdock ($Id: //depot/dev/client3/rdock/2013.1/src/exe/rbdock.cxx#4 $)

>  <Rbt.Library>
libRbt.so (2013.1, Build901 2013/11/27)

>  <Rbt.Parameter_File>
/export/apps/rDock/src/rDock_2013.1_src/data/scripts/dock_solv.prm

>  <Rbt.Receptor>
prm/pocket_docking_7.prm

>  <SCORE>
-23.2878

>  <SCORE.INTER>
-15.0705

>  <SCORE.INTER.CONST>
1

>  <SCORE.INTER.POLAR>
-0.894427

>  <SCORE.INTER.ROT>
15

>  <SCORE.INTER.SOLV>
14.7834

>  <SCORE.INTER.VDW>
-25.5934

>  <SCORE.INTER.norm>
-0.289818

>  <SCORE.INTRA>
-8.21723

>  <SCORE.INTRA.DIHEDRAL>
-27.3864

>  <SCORE.INTRA.DIHEDRAL.0>
47.8724

>  <SCORE.INTRA.POLAR>
0

>  <SCORE.INTRA.POLAR.0>
0

>  <SCORE.INTRA.REPUL>
0.0229137

>  <SCORE.INTRA.REPUL.0>
0

>  <SCORE.INTRA.SOLV>
3.08904

>  <SCORE.INTRA.SOLV.lig_0>
-115.677

>  <SCORE.INTRA.VDW>
3.81686

>  <SCORE.INTRA.VDW.0>
-7.4833

>  <SCORE.INTRA.norm>
-0.158024

>  <SCORE.RESTR>
0

>  <SCORE.RESTR.CAVITY>
0

>  <SCORE.RESTR.norm>
0

>  <SCORE.SYSTEM>
0

>  <SCORE.SYSTEM.CONST>
0

>  <SCORE.SYSTEM.DIHEDRAL>
0

>  <SCORE.SYSTEM.SOLV>
0

>  <SCORE.SYSTEM.norm>
0

>  <SCORE.heavy>
52

>  <SCORE.norm>
-0.447842

>  <RMSD>
10.025

$$$$
2be0_lig
 OpenBabel11021811423D
libRbt.so/2013.1/901 2013/11/27
 52 56  0  0  0  0  0  0  0  0999 V2000
   38.3313    0.3553   -8.6861 C   0  0  2  0  0  0  0  0  0  0  0  0
   39.4117    0.1424   -7.8085 O   0  0  0  0  0  0  0  0  0  0  0  0
   38.8730    3.5147   -5.0321 C   0  0  2  0  0  0  0  0  0  0  0  0
   39.1744    4.4952   -3.9517 N   0  0  0  0  0  0  0  0  0  0  0  0
   41.8668    2.6387   -8.1650 C   0  0  2  0  0  0  0  0  0  0  0  0
   42.3657    3.9684   -7.9131 O   0  0  0  0  0  0  0  0  0  0  0  0
   45.0761    3.0553  -10.9667 C   0  0  1  0  0  0  0  0  0  0  0  0
   44.0099   -4.0031   -9.1457 C   0  0  0  0  0  0  0  0  0  0  0  0
   37.9075   -0.9872   -9.4099 C   0  0  2  0  0  0  0  0  0  0  0  0
   37.6352   -2.0236   -8.4117 N   0  0  0  0  0  0  0  0  0  0  0  0
   39.0084    2.0353   -4.4480 C   0  0  0  0  0  0  0  0  0  0  0  0
   42.6564    2.0892   -9.3638 C   0  0  2  0  0  0  0  0  0  0  0  0
   43.8931    1.5256   -8.7391 O   0  0  0  0  0  0  0  0  0  0  0  0
   45.9885    3.7004  -12.1468 C   0  0  2  0  0  0  0  0  0  0  0  0
   45.5277    3.1534  -13.4637 N   0  0  0  0  0  0  0  0  0  0  0  0
   44.2223   -5.2812   -9.7591 C   0  0  0  0  0  0  0  0  0  0  0  0
   44.2891   -6.4465   -8.9512 N   0  0  0  0  0  0  0  0  0  0  0  0
   39.0519   -1.4296  -10.4347 C   0  0  1  0  0  0  0  0  0  0  0  0
   38.6565   -2.6373  -11.0665 O   0  0  0  0  0  0  0  0  0  0  0  0
   38.6988    0.9270   -5.6081 C   0  0  2  0  0  0  0  0  0  0  0  0
   38.8152   -0.4087   -5.0946 N   0  0  0  0  0  0  0  0  0  0  0  0
   42.7415    3.3792  -10.2012 C   0  0  2  0  0  0  0  0  0  0  0  0
   43.7089    3.4111  -11.2402 O   0  0  0  0  0  0  0  0  0  0  0  0
   47.4723    3.3113  -11.8710 C   0  0  1  0  0  0  0  0  0  0  0  0
   47.8189    3.9102  -10.5715 O   0  0  0  0  0  0  0  0  0  0  0  0
   44.1556   -6.4159   -7.5337 C   0  0  0  0  0  0  0  0  0  0  0  0
   39.2669   -0.2812  -11.4629 C   0  0  2  0  0  0  0  0  0  0  0  0
   40.3241   -0.6331  -12.4415 O   0  0  0  0  0  0  0  0  0  0  0  0
   39.7037    1.1200   -6.8174 C   0  0  2  0  0  0  0  0  0  0  0  0
   42.9299    4.4853   -9.1358 C   0  0  1  0  0  0  0  0  0  0  0  0
   47.6248    1.6924  -11.8316 C   0  0  2  0  0  0  0  0  0  0  0  0
   47.2796    1.0868  -13.1272 O   0  0  0  0  0  0  0  0  0  0  0  0
   43.9429   -5.1816   -6.8717 C   0  0  0  0  0  0  0  0  0  0  0  0
   39.6877    1.0468  -10.7234 C   0  0  2  0  0  0  0  0  0  0  0  0
   38.6188    1.3351   -9.7804 O   0  0  0  0  0  0  0  0  0  0  0  0
   39.5387    2.5873   -7.3455 C   0  0  2  0  0  0  0  0  0  0  0  0
   40.4664    2.6423   -8.4224 O   0  0  0  0  0  0  0  0  0  0  0  0
   42.1610    5.7606   -9.4773 C   0  0  0  0  0  0  0  0  0  0  0  0
   40.7797    5.5958   -9.6920 O   0  0  0  0  0  0  0  0  0  0  0  0
   46.6761    1.0970  -10.6922 C   0  0  1  0  0  0  0  0  0  0  0  0
   45.2540    1.5374  -10.9724 O   0  0  0  0  0  0  0  0  0  0  0  0
   43.8664   -3.9361   -7.6700 C   0  0  0  0  0  0  0  0  0  0  0  0
   39.8548    2.0971  -11.7407 C   0  0  0  0  0  0  0  0  0  0  0  0
   38.7520    2.1652  -12.4970 O   0  0  0  0  0  0  0  0  0  0  0  0
   39.8761    3.6359   -6.2036 C   0  0  1  0  0  0  0  0  0  0  0  0
   39.7154    4.9302   -6.6839 O   0  0  0  0  0  0  0  0  0  0  0  0
   44.0035    0.4299   -7.7474 C   0  0  0  0  0  0  0  0  0  0  0  0
   46.8547   -0.4456  -10.7090 C   0  0  0  0  0  0  0  0  0  0  0  0
   48.0598   -0.8244  -10.0140 N   0  0  0  0  0  0  0  0  0  0  0  0
   43.4065   -0.8258   -8.3911 C   0  0  0  0  0  0  0  0  0  0  0  0
   44.3905   -1.4042   -9.3626 N   0  0  0  0  0  0  0  0  0  0  0  0
   43.9373   -2.7017  -10.0846 C   0  0  0  0  0  0  0  0  0  0  0  0
  1  2  1  6  0  0  0
  1  9  1  0  0  0  0
  1 35  1  0  0  0  0
  3  4  1  1  0  0  0
  3 11  1  0  0  0  0
  3 45  1  0  0  0  0
  5  6  1  0  0  0  0
  5 12  1  0  0  0  0
  5 37  1  6  0  0  0
  6 30  1  0  0  0  0
  7 14  1  0  0  0  0
  7 41  1  0  0  0  0
  7 23  1  6  0  0  0
  8 16  2  0  0  0  0
  8 42  1  0  0  0  0
  9 10  1  1  0  0  0
  9 18  1  0  0  0  0
 11 20  1  0  0  0  0
 12 13  1  1  0  0  0
 12 22  1  0  0  0  0
 13 47  1  0  0  0  0
 14 15  1  6  0  0  0
 14 24  1  0  0  0  0
 16 17  1  0  0  0  0
 17 26  2  0  0  0  0
 18 19  1  6  0  0  0
 18 27  1  0  0  0  0
 20 21  1  1  0  0  0
 20 29  1  0  0  0  0
 22 23  1  6  0  0  0
 22 30  1  0  0  0  0
 24 25  1  1  0  0  0
 24 31  1  0  0  0  0
 26 33  1  0  0  0  0
 27 28  1  6  0  0  0
 27 34  1  0  0  0  0
 29  2  1  6  0  0  0
 29 36  1  0  0  0  0
 30 38  1  6  0  0  0
 31 32  1  6  0  0  0
 31 40  1  0  0  0  0
 33 42  2  0  0  0  0
 34 35  1  0  0  0  0
 34 43  1  6  0  0  0
 36 37  1  6  0  0  0
 36 45  1  0  0  0  0
 38 39  1  0  0  0  0
 40 41  1  0  0  0  0
 40 48  1  6  0  0  0
 43 44  1  0  0  0  0
 45 46  1  6  0  0  0
 47 50  1  0  0  0  0
 48 49  1  0  0  0  0
 50 51  1  0  0  0  0
 51 52  1  0  0  0  0
 52  8  1  0  0  0  0
M  END
>  <CHROM.1>
-163.39838958,-85.89606399,-159.52476965,61.50806190,60.24220615,-50.84960987
79.72661130,-60.73995439,52.67299831,-70.64746141,79.81568569,77.30641434
179.07374483,-75.61868188,-152.01167385,42.26073472,0.89260682,-9.26651432
2.96677920,0.46985288,-0.08307148

>  <Name>
2be0_lig

>  <RI>
3.37048e+07

>  <Rbt.Current_Directory>
/home/itssahil/PROJECTS/Mol_Feturizer/New_Systems/rnas/2be0

>  <Rbt.Executable>
rbdock ($Id: //depot/dev/client3/rdock/2013.1/src/exe/rbdock.cxx#4 $)

>  <Rbt.Library>
libRbt.so (2013.1, Build901 2013/11/27)

>  <Rbt.Parameter_File>
/export/apps/rDock/src/rDock_2013.1_src/data/scripts/dock_solv.prm

>  <Rbt.Receptor>
prm/pocket_docking_8.prm

>  <SCORE>
-14.8747

>  <SCORE.INTER>
0.61499

>  <SCORE.INTER.CONST>
1

>  <SCORE.INTER.POLAR>
0

>  <SCORE.INTER.ROT>
15

>  <SCORE.INTER.SOLV>
9.42398

>  <SCORE.INTER.VDW>
-16.3313

>  <SCORE.INTER.norm>
0.0118267

>  <SCORE.INTRA>
-15.4948

>  <SCORE.INTRA.DIHEDRAL>
-35.2195

>  <SCORE.INTRA.DIHEDRAL.0>
47.8724

>  <SCORE.INTRA.POLAR>
0

>  <SCORE.INTRA.POLAR.0>
0

>  <SCORE.INTRA.REPUL>
0.143013

>  <SCORE.INTRA.REPUL.0>
0

>  <SCORE.INTRA.SOLV>
1.0813

>  <SCORE.INTRA.SOLV.lig_0>
-115.677

>  <SCORE.INTRA.VDW>
0.859287

>  <SCORE.INTRA.VDW.0>
-7.4833

>  <SCORE.INTRA.norm>
-0.297976

>  <SCORE.RESTR>
0.00509421

>  <SCORE.RESTR.CAVITY>
0.00509421

>  <SCORE.RESTR.norm>
9.79656e-05

>  <SCORE.SYSTEM>
0

>  <SCORE.SYSTEM.CONST>
0

>  <SCORE.SYSTEM.DIHEDRAL>
0

>  <SCORE.SYSTEM.SOLV>
0

>  <SCORE.SYSTEM.norm>
0

>  <SCORE.heavy>
52

>  <SCORE.norm>
-0.286051

>  <RMSD>
10.030

$$$$
2be0_lig
 OpenBabel11021811423D
libRbt.so/2013.1/901 2013/11/27
 52 56  0  0  0  0  0  0  0  0999 V2000
   40.4334    5.8142   -0.0932 C   0  0  2  0  0  0  0  0  0  0  0  0
   40.5569    4.4141   -0.0072 O   0  0  0  0  0  0  0  0  0  0  0  0
   39.7191    1.7912    3.4264 C   0  0  2  0  0  0  0  0  0  0  0  0
   38.9553    1.1101    4.5090 N   0  0  0  0  0  0  0  0  0  0  0  0
   40.3690    1.4680   -1.4528 C   0  0  2  0  0  0  0  0  0  0  0  0
   39.8239    1.7560   -2.7567 O   0  0  0  0  0  0  0  0  0  0  0  0
   39.4868   -2.9656   -1.7750 C   0  0  1  0  0  0  0  0  0  0  0  0
   47.1390    0.0219   -3.4846 C   0  0  0  0  0  0  0  0  0  0  0  0
   40.4259    6.2976   -1.6005 C   0  0  2  0  0  0  0  0  0  0  0  0
   39.3832    5.5868   -2.3436 N   0  0  0  0  0  0  0  0  0  0  0  0
   39.5679    3.3714    3.5946 C   0  0  0  0  0  0  0  0  0  0  0  0
   40.6274   -0.0464   -1.4053 C   0  0  2  0  0  0  0  0  0  0  0  0
   41.9824   -0.1894   -2.0225 O   0  0  0  0  0  0  0  0  0  0  0  0
   41.0153   -3.0281   -1.2262 C   0  0  2  0  0  0  0  0  0  0  0  0
   41.9389   -3.1928   -2.3947 N   0  0  0  0  0  0  0  0  0  0  0  0
   48.5028    0.4451   -3.3584 C   0  0  0  0  0  0  0  0  0  0  0  0
   49.5391   -0.3446   -3.9219 N   0  0  0  0  0  0  0  0  0  0  0  0
   41.8735    6.0778   -2.2425 C   0  0  1  0  0  0  0  0  0  0  0  0
   41.8434    6.5097   -3.5940 O   0  0  0  0  0  0  0  0  0  0  0  0
   40.3815    4.1571    2.4154 C   0  0  2  0  0  0  0  0  0  0  0  0
   40.2552    5.5803    2.5568 N   0  0  0  0  0  0  0  0  0  0  0  0
   39.3813   -0.5223   -2.1758 C   0  0  2  0  0  0  0  0  0  0  0  0
   39.4025   -1.8497   -2.6797 O   0  0  0  0  0  0  0  0  0  0  0  0
   41.1252   -4.2416   -0.2544 C   0  0  1  0  0  0  0  0  0  0  0  0
   40.1952   -3.9662    0.8530 O   0  0  0  0  0  0  0  0  0  0  0  0
   49.2944   -1.5618   -4.6194 C   0  0  0  0  0  0  0  0  0  0  0  0
   42.9138    6.8743   -1.4027 C   0  0  2  0  0  0  0  0  0  0  0  0
   44.2818    6.7054   -1.9496 O   0  0  0  0  0  0  0  0  0  0  0  0
   39.8325    3.7140    0.9970 C   0  0  2  0  0  0  0  0  0  0  0  0
   39.2013    0.5593   -3.2675 C   0  0  1  0  0  0  0  0  0  0  0  0
   40.7251   -5.6140   -1.0307 C   0  0  2  0  0  0  0  0  0  0  0  0
   41.6503   -5.8955   -2.1393 O   0  0  0  0  0  0  0  0  0  0  0  0
   47.9666   -2.0299   -4.7768 C   0  0  0  0  0  0  0  0  0  0  0  0
   42.9060    6.3792    0.0948 C   0  0  2  0  0  0  0  0  0  0  0  0
   41.5445    6.5660    0.5705 O   0  0  0  0  0  0  0  0  0  0  0  0
   39.9937    2.1580    0.8876 C   0  0  2  0  0  0  0  0  0  0  0  0
   39.4879    1.8779   -0.4120 O   0  0  0  0  0  0  0  0  0  0  0  0
   37.7322    0.8940   -3.5197 C   0  0  0  0  0  0  0  0  0  0  0  0
   36.9902    1.2600   -2.3809 O   0  0  0  0  0  0  0  0  0  0  0  0
   39.2353   -5.4903   -1.5945 C   0  0  1  0  0  0  0  0  0  0  0  0
   39.1616   -4.2741   -2.4945 O   0  0  0  0  0  0  0  0  0  0  0  0
   46.8493   -1.2423   -4.2062 C   0  0  0  0  0  0  0  0  0  0  0  0
   43.8898    7.1802    0.8407 C   0  0  0  0  0  0  0  0  0  0  0  0
   45.1091    6.6500    0.6825 O   0  0  0  0  0  0  0  0  0  0  0  0
   39.1673    1.4268    2.0278 C   0  0  1  0  0  0  0  0  0  0  0  0
   39.3286    0.0503    1.9236 O   0  0  0  0  0  0  0  0  0  0  0  0
   42.4307    0.2495   -3.3651 C   0  0  0  0  0  0  0  0  0  0  0  0
   38.9141   -6.8189   -2.3317 C   0  0  0  0  0  0  0  0  0  0  0  0
   38.8460   -7.9143   -1.3967 N   0  0  0  0  0  0  0  0  0  0  0  0
   43.8442   -0.3036   -3.5741 C   0  0  0  0  0  0  0  0  0  0  0  0
   44.7221    0.1291   -2.4390 N   0  0  0  0  0  0  0  0  0  0  0  0
   45.9869    0.9359   -2.8385 C   0  0  0  0  0  0  0  0  0  0  0  0
  1  2  1  6  0  0  0
  1  9  1  0  0  0  0
  1 35  1  0  0  0  0
  3  4  1  1  0  0  0
  3 11  1  0  0  0  0
  3 45  1  0  0  0  0
  5  6  1  0  0  0  0
  5 12  1  0  0  0  0
  5 37  1  1  0  0  0
  6 30  1  0  0  0  0
  7 14  1  0  0  0  0
  7 41  1  0  0  0  0
  7 23  1  6  0  0  0
  8 16  2  0  0  0  0
  8 42  1  0  0  0  0
  9 10  1  6  0  0  0
  9 18  1  0  0  0  0
 11 20  1  0  0  0  0
 12 13  1  6  0  0  0
 12 22  1  0  0  0  0
 13 47  1  0  0  0  0
 14 15  1  6  0  0  0
 14 24  1  0  0  0  0
 16 17  1  0  0  0  0
 17 26  2  0  0  0  0
 18 19  1  6  0  0  0
 18 27  1  0  0  0  0
 20 21  1  1  0  0  0
 20 29  1  0  0  0  0
 22 23  1  6  0  0  0
 22 30  1  0  0  0  0
 24 25  1  1  0  0  0
 24 31  1  0  0  0  0
 26 33  1  0  0  0  0
 27 28  1  6  0  0  0
 27 34  1  0  0  0  0
 29  2  1  6  0  0  0
 29 36  1  0  0  0  0
 30 38  1  1  0  0  0
 31 32  1  6  0  0  0
 31 40  1  0  0  0  0
 33 42  2  0  0  0  0
 34 35  1  0  0  0  0
 34 43  1  1  0  0  0
 36 37  1  6  0  0  0
 36 45  1  0  0  0  0
 38 39  1  0  0  0  0
 40 41  1  0  0  0  0
 40 48  1  6  0  0  0
 43 44  1  0  0  0  0
 45 46  1  6  0  0  0
 47 50  1  0  0  0  0
 48 49  1  0  0  0  0
 50 51  1  0  0  0  0
 51 52  1  0  0  0  0
 52  8  1  0  0  0  0
M  END
>  <CHROM.1>
-142.26346456,-156.30583244,-74.59834969,-57.17768630,-172.39898124,62.92124347
-65.12055491,-62.38618543,-83.93776004,110.00477736,67.17070816,-54.59515191
-122.36445154,-74.74113834,-152.76279372,41.60085185,0.91648717,-1.20840236
1.49567136,0.45796453,0.22493583

>  <Name>
2be0_lig

>  <RI>
3.37048e+07

>  <Rbt.Current_Directory>
/home/itssahil/PROJECTS/Mol_Feturizer/New_Systems/rnas/2be0

>  <Rbt.Executable>
rbdock ($Id: //depot/dev/client3/rdock/2013.1/src/exe/rbdock.cxx#4 $)

>  <Rbt.Library>
libRbt.so (2013.1, Build901 2013/11/27)

>  <Rbt.Parameter_File>
/export/apps/rDock/src/rDock_2013.1_src/data/scripts/dock_solv.prm

>  <Rbt.Receptor>
prm/pocket_docking_8.prm

>  <SCORE>
-25.545

>  <SCORE.INTER>
-15.9049

>  <SCORE.INTER.CONST>
1

>  <SCORE.INTER.POLAR>
-1.76337

>  <SCORE.INTER.ROT>
15

>  <SCORE.INTER.SOLV>
12.4902

>  <SCORE.INTER.VDW>
-22.4888

>  <SCORE.INTER.norm>
-0.305863

>  <SCORE.INTRA>
-9.64009

>  <SCORE.INTRA.DIHEDRAL>
-27.5201

>  <SCORE.INTRA.DIHEDRAL.0>
47.8724

>  <SCORE.INTRA.POLAR>
0

>  <SCORE.INTRA.POLAR.0>
0

>  <SCORE.INTRA.REPUL>
0

>  <SCORE.INTRA.REPUL.0>
0

>  <SCORE.INTRA.SOLV>
2.42659

>  <SCORE.INTRA.SOLV.lig_0>
-115.677

>  <SCORE.INTRA.VDW>
2.90667

>  <SCORE.INTRA.VDW.0>
-7.4833

>  <SCORE.INTRA.norm>
-0.185386

>  <SCORE.RESTR>
0

>  <SCORE.RESTR.CAVITY>
0

>  <SCORE.RESTR.norm>
0

>  <SCORE.SYSTEM>
0

>  <SCORE.SYSTEM.CONST>
0

>  <SCORE.SYSTEM.DIHEDRAL>
0

>  <SCORE.SYSTEM.SOLV>
0

>  <SCORE.SYSTEM.norm>
0

>  <SCORE.heavy>
52

>  <SCORE.norm>
-0.49125

>  <RMSD>
10.046

$$$$
2be0_lig
 OpenBabel11021811423D
libRbt.so/2013.1/901 2013/11/27
 52 56  0  0  0  0  0  0  0  0999 V2000
   39.9745    1.9983   -3.7364 C   0  0  2  0  0  0  0  0  0  0  0  0
   39.4001    1.8614   -2.4581 O   0  0  0  0  0  0  0  0  0  0  0  0
   39.6346    4.2501    1.2311 C   0  0  2  0  0  0  0  0  0  0  0  0
   40.2273    4.9601    2.3990 N   0  0  0  0  0  0  0  0  0  0  0  0
   39.9461    5.9870   -2.8442 C   0  0  2  0  0  0  0  0  0  0  0  0
   39.3217    6.2986   -4.1065 O   0  0  0  0  0  0  0  0  0  0  0  0
   43.3474    6.4019   -6.2142 C   0  0  1  0  0  0  0  0  0  0  0  0
   42.2421   10.0056    1.3655 C   0  0  0  0  0  0  0  0  0  0  0  0
   39.2513    1.0671   -4.7926 C   0  0  2  0  0  0  0  0  0  0  0  0
   37.8112    1.3330   -4.7835 N   0  0  0  0  0  0  0  0  0  0  0  0
   40.0973    2.7225    1.2582 C   0  0  0  0  0  0  0  0  0  0  0  0
   41.3772    6.5440   -2.9085 C   0  0  2  0  0  0  0  0  0  0  0  0
   41.2152    7.9726   -2.4957 O   0  0  0  0  0  0  0  0  0  0  0  0
   44.7343    7.2100   -6.4689 C   0  0  2  0  0  0  0  0  0  0  0  0
   44.4342    8.6775   -6.5127 N   0  0  0  0  0  0  0  0  0  0  0  0
   41.8516    8.6337    1.2227 C   0  0  0  0  0  0  0  0  0  0  0  0
   40.9155    8.0710    2.1294 N   0  0  0  0  0  0  0  0  0  0  0  0
   39.5789   -0.4645   -4.4720 C   0  0  1  0  0  0  0  0  0  0  0  0
   38.9159   -1.2818   -5.4242 O   0  0  0  0  0  0  0  0  0  0  0  0
   39.4786    1.9101   -0.0174 C   0  0  2  0  0  0  0  0  0  0  0  0
   39.8858    0.5334   -0.0034 N   0  0  0  0  0  0  0  0  0  0  0  0
   41.6970    6.2030   -4.3762 C   0  0  2  0  0  0  0  0  0  0  0  0
   42.8028    6.8698   -4.9672 O   0  0  0  0  0  0  0  0  0  0  0  0
   45.3295    6.7229   -7.8245 C   0  0  1  0  0  0  0  0  0  0  0  0
   45.5982    5.2846   -7.6617 O   0  0  0  0  0  0  0  0  0  0  0  0
   40.3311    8.8090    3.1979 C   0  0  0  0  0  0  0  0  0  0  0  0
   41.1222   -0.6603   -4.5148 C   0  0  2  0  0  0  0  0  0  0  0  0
   41.4894   -2.0665   -4.2201 O   0  0  0  0  0  0  0  0  0  0  0  0
   39.9516    2.5898   -1.3679 C   0  0  2  0  0  0  0  0  0  0  0  0
   40.3538    6.4532   -5.1023 C   0  0  1  0  0  0  0  0  0  0  0  0
   44.2668    6.9900   -9.0267 C   0  0  2  0  0  0  0  0  0  0  0  0
   43.9931    8.4257   -9.1950 O   0  0  0  0  0  0  0  0  0  0  0  0
   40.6778   10.1694    3.3881 C   0  0  0  0  0  0  0  0  0  0  0  0
   41.8243    0.2753   -3.4570 C   0  0  2  0  0  0  0  0  0  0  0  0
   41.4245    1.6319   -3.7955 O   0  0  0  0  0  0  0  0  0  0  0  0
   39.4830    4.0860   -1.3389 C   0  0  2  0  0  0  0  0  0  0  0  0
   39.9444    4.5864   -2.5880 O   0  0  0  0  0  0  0  0  0  0  0  0
   40.0793    5.4192   -6.1930 C   0  0  0  0  0  0  0  0  0  0  0  0
   39.8227    4.1123   -5.7377 O   0  0  0  0  0  0  0  0  0  0  0  0
   42.9038    6.2180   -8.7121 C   0  0  1  0  0  0  0  0  0  0  0  0
   42.3859    6.6860   -7.3676 O   0  0  0  0  0  0  0  0  0  0  0  0
   41.6513   10.8033    2.4689 C   0  0  0  0  0  0  0  0  0  0  0  0
   43.2770    0.0625   -3.5591 C   0  0  0  0  0  0  0  0  0  0  0  0
   43.5938   -1.1203   -3.0173 O   0  0  0  0  0  0  0  0  0  0  0  0
   40.1259    4.8516   -0.1069 C   0  0  1  0  0  0  0  0  0  0  0  0
   39.6931    6.1722   -0.0894 O   0  0  0  0  0  0  0  0  0  0  0  0
   42.2717    8.9797   -2.2391 C   0  0  0  0  0  0  0  0  0  0  0  0
   41.9284    6.5177   -9.8828 C   0  0  0  0  0  0  0  0  0  0  0  0
   40.7294    5.7265   -9.7593 N   0  0  0  0  0  0  0  0  0  0  0  0
   41.5989   10.1812   -1.5675 C   0  0  0  0  0  0  0  0  0  0  0  0
   42.6489   11.0894   -1.0023 N   0  0  0  0  0  0  0  0  0  0  0  0
   43.3019   10.6162    0.3243 C   0  0  0  0  0  0  0  0  0  0  0  0
  1  2  1  1  0  0  0
  1  9  1  0  0  0  0
  1 35  1  0  0  0  0
  3  4  1  1  0  0  0
  3 11  1  0  0  0  0
  3 45  1  0  0  0  0
  5  6  1  0  0  0  0
  5 12  1  0  0  0  0
  5 37  1  6  0  0  0
  6 30  1  0  0  0  0
  7 14  1  0  0  0  0
  7 41  1  0  0  0  0
  7 23  1  1  0  0  0
  8 16  2  0  0  0  0
  8 42  1  0  0  0  0
  9 10  1  1  0  0  0
  9 18  1  0  0  0  0
 11 20  1  0  0  0  0
 12 13  1  6  0  0  0
 12 22  1  0  0  0  0
 13 47  1  0  0  0  0
 14 15  1  6  0  0  0
 14 24  1  0  0  0  0
 16 17  1  0  0  0  0
 17 26  2  0  0  0  0
 18 19  1  6  0  0  0
 18 27  1  0  0  0  0
 20 21  1  6  0  0  0
 20 29  1  0  0  0  0
 22 23  1  6  0  0  0
 22 30  1  0  0  0  0
 24 25  1  1  0  0  0
 24 31  1  0  0  0  0
 26 33  1  0  0  0  0
 27 28  1  1  0  0  0
 27 34  1  0  0  0  0
 29  2  1  6  0  0  0
 29 36  1  0  0  0  0
 30 38  1  6  0  0  0
 31 32  1  1  0  0  0
 31 40  1  0  0  0  0
 33 42  2  0  0  0  0
 34 35  1  0  0  0  0
 34 43  1  6  0  0  0
 36 37  1  6  0  0  0
 36 45  1  0  0  0  0
 38 39  1  0  0  0  0
 40 41  1  0  0  0  0
 40 48  1  6  0  0  0
 43 44  1  0  0  0  0
 45 46  1  1  0  0  0
 47 50  1  0  0  0  0
 48 49  1  0  0  0  0
 50 51  1  0  0  0  0
 51 52  1  0  0  0  0
 52  8  1  0  0  0  0
M  END
>  <CHROM.1>
177.86341216,-130.17965616,-170.37649923,173.30289897,-168.31051632,166.21514629
-160.95402480,-47.90743517,-73.84726259,-167.74771152,172.97711787,167.07257308
-76.87514294,-41.87797882,83.17807433,41.34754572,5.08538677,-3.28292962
1.57644438,-1.19683443,-2.38733097

>  <Name>
2be0_lig

>  <RI>
0

>  <Rbt.Current_Directory>
/home/itssahil/PROJECTS/Mol_Feturizer/New_Systems/rnas/2be0

>  <Rbt.Executable>
rbdock ($Id: //depot/dev/client3/rdock/2013.1/src/exe/rbdock.cxx#4 $)

>  <Rbt.Library>
libRbt.so (2013.1, Build901 2013/11/27)

>  <Rbt.Parameter_File>
/export/apps/rDock/src/rDock_2013.1_src/data/scripts/dock_solv.prm

>  <Rbt.Receptor>
prm/pocket_docking_4.prm

>  <SCORE>
-26.9127

>  <SCORE.INTER>
-11.7918

>  <SCORE.INTER.CONST>
1

>  <SCORE.INTER.POLAR>
-1.74484

>  <SCORE.INTER.ROT>
15

>  <SCORE.INTER.SOLV>
21.9265

>  <SCORE.INTER.VDW>
-22.9539

>  <SCORE.INTER.norm>
-0.226766

>  <SCORE.INTRA>
-15.135

>  <SCORE.INTRA.DIHEDRAL>
-32.9486

>  <SCORE.INTRA.DIHEDRAL.0>
47.8724

>  <SCORE.INTRA.POLAR>
0

>  <SCORE.INTRA.POLAR.0>
0

>  <SCORE.INTRA.REPUL>
0

>  <SCORE.INTRA.REPUL.0>
0

>  <SCORE.INTRA.SOLV>
0.206249

>  <SCORE.INTRA.SOLV.lig_0>
-115.677

>  <SCORE.INTRA.VDW>
1.23613

>  <SCORE.INTRA.VDW.0>
-7.4833

>  <SCORE.INTRA.norm>
-0.291058

>  <SCORE.RESTR>
0.0141806

>  <SCORE.RESTR.CAVITY>
0.0141806

>  <SCORE.RESTR.norm>
0.000272704

>  <SCORE.SYSTEM>
0

>  <SCORE.SYSTEM.CONST>
0

>  <SCORE.SYSTEM.DIHEDRAL>
0

>  <SCORE.SYSTEM.SOLV>
0

>  <SCORE.SYSTEM.norm>
0

>  <SCORE.heavy>
52

>  <SCORE.norm>
-0.517551

>  <RMSD>
10.064

$$$$
2be0_lig
 OpenBabel11021811423D
libRbt.so/2013.1/901 2013/11/27
 52 56  0  0  0  0  0  0  0  0999 V2000
   40.0790    5.2408    0.4631 C   0  0  2  0  0  0  0  0  0  0  0  0
   39.1109    6.1521   -0.0007 O   0  0  0  0  0  0  0  0  0  0  0  0
   39.1349   10.3232   -1.4052 C   0  0  2  0  0  0  0  0  0  0  0  0
   39.4492   11.7787   -1.4515 N   0  0  0  0  0  0  0  0  0  0  0  0
   41.5983    6.4907   -2.7843 C   0  0  2  0  0  0  0  0  0  0  0  0
   42.5428    5.4190   -2.5851 O   0  0  0  0  0  0  0  0  0  0  0  0
   45.0377    7.3395   -5.2500 C   0  0  1  0  0  0  0  0  0  0  0  0
   43.5369    8.7301   -9.9887 C   0  0  0  0  0  0  0  0  0  0  0  0
   39.7727    4.7854    1.9479 C   0  0  2  0  0  0  0  0  0  0  0  0
   38.4084    4.2603    2.0337 N   0  0  0  0  0  0  0  0  0  0  0  0
   38.4697    9.9767    0.0040 C   0  0  0  0  0  0  0  0  0  0  0  0
   42.2711    7.5055   -3.7224 C   0  0  2  0  0  0  0  0  0  0  0  0
   41.9764    6.9687   -5.0871 O   0  0  0  0  0  0  0  0  0  0  0  0
   45.9477    6.0252   -4.9571 C   0  0  2  0  0  0  0  0  0  0  0  0
   47.1961    6.4537   -4.2475 N   0  0  0  0  0  0  0  0  0  0  0  0
   43.9682    9.5794   -8.9175 C   0  0  0  0  0  0  0  0  0  0  0  0
   44.8524   10.6568   -9.1866 N   0  0  0  0  0  0  0  0  0  0  0  0
   40.0050    6.0131    2.9452 C   0  0  1  0  0  0  0  0  0  0  0  0
   39.7182    5.5867    4.2681 O   0  0  0  0  0  0  0  0  0  0  0  0
   38.1219    8.3831    0.1009 C   0  0  2  0  0  0  0  0  0  0  0  0
   37.5206    8.0586    1.3636 N   0  0  0  0  0  0  0  0  0  0  0  0
   43.7043    7.4291   -3.1630 C   0  0  2  0  0  0  0  0  0  0  0  0
   44.7439    7.9479   -3.9795 O   0  0  0  0  0  0  0  0  0  0  0  0
   46.2856    5.3626   -6.3268 C   0  0  1  0  0  0  0  0  0  0  0  0
   44.9974    4.9703   -6.9218 O   0  0  0  0  0  0  0  0  0  0  0  0
   45.3474   10.9464  -10.4901 C   0  0  0  0  0  0  0  0  0  0  0  0
   41.4765    6.4984    2.7991 C   0  0  2  0  0  0  0  0  0  0  0  0
   41.7521    7.6432    3.7004 O   0  0  0  0  0  0  0  0  0  0  0  0
   39.4441    7.5320   -0.0917 C   0  0  2  0  0  0  0  0  0  0  0  0
   43.8718    5.9316   -2.8119 C   0  0  1  0  0  0  0  0  0  0  0  0
   47.0742    6.4210   -7.2774 C   0  0  2  0  0  0  0  0  0  0  0  0
   48.3627    6.8179   -6.6886 O   0  0  0  0  0  0  0  0  0  0  0  0
   44.9550   10.1422  -11.5884 C   0  0  0  0  0  0  0  0  0  0  0  0
   41.7622    6.9469    1.3142 C   0  0  2  0  0  0  0  0  0  0  0  0
   41.4716    5.7889    0.4839 O   0  0  0  0  0  0  0  0  0  0  0  0
   40.0613    7.9167   -1.4809 C   0  0  2  0  0  0  0  0  0  0  0  0
   41.2197    7.0941   -1.5514 O   0  0  0  0  0  0  0  0  0  0  0  0
   44.6577    5.7204   -1.5188 C   0  0  0  0  0  0  0  0  0  0  0  0
   44.0513    4.8722   -0.5732 O   0  0  0  0  0  0  0  0  0  0  0  0
   46.1649    7.7160   -7.4989 C   0  0  1  0  0  0  0  0  0  0  0  0
   45.8217    8.2996   -6.1438 O   0  0  0  0  0  0  0  0  0  0  0  0
   44.0341    9.0047  -11.3599 C   0  0  0  0  0  0  0  0  0  0  0  0
   43.1686    7.3729    1.2335 C   0  0  0  0  0  0  0  0  0  0  0  0
   43.9660    6.3362    1.5201 O   0  0  0  0  0  0  0  0  0  0  0  0
   40.4146    9.4627   -1.5291 C   0  0  1  0  0  0  0  0  0  0  0  0
   40.9506    9.7896   -2.7691 O   0  0  0  0  0  0  0  0  0  0  0  0
   42.5268    7.4161   -6.3883 C   0  0  0  0  0  0  0  0  0  0  0  0
   46.9703    8.6909   -8.4002 C   0  0  0  0  0  0  0  0  0  0  0  0
   47.9101    7.9660   -9.2188 N   0  0  0  0  0  0  0  0  0  0  0  0
   42.2728    6.2922   -7.3982 C   0  0  0  0  0  0  0  0  0  0  0  0
   43.1132    6.5188   -8.6185 N   0  0  0  0  0  0  0  0  0  0  0  0
   42.5351    7.5195   -9.6552 C   0  0  0  0  0  0  0  0  0  0  0  0
  1  2  1  1  0  0  0
  1  9  1  0  0  0  0
  1 35  1  0  0  0  0
  3  4  1  1  0  0  0
  3 11  1  0  0  0  0
  3 45  1  0  0  0  0
  5  6  1  0  0  0  0
  5 12  1  0  0  0  0
  5 37  1  1  0  0  0
  6 30  1  0  0  0  0
  7 14  1  0  0  0  0
  7 41  1  0  0  0  0
  7 23  1  1  0  0  0
  8 16  2  0  0  0  0
  8 42  1  0  0  0  0
  9 10  1  6  0  0  0
  9 18  1  0  0  0  0
 11 20  1  0  0  0  0
 12 13  1  6  0  0  0
 12 22  1  0  0  0  0
 13 47  1  0  0  0  0
 14 15  1  6  0  0  0
 14 24  1  0  0  0  0
 16 17  1  0  0  0  0
 17 26  2  0  0  0  0
 18 19  1  1  0  0  0
 18 27  1  0  0  0  0
 20 21  1  1  0  0  0
 20 29  1  0  0  0  0
 22 23  1  6  0  0  0
 22 30  1  0  0  0  0
 24 25  1  6  0  0  0
 24 31  1  0  0  0  0
 26 33  1  0  0  0  0
 27 28  1  1  0  0  0
 27 34  1  0  0  0  0
 29  2  1  6  0  0  0
 29 36  1  0  0  0  0
 30 38  1  1  0  0  0
 31 32  1  1  0  0  0
 31 40  1  0  0  0  0
 33 42  2  0  0  0  0
 34 35  1  0  0  0  0
 34 43  1  1  0  0  0
 36 37  1  1  0  0  0
 36 45  1  0  0  0  0
 38 39  1  0  0  0  0
 40 41  1  0  0  0  0
 40 48  1  6  0  0  0
 43 44  1  0  0  0  0
 45 46  1  6  0  0  0
 47 50  1  0  0  0  0
 48 49  1  0  0  0  0
 50 51  1  0  0  0  0
 51 52  1  0  0  0  0
 52  8  1  0  0  0  0
M  END
>  <CHROM.1>
104.78686383,-163.60859572,-80.34004205,-170.61393156,162.22310097,-63.96559809
-151.35667278,12.72137330,62.36799775,141.14582409,26.12261202,-165.03607689
-82.24067599,123.93641610,-58.91040909,42.77294039,7.35211630,-3.35965155
-2.12357360,0.51758806,-1.14321737

>  <Name>
2be0_lig

>  <RI>
224

>  <Rbt.Current_Directory>
/home/itssahil/PROJECTS/Mol_Feturizer/New_Systems/rnas/2be0

>  <Rbt.Executable>
rbdock ($Id: //depot/dev/client3/rdock/2013.1/src/exe/rbdock.cxx#4 $)

>  <Rbt.Library>
libRbt.so (2013.1, Build901 2013/11/27)

>  <Rbt.Parameter_File>
/export/apps/rDock/src/rDock_2013.1_src/data/scripts/dock_solv.prm

>  <Rbt.Receptor>
prm/blind_docking_100.prm

>  <SCORE>
-0.516986

>  <SCORE.INTER>
-11.4909

>  <SCORE.INTER.CONST>
1

>  <SCORE.INTER.POLAR>
-0.977474

>  <SCORE.INTER.ROT>
15

>  <SCORE.INTER.SOLV>
35.0505

>  <SCORE.INTER.VDW>
-29.6859

>  <SCORE.INTER.norm>
-0.22098

>  <SCORE.INTRA>
-0.886312

>  <SCORE.INTRA.DIHEDRAL>
-16.8146

>  <SCORE.INTRA.DIHEDRAL.0>
47.8724

>  <SCORE.INTRA.POLAR>
0

>  <SCORE.INTRA.POLAR.0>
0

>  <SCORE.INTRA.REPUL>
0.199843

>  <SCORE.INTRA.REPUL.0>
0

>  <SCORE.INTRA.SOLV>
6.37867

>  <SCORE.INTRA.SOLV.lig_0>
-115.677

>  <SCORE.INTRA.VDW>
3.33244

>  <SCORE.INTRA.VDW.0>
-7.4833

>  <SCORE.INTRA.norm>
-0.0170445

>  <SCORE.RESTR>
11.8603

>  <SCORE.RESTR.CAVITY>
11.8603

>  <SCORE.RESTR.norm>
0.228082

>  <SCORE.SYSTEM>
0

>  <SCORE.SYSTEM.CONST>
0

>  <SCORE.SYSTEM.DIHEDRAL>
0

>  <SCORE.SYSTEM.SOLV>
0

>  <SCORE.SYSTEM.norm>
0

>  <SCORE.heavy>
52

>  <SCORE.norm>
-0.00994204

>  <RMSD>
10.093

$$$$
2be0_lig
 OpenBabel11021811423D
libRbt.so/2013.1/901 2013/11/27
 52 56  0  0  0  0  0  0  0  0999 V2000
   41.1553    1.9019   -7.7544 C   0  0  2  0  0  0  0  0  0  0  0  0
   40.8992    3.2342   -7.3772 O   0  0  0  0  0  0  0  0  0  0  0  0
   39.3032    4.5978   -3.5089 C   0  0  2  0  0  0  0  0  0  0  0  0
   38.3148    4.9152   -2.4403 N   0  0  0  0  0  0  0  0  0  0  0  0
   40.8462    0.4075   -4.4585 C   0  0  2  0  0  0  0  0  0  0  0  0
   41.3404   -0.7537   -5.1569 O   0  0  0  0  0  0  0  0  0  0  0  0
   37.3575   -2.8960   -4.6184 C   0  0  1  0  0  0  0  0  0  0  0  0
   43.5692    4.5884   -1.0376 C   0  0  0  0  0  0  0  0  0  0  0  0
   42.0835    1.8370   -9.0351 C   0  0  2  0  0  0  0  0  0  0  0  0
   43.3062    2.6080   -8.8003 N   0  0  0  0  0  0  0  0  0  0  0  0
   38.9046    5.3839   -4.8398 C   0  0  0  0  0  0  0  0  0  0  0  0
   39.7389   -0.0829   -3.5119 C   0  0  2  0  0  0  0  0  0  0  0  0
   40.4886   -0.5185   -2.2931 O   0  0  0  0  0  0  0  0  0  0  0  0
   36.3551   -3.6724   -3.6018 C   0  0  2  0  0  0  0  0  0  0  0  0
   37.1729   -4.5158   -2.6716 N   0  0  0  0  0  0  0  0  0  0  0  0
   44.2401    5.7055   -1.6351 C   0  0  0  0  0  0  0  0  0  0  0  0
   44.6661    6.7875   -0.8209 N   0  0  0  0  0  0  0  0  0  0  0  0
   41.2777    2.3669  -10.3101 C   0  0  1  0  0  0  0  0  0  0  0  0
   42.1287    2.3078  -11.4444 O   0  0  0  0  0  0  0  0  0  0  0  0
   39.9584    5.0512   -6.0433 C   0  0  2  0  0  0  0  0  0  0  0  0
   39.6120    5.7543   -7.2462 N   0  0  0  0  0  0  0  0  0  0  0  0
   39.0932   -1.1371   -4.4308 C   0  0  2  0  0  0  0  0  0  0  0  0
   38.2439   -2.0950   -3.8163 O   0  0  0  0  0  0  0  0  0  0  0  0
   35.3968   -4.5556   -4.4567 C   0  0  1  0  0  0  0  0  0  0  0  0
   34.6390   -3.6286   -5.3133 O   0  0  0  0  0  0  0  0  0  0  0  0
   44.4581    6.8269    0.5873 C   0  0  0  0  0  0  0  0  0  0  0  0
   40.0065    1.4878  -10.4931 C   0  0  2  0  0  0  0  0  0  0  0  0
   39.2129    1.9355  -11.6630 O   0  0  0  0  0  0  0  0  0  0  0  0
   39.9762    3.4926   -6.3261 C   0  0  2  0  0  0  0  0  0  0  0  0
   40.3033   -1.7560   -5.1704 C   0  0  1  0  0  0  0  0  0  0  0  0
   36.2580   -5.6089   -5.3482 C   0  0  2  0  0  0  0  0  0  0  0  0
   37.0185   -6.5386   -4.4985 O   0  0  0  0  0  0  0  0  0  0  0  0
   43.8017    5.7508    1.2338 C   0  0  0  0  0  0  0  0  0  0  0  0
   39.0956    1.5649   -9.2079 C   0  0  2  0  0  0  0  0  0  0  0  0
   39.9273    1.1197   -8.1011 O   0  0  0  0  0  0  0  0  0  0  0  0
   40.3614    2.7692   -4.9892 C   0  0  2  0  0  0  0  0  0  0  0  0
   40.3591    1.3960   -5.3602 O   0  0  0  0  0  0  0  0  0  0  0  0
   39.9970   -2.0608   -6.6358 C   0  0  0  0  0  0  0  0  0  0  0  0
   39.0605   -1.2075   -7.2490 O   0  0  0  0  0  0  0  0  0  0  0  0
   37.2627   -4.8057   -6.2960 C   0  0  1  0  0  0  0  0  0  0  0  0
   38.1414   -3.9269   -5.4298 O   0  0  0  0  0  0  0  0  0  0  0  0
   43.3368    4.5978    0.4283 C   0  0  0  0  0  0  0  0  0  0  0  0
   37.9254    0.7006   -9.4308 C   0  0  0  0  0  0  0  0  0  0  0  0
   37.0458    1.3344  -10.2164 O   0  0  0  0  0  0  0  0  0  0  0  0
   39.3017    3.0895   -3.8525 C   0  0  1  0  0  0  0  0  0  0  0  0
   39.6624    2.4501   -2.6724 O   0  0  0  0  0  0  0  0  0  0  0  0
   41.2187    0.3219   -1.3148 C   0  0  0  0  0  0  0  0  0  0  0  0
   38.0620   -5.8585   -7.1110 C   0  0  0  0  0  0  0  0  0  0  0  0
   37.2493   -6.4048   -8.1692 N   0  0  0  0  0  0  0  0  0  0  0  0
   42.4556    0.8771   -2.0283 C   0  0  0  0  0  0  0  0  0  0  0  0
   43.0179    2.0188   -1.2364 N   0  0  0  0  0  0  0  0  0  0  0  0
   43.0996    3.3775   -1.9829 C   0  0  0  0  0  0  0  0  0  0  0  0
  1  2  1  6  0  0  0
  1  9  1  0  0  0  0
  1 35  1  0  0  0  0
  3  4  1  1  0  0  0
  3 11  1  0  0  0  0
  3 45  1  0  0  0  0
  5  6  1  0  0  0  0
  5 12  1  0  0  0  0
  5 37  1  6  0  0  0
  6 30  1  0  0  0  0
  7 14  1  0  0  0  0
  7 41  1  0  0  0  0
  7 23  1  1  0  0  0
  8 16  2  0  0  0  0
  8 42  1  0  0  0  0
  9 10  1  1  0  0  0
  9 18  1  0  0  0  0
 11 20  1  0  0  0  0
 12 13  1  1  0  0  0
 12 22  1  0  0  0  0
 13 47  1  0  0  0  0
 14 15  1  1  0  0  0
 14 24  1  0  0  0  0
 16 17  1  0  0  0  0
 17 26  2  0  0  0  0
 18 19  1  6  0  0  0
 18 27  1  0  0  0  0
 20 21  1  6  0  0  0
 20 29  1  0  0  0  0
 22 23  1  1  0  0  0
 22 30  1  0  0  0  0
 24 25  1  6  0  0  0
 24 31  1  0  0  0  0
 26 33  1  0  0  0  0
 27 28  1  6  0  0  0
 27 34  1  0  0  0  0
 29  2  1  6  0  0  0
 29 36  1  0  0  0  0
 30 38  1  6  0  0  0
 31 32  1  1  0  0  0
 31 40  1  0  0  0  0
 33 42  2  0  0  0  0
 34 35  1  0  0  0  0
 34 43  1  6  0  0  0
 36 37  1  6  0  0  0
 36 45  1  0  0  0  0
 38 39  1  0  0  0  0
 40 41  1  0  0  0  0
 40 48  1  1  0  0  0
 43 44  1  0  0  0  0
 45 46  1  1  0  0  0
 47 50  1  0  0  0  0
 48 49  1  0  0  0  0
 50 51  1  0  0  0  0
 51 52  1  0  0  0  0
 52  8  1  0  0  0  0
M  END
>  <CHROM.1>
173.87060048,-153.26477956,-169.84839563,68.95501266,-69.41374438,164.84993603
176.00811480,-85.72697937,-78.57098141,171.21832951,76.22156964,164.26878738
-121.13823463,174.17111931,152.96096769,39.91287317,0.71384559,-5.24511697
-0.12437960,-1.06591547,-1.27591078

>  <Name>
2be0_lig

>  <RI>
0

>  <Rbt.Current_Directory>
/home/itssahil/PROJECTS/Mol_Feturizer/New_Systems/rnas/2be0

>  <Rbt.Executable>
rbdock ($Id: //depot/dev/client3/rdock/2013.1/src/exe/rbdock.cxx#4 $)

>  <Rbt.Library>
libRbt.so (2013.1, Build901 2013/11/27)

>  <Rbt.Parameter_File>
/export/apps/rDock/src/rDock_2013.1_src/data/scripts/dock_solv.prm

>  <Rbt.Receptor>
prm/pocket_docking_6.prm

>  <SCORE>
-18.7996

>  <SCORE.INTER>
-3.74043

>  <SCORE.INTER.CONST>
1

>  <SCORE.INTER.POLAR>
-0.876925

>  <SCORE.INTER.ROT>
15

>  <SCORE.INTER.SOLV>
11.5784

>  <SCORE.INTER.VDW>
-17.03

>  <SCORE.INTER.norm>
-0.0719314

>  <SCORE.INTRA>
-15.0685

>  <SCORE.INTRA.DIHEDRAL>
-34.5274

>  <SCORE.INTRA.DIHEDRAL.0>
47.8724

>  <SCORE.INTRA.POLAR>
0

>  <SCORE.INTRA.POLAR.0>
0

>  <SCORE.INTRA.REPUL>
0

>  <SCORE.INTRA.REPUL.0>
0

>  <SCORE.INTRA.SOLV>
-1.84738

>  <SCORE.INTRA.SOLV.lig_0>
-115.677

>  <SCORE.INTRA.VDW>
3.1189

>  <SCORE.INTRA.VDW.0>
-7.4833

>  <SCORE.INTRA.norm>
-0.289778

>  <SCORE.RESTR>
0.00935295

>  <SCORE.RESTR.CAVITY>
0.00935295

>  <SCORE.RESTR.norm>
0.000179864

>  <SCORE.SYSTEM>
0

>  <SCORE.SYSTEM.CONST>
0

>  <SCORE.SYSTEM.DIHEDRAL>
0

>  <SCORE.SYSTEM.SOLV>
0

>  <SCORE.SYSTEM.norm>
0

>  <SCORE.heavy>
52

>  <SCORE.norm>
-0.36153

>  <RMSD>
10.102

$$$$
2be0_lig
 OpenBabel11021811423D
libRbt.so/2013.1/901 2013/11/27
 52 56  0  0  0  0  0  0  0  0999 V2000
   40.8549    4.9592   -1.1410 C   0  0  2  0  0  0  0  0  0  0  0  0
   40.3641    6.1114   -1.7847 O   0  0  0  0  0  0  0  0  0  0  0  0
   41.2047   10.4295   -1.9214 C   0  0  2  0  0  0  0  0  0  0  0  0
   41.7291   11.7631   -1.5140 N   0  0  0  0  0  0  0  0  0  0  0  0
   43.2757    6.7239   -4.0709 C   0  0  2  0  0  0  0  0  0  0  0  0
   43.2729    5.3028   -4.3173 O   0  0  0  0  0  0  0  0  0  0  0  0
   47.3175    6.0912   -5.2750 C   0  0  1  0  0  0  0  0  0  0  0  0
   44.7689   10.2486  -10.9201 C   0  0  0  0  0  0  0  0  0  0  0  0
   40.1609    4.7492    0.2661 C   0  0  2  0  0  0  0  0  0  0  0  0
   38.7055    4.7350    0.1036 N   0  0  0  0  0  0  0  0  0  0  0  0
   40.2885    9.8482   -0.7506 C   0  0  0  0  0  0  0  0  0  0  0  0
   44.7221    7.2049   -4.2686 C   0  0  2  0  0  0  0  0  0  0  0  0
   44.8129    7.4427   -5.7426 O   0  0  0  0  0  0  0  0  0  0  0  0
   46.8129    4.8402   -6.1815 C   0  0  2  0  0  0  0  0  0  0  0  0
   47.3632    3.5732   -5.6006 N   0  0  0  0  0  0  0  0  0  0  0  0
   44.9512   11.3300   -9.9970 C   0  0  0  0  0  0  0  0  0  0  0  0
   45.6702   12.4855  -10.4006 N   0  0  0  0  0  0  0  0  0  0  0  0
   40.6388    5.8918    1.2769 C   0  0  1  0  0  0  0  0  0  0  0  0
   40.0003    5.6902    2.5283 O   0  0  0  0  0  0  0  0  0  0  0  0
   39.7037    8.3765   -1.1531 C   0  0  2  0  0  0  0  0  0  0  0  0
   38.8755    7.8432   -0.1085 N   0  0  0  0  0  0  0  0  0  0  0  0
   45.4571    6.0060   -3.6400 C   0  0  2  0  0  0  0  0  0  0  0  0
   46.8392    5.8694   -3.9361 O   0  0  0  0  0  0  0  0  0  0  0  0
   47.3357    5.0601   -7.6332 C   0  0  1  0  0  0  0  0  0  0  0  0
   46.7232    6.3130   -8.1047 O   0  0  0  0  0  0  0  0  0  0  0  0
   46.2348   12.6329  -11.6997 C   0  0  0  0  0  0  0  0  0  0  0  0
   42.1889    5.8272    1.4003 C   0  0  2  0  0  0  0  0  0  0  0  0
   42.6937    6.8703    2.3256 O   0  0  0  0  0  0  0  0  0  0  0  0
   40.9029    7.3818   -1.4395 C   0  0  2  0  0  0  0  0  0  0  0  0
   44.6004    4.7933   -4.0752 C   0  0  1  0  0  0  0  0  0  0  0  0
   48.9590    5.1640   -7.6302 C   0  0  2  0  0  0  0  0  0  0  0  0
   49.5781    3.9151   -7.1596 O   0  0  0  0  0  0  0  0  0  0  0  0
   46.0860   11.5975  -12.6551 C   0  0  0  0  0  0  0  0  0  0  0  0
   42.8616    6.0379   -0.0106 C   0  0  2  0  0  0  0  0  0  0  0  0
   42.3262    4.9930   -0.8687 O   0  0  0  0  0  0  0  0  0  0  0  0
   41.7748    8.0027   -2.5855 C   0  0  2  0  0  0  0  0  0  0  0  0
   42.7992    7.0324   -2.7650 O   0  0  0  0  0  0  0  0  0  0  0  0
   44.4799    3.7400   -2.9750 C   0  0  0  0  0  0  0  0  0  0  0  0
   45.5744    2.8636   -2.8531 O   0  0  0  0  0  0  0  0  0  0  0  0
   49.4121    6.3739   -6.6902 C   0  0  1  0  0  0  0  0  0  0  0  0
   48.8445    6.1443   -5.3046 O   0  0  0  0  0  0  0  0  0  0  0  0
   45.3446   10.3703  -12.2827 C   0  0  0  0  0  0  0  0  0  0  0  0
   44.3198    5.9452    0.1657 C   0  0  0  0  0  0  0  0  0  0  0  0
   44.9327    6.4907   -0.8924 O   0  0  0  0  0  0  0  0  0  0  0  0
   42.3506    9.4155   -2.1497 C   0  0  1  0  0  0  0  0  0  0  0  0
   43.1118    9.9567   -3.1789 O   0  0  0  0  0  0  0  0  0  0  0  0
   43.8530    8.1550   -6.6187 C   0  0  0  0  0  0  0  0  0  0  0  0
   50.9642    6.4171   -6.7175 C   0  0  0  0  0  0  0  0  0  0  0  0
   51.5156    5.3349   -5.9405 N   0  0  0  0  0  0  0  0  0  0  0  0
   44.4672    8.2000   -8.0216 C   0  0  0  0  0  0  0  0  0  0  0  0
   43.5791    8.9959   -8.9297 N   0  0  0  0  0  0  0  0  0  0  0  0
   43.9498    8.9541  -10.4367 C   0  0  0  0  0  0  0  0  0  0  0  0
  1  2  1  1  0  0  0
  1  9  1  0  0  0  0
  1 35  1  0  0  0  0
  3  4  1  1  0  0  0
  3 11  1  0  0  0  0
  3 45  1  0  0  0  0
  5  6  1  0  0  0  0
  5 12  1  0  0  0  0
  5 37  1  1  0  0  0
  6 30  1  0  0  0  0
  7 14  1  0  0  0  0
  7 41  1  0  0  0  0
  7 23  1  1  0  0  0
  8 16  2  0  0  0  0
  8 42  1  0  0  0  0
  9 10  1  6  0  0  0
  9 18  1  0  0  0  0
 11 20  1  0  0  0  0
 12 13  1  6  0  0  0
 12 22  1  0  0  0  0
 13 47  1  0  0  0  0
 14 15  1  1  0  0  0
 14 24  1  0  0  0  0
 16 17  1  0  0  0  0
 17 26  2  0  0  0  0
 18 19  1  1  0  0  0
 18 27  1  0  0  0  0
 20 21  1  1  0  0  0
 20 29  1  0  0  0  0
 22 23  1  6  0  0  0
 22 30  1  0  0  0  0
 24 25  1  1  0  0  0
 24 31  1  0  0  0  0
 26 33  1  0  0  0  0
 27 28  1  1  0  0  0
 27 34  1  0  0  0  0
 29  2  1  6  0  0  0
 29 36  1  0  0  0  0
 30 38  1  1  0  0  0
 31 32  1  1  0  0  0
 31 40  1  0  0  0  0
 33 42  2  0  0  0  0
 34 35  1  0  0  0  0
 34 43  1  1  0  0  0
 36 37  1  1  0  0  0
 36 45  1  0  0  0  0
 38 39  1  0  0  0  0
 40 41  1  0  0  0  0
 40 48  1  1  0  0  0
 43 44  1  0  0  0  0
 45 46  1  6  0  0  0
 47 50  1  0  0  0  0
 48 49  1  0  0  0  0
 50 51  1  0  0  0  0
 51 52  1  0  0  0  0
 52  8  1  0  0  0  0
M  END
>  <CHROM.1>
82.38297970,-129.09043539,-71.55205731,46.24420616,176.09824014,-42.32625827
-130.71332839,162.77264814,-162.18515437,141.44370049,-74.01495755,-176.05037642
-171.01178289,-99.61867054,-6.10866082,44.23364445,7.06893669,-4.23929550
-2.27663582,0.61449472,-0.91388801

>  <Name>
2be0_lig

>  <RI>
224

>  <Rbt.Current_Directory>
/home/itssahil/PROJECTS/Mol_Feturizer/New_Systems/rnas/2be0

>  <Rbt.Executable>
rbdock ($Id: //depot/dev/client3/rdock/2013.1/src/exe/rbdock.cxx#4 $)

>  <Rbt.Library>
libRbt.so (2013.1, Build901 2013/11/27)

>  <Rbt.Parameter_File>
/export/apps/rDock/src/rDock_2013.1_src/data/scripts/dock_solv.prm

>  <Rbt.Receptor>
prm/blind_docking_100.prm

>  <SCORE>
-5.01779

>  <SCORE.INTER>
-15.3675

>  <SCORE.INTER.CONST>
1

>  <SCORE.INTER.POLAR>
-2.03166

>  <SCORE.INTER.ROT>
15

>  <SCORE.INTER.SOLV>
25.6662

>  <SCORE.INTER.VDW>
-25.6282

>  <SCORE.INTER.norm>
-0.295528

>  <SCORE.INTRA>
-6.51702

>  <SCORE.INTRA.DIHEDRAL>
-19.2241

>  <SCORE.INTRA.DIHEDRAL.0>
47.8724

>  <SCORE.INTRA.POLAR>
0

>  <SCORE.INTRA.POLAR.0>
0

>  <SCORE.INTRA.REPUL>
0

>  <SCORE.INTRA.REPUL.0>
0

>  <SCORE.INTRA.SOLV>
6.46047

>  <SCORE.INTRA.SOLV.lig_0>
-115.677

>  <SCORE.INTRA.VDW>
-0.135185

>  <SCORE.INTRA.VDW.0>
-7.4833

>  <SCORE.INTRA.norm>
-0.125327

>  <SCORE.RESTR>
16.8667

>  <SCORE.RESTR.CAVITY>
16.8667

>  <SCORE.RESTR.norm>
0.32436

>  <SCORE.SYSTEM>
0

>  <SCORE.SYSTEM.CONST>
0

>  <SCORE.SYSTEM.DIHEDRAL>
0

>  <SCORE.SYSTEM.SOLV>
0

>  <SCORE.SYSTEM.norm>
0

>  <SCORE.heavy>
52

>  <SCORE.norm>
-0.096496

>  <RMSD>
10.128

$$$$
2be0_lig
 OpenBabel11021811423D
libRbt.so/2013.1/901 2013/11/27
 52 56  0  0  0  0  0  0  0  0999 V2000
   43.5155    6.9635    1.1066 C   0  0  2  0  0  0  0  0  0  0  0  0
   43.9699    7.3056   -0.1816 O   0  0  0  0  0  0  0  0  0  0  0  0
   41.7268   11.0026   -1.0009 C   0  0  2  0  0  0  0  0  0  0  0  0
   41.4242   12.3656   -1.5208 N   0  0  0  0  0  0  0  0  0  0  0  0
   42.7938    8.0703   -3.9545 C   0  0  2  0  0  0  0  0  0  0  0  0
   41.5749    7.8972   -4.7059 O   0  0  0  0  0  0  0  0  0  0  0  0
   43.0321    5.2714   -7.4557 C   0  0  1  0  0  0  0  0  0  0  0  0
   46.9335   10.4587   -9.8683 C   0  0  0  0  0  0  0  0  0  0  0  0
   43.0347    5.4565    1.1634 C   0  0  2  0  0  0  0  0  0  0  0  0
   44.1030    4.5771    0.6838 N   0  0  0  0  0  0  0  0  0  0  0  0
   43.0381   11.0689   -0.0929 C   0  0  0  0  0  0  0  0  0  0  0  0
   43.8841    7.2742   -4.6894 C   0  0  2  0  0  0  0  0  0  0  0  0
   44.3709    8.2291   -5.7327 O   0  0  0  0  0  0  0  0  0  0  0  0
   43.2698    3.8127   -8.1317 C   0  0  2  0  0  0  0  0  0  0  0  0
   44.7401    3.5234   -8.1455 N   0  0  0  0  0  0  0  0  0  0  0  0
   48.0203   11.0548  -10.5883 C   0  0  0  0  0  0  0  0  0  0  0  0
   47.8462   11.4197  -11.9490 N   0  0  0  0  0  0  0  0  0  0  0  0
   41.6930    5.2879    0.3105 C   0  0  1  0  0  0  0  0  0  0  0  0
   41.2834    3.9303    0.3680 O   0  0  0  0  0  0  0  0  0  0  0  0
   43.4132    9.5880    0.4867 C   0  0  2  0  0  0  0  0  0  0  0  0
   44.5903    9.6343    1.3075 N   0  0  0  0  0  0  0  0  0  0  0  0
   43.0440    6.0512   -5.1034 C   0  0  2  0  0  0  0  0  0  0  0  0
   43.5754    5.2194   -6.1243 O   0  0  0  0  0  0  0  0  0  0  0  0
   42.6978    3.8582   -9.5808 C   0  0  1  0  0  0  0  0  0  0  0  0
   41.2574    4.1303   -9.4451 O   0  0  0  0  0  0  0  0  0  0  0  0
   46.6257   11.2204  -12.6551 C   0  0  0  0  0  0  0  0  0  0  0  0
   40.6123    6.2443    0.8933 C   0  0  2  0  0  0  0  0  0  0  0  0
   39.3410    6.1354    0.1376 O   0  0  0  0  0  0  0  0  0  0  0  0
   43.6440    8.5830   -0.7159 C   0  0  2  0  0  0  0  0  0  0  0  0
   41.6661    6.6644   -5.4491 C   0  0  1  0  0  0  0  0  0  0  0  0
   43.4391    5.0273  -10.4350 C   0  0  2  0  0  0  0  0  0  0  0  0
   44.8794    4.7621  -10.5743 O   0  0  0  0  0  0  0  0  0  0  0  0
   45.5163   10.6365  -11.9953 C   0  0  0  0  0  0  0  0  0  0  0  0
   41.1096    7.7397    0.8285 C   0  0  2  0  0  0  0  0  0  0  0  0
   42.3539    7.7801    1.5800 O   0  0  0  0  0  0  0  0  0  0  0  0
   42.3352    8.5633   -1.5794 C   0  0  2  0  0  0  0  0  0  0  0  0
   42.6484    7.6317   -2.6077 O   0  0  0  0  0  0  0  0  0  0  0  0
   40.5048    5.7824   -4.9936 C   0  0  0  0  0  0  0  0  0  0  0  0
   39.2234    6.3476   -5.1346 O   0  0  0  0  0  0  0  0  0  0  0  0
   43.2210    6.4343   -9.7100 C   0  0  1  0  0  0  0  0  0  0  0  0
   43.7468    6.3313   -8.2931 O   0  0  0  0  0  0  0  0  0  0  0  0
   45.6471   10.2373  -10.5748 C   0  0  0  0  0  0  0  0  0  0  0  0
   40.0594    8.5908    1.4106 C   0  0  0  0  0  0  0  0  0  0  0  0
   38.9952    8.6048    0.5982 O   0  0  0  0  0  0  0  0  0  0  0  0
   42.0181   10.0092   -2.1506 C   0  0  1  0  0  0  0  0  0  0  0  0
   40.8509    9.9773   -2.9043 O   0  0  0  0  0  0  0  0  0  0  0  0
   43.8110    8.4788   -7.0819 C   0  0  0  0  0  0  0  0  0  0  0  0
   43.9567    7.5053  -10.5606 C   0  0  0  0  0  0  0  0  0  0  0  0
   43.0987    8.6386  -10.8020 N   0  0  0  0  0  0  0  0  0  0  0  0
   44.6963    9.5348   -7.7516 C   0  0  0  0  0  0  0  0  0  0  0  0
   46.1098    9.0390   -7.8062 N   0  0  0  0  0  0  0  0  0  0  0  0
   47.1584   10.0572   -8.3293 C   0  0  0  0  0  0  0  0  0  0  0  0
  1  2  1  6  0  0  0
  1  9  1  0  0  0  0
  1 35  1  0  0  0  0
  3  4  1  6  0  0  0
  3 11  1  0  0  0  0
  3 45  1  0  0  0  0
  5  6  1  0  0  0  0
  5 12  1  0  0  0  0
  5 37  1  1  0  0  0
  6 30  1  0  0  0  0
  7 14  1  0  0  0  0
  7 41  1  0  0  0  0
  7 23  1  1  0  0  0
  8 16  2  0  0  0  0
  8 42  1  0  0  0  0
  9 10  1  6  0  0  0
  9 18  1  0  0  0  0
 11 20  1  0  0  0  0
 12 13  1  6  0  0  0
 12 22  1  0  0  0  0
 13 47  1  0  0  0  0
 14 15  1  6  0  0  0
 14 24  1  0  0  0  0
 16 17  1  0  0  0  0
 17 26  2  0  0  0  0
 18 19  1  1  0  0  0
 18 27  1  0  0  0  0
 20 21  1  6  0  0  0
 20 29  1  0  0  0  0
 22 23  1  6  0  0  0
 22 30  1  0  0  0  0
 24 25  1  1  0  0  0
 24 31  1  0  0  0  0
 26 33  1  0  0  0  0
 27 28  1  6  0  0  0
 27 34  1  0  0  0  0
 29  2  1  1  0  0  0
 29 36  1  0  0  0  0
 30 38  1  1  0  0  0
 31 32  1  1  0  0  0
 31 40  1  0  0  0  0
 33 42  2  0  0  0  0
 34 35  1  0  0  0  0
 34 43  1  1  0  0  0
 36 37  1  6  0  0  0
 36 45  1  0  0  0  0
 38 39  1  0  0  0  0
 40 41  1  0  0  0  0
 40 48  1  6  0  0  0
 43 44  1  0  0  0  0
 45 46  1  6  0  0  0
 47 50  1  0  0  0  0
 48 49  1  0  0  0  0
 50 51  1  0  0  0  0
 51 52  1  0  0  0  0
 52  8  1  0  0  0  0
M  END
>  <CHROM.1>
139.87453147,-95.91903677,-152.19709028,-85.13111720,-179.12640088,-104.86840653
26.22490968,56.64923595,-69.23934315,-112.30720396,131.59627097,58.00289831
-174.07551495,-65.09146209,-161.61128673,43.13536344,7.65110039,-4.74496332
-2.25341331,-1.07434793,-2.14479493

>  <Name>
2be0_lig

>  <RI>
224

>  <Rbt.Current_Directory>
/home/itssahil/PROJECTS/Mol_Feturizer/New_Systems/rnas/2be0

>  <Rbt.Executable>
rbdock ($Id: //depot/dev/client3/rdock/2013.1/src/exe/rbdock.cxx#4 $)

>  <Rbt.Library>
libRbt.so (2013.1, Build901 2013/11/27)

>  <Rbt.Parameter_File>
/export/apps/rDock/src/rDock_2013.1_src/data/scripts/dock_solv.prm

>  <Rbt.Receptor>
prm/blind_docking_100.prm

>  <SCORE>
29.103

>  <SCORE.INTER>
-1.98055

>  <SCORE.INTER.CONST>
1

>  <SCORE.INTER.POLAR>
-1.18814

>  <SCORE.INTER.ROT>
15

>  <SCORE.INTER.SOLV>
34.7667

>  <SCORE.INTER.VDW>
-22.5488

>  <SCORE.INTER.norm>
-0.0380875

>  <SCORE.INTRA>
12.0874

>  <SCORE.INTRA.DIHEDRAL>
-8.42761

>  <SCORE.INTRA.DIHEDRAL.0>
47.8724

>  <SCORE.INTRA.POLAR>
0

>  <SCORE.INTRA.POLAR.0>
0

>  <SCORE.INTRA.REPUL>
0.0219648

>  <SCORE.INTRA.REPUL.0>
0

>  <SCORE.INTRA.SOLV>
2.8487

>  <SCORE.INTRA.SOLV.lig_0>
-115.677

>  <SCORE.INTRA.VDW>
14.7671

>  <SCORE.INTRA.VDW.0>
-7.4833

>  <SCORE.INTRA.norm>
0.232451

>  <SCORE.RESTR>
18.9961

>  <SCORE.RESTR.CAVITY>
18.9961

>  <SCORE.RESTR.norm>
0.365309

>  <SCORE.SYSTEM>
0

>  <SCORE.SYSTEM.CONST>
0

>  <SCORE.SYSTEM.DIHEDRAL>
0

>  <SCORE.SYSTEM.SOLV>
0

>  <SCORE.SYSTEM.norm>
0

>  <SCORE.heavy>
52

>  <SCORE.norm>
0.559672

>  <RMSD>
10.142

$$$$
2be0_lig
 OpenBabel11021811423D
libRbt.so/2013.1/901 2013/11/27
 52 56  0  0  0  0  0  0  0  0999 V2000
   40.5067   -1.8365   -9.2563 C   0  0  2  0  0  0  0  0  0  0  0  0
   41.1615   -2.0931  -10.4763 O   0  0  0  0  0  0  0  0  0  0  0  0
   45.0598   -0.6402  -11.9127 C   0  0  2  0  0  0  0  0  0  0  0  0
   46.0955    0.2967  -12.4313 N   0  0  0  0  0  0  0  0  0  0  0  0
   43.7591   -0.6611   -7.6016 C   0  0  2  0  0  0  0  0  0  0  0  0
   44.4579   -1.8865   -7.3008 O   0  0  0  0  0  0  0  0  0  0  0  0
   41.5488   -3.1170   -4.1300 C   0  0  1  0  0  0  0  0  0  0  0  0
   43.2382    4.2399   -9.5813 C   0  0  0  0  0  0  0  0  0  0  0  0
   39.4115   -2.9379   -8.9508 C   0  0  2  0  0  0  0  0  0  0  0  0
   40.0197   -4.2691   -9.0023 N   0  0  0  0  0  0  0  0  0  0  0  0
   43.8113   -0.6418  -12.9075 C   0  0  0  0  0  0  0  0  0  0  0  0
   42.9642   -0.2838   -6.3414 C   0  0  2  0  0  0  0  0  0  0  0  0
   43.9582    0.4660   -5.5125 O   0  0  0  0  0  0  0  0  0  0  0  0
   40.1636   -3.3963   -4.9326 C   0  0  2  0  0  0  0  0  0  0  0  0
   39.2045   -2.2834   -4.6373 N   0  0  0  0  0  0  0  0  0  0  0  0
   44.1390    4.8360  -10.5237 C   0  0  0  0  0  0  0  0  0  0  0  0
   44.0166    6.2149  -10.8381 N   0  0  0  0  0  0  0  0  0  0  0  0
   38.2007   -2.7930   -9.9847 C   0  0  1  0  0  0  0  0  0  0  0  0
   37.2348   -3.7927   -9.6989 O   0  0  0  0  0  0  0  0  0  0  0  0
   42.6440   -1.6487  -12.3658 C   0  0  2  0  0  0  0  0  0  0  0  0
   41.5157   -1.6610  -13.2535 N   0  0  0  0  0  0  0  0  0  0  0  0
   42.5190   -1.6947   -5.9124 C   0  0  2  0  0  0  0  0  0  0  0  0
   42.0548   -1.8470   -4.5791 O   0  0  0  0  0  0  0  0  0  0  0  0
   39.5962   -4.7639   -4.4460 C   0  0  1  0  0  0  0  0  0  0  0  0
   40.6051   -5.7760   -4.7996 O   0  0  0  0  0  0  0  0  0  0  0  0
   43.0257    7.0574  -10.2582 C   0  0  0  0  0  0  0  0  0  0  0  0
   37.6074   -1.3600   -9.8547 C   0  0  2  0  0  0  0  0  0  0  0  0
   36.4783   -1.1635  -10.7958 O   0  0  0  0  0  0  0  0  0  0  0  0
   42.1769   -1.2011  -10.9198 C   0  0  2  0  0  0  0  0  0  0  0  0
   43.7446   -2.5754   -6.2533 C   0  0  1  0  0  0  0  0  0  0  0  0
   39.3439   -4.7216   -2.8396 C   0  0  2  0  0  0  0  0  0  0  0  0
   38.3368   -3.7117   -2.4786 O   0  0  0  0  0  0  0  0  0  0  0  0
   42.1082    6.5244   -9.3195 C   0  0  0  0  0  0  0  0  0  0  0  0
   38.7127   -0.2778  -10.1620 C   0  0  2  0  0  0  0  0  0  0  0  0
   39.7880   -0.5244   -9.2144 O   0  0  0  0  0  0  0  0  0  0  0  0
   43.4380   -1.2060   -9.9879 C   0  0  2  0  0  0  0  0  0  0  0  0
   42.9046   -0.8065   -8.7312 O   0  0  0  0  0  0  0  0  0  0  0  0
   43.3445   -3.9407   -6.8100 C   0  0  0  0  0  0  0  0  0  0  0  0
   44.3992   -4.8562   -6.9851 O   0  0  0  0  0  0  0  0  0  0  0  0
   40.7194   -4.3968   -2.0942 C   0  0  1  0  0  0  0  0  0  0  0  0
   41.2583   -3.0863   -2.6298 O   0  0  0  0  0  0  0  0  0  0  0  0
   42.1936    5.0904   -8.9581 C   0  0  0  0  0  0  0  0  0  0  0  0
   38.1006    1.0511  -10.0027 C   0  0  0  0  0  0  0  0  0  0  0  0
   37.8102    1.2569   -8.7120 O   0  0  0  0  0  0  0  0  0  0  0  0
   44.5372   -0.1962  -10.5259 C   0  0  1  0  0  0  0  0  0  0  0  0
   45.6516   -0.2197   -9.6958 O   0  0  0  0  0  0  0  0  0  0  0  0
   44.2321    1.9225   -5.5014 C   0  0  0  0  0  0  0  0  0  0  0  0
   40.4159   -4.3583   -0.5717 C   0  0  0  0  0  0  0  0  0  0  0  0
   41.6394   -4.3857    0.1904 N   0  0  0  0  0  0  0  0  0  0  0  0
   44.5293    2.3387   -6.9457 C   0  0  0  0  0  0  0  0  0  0  0  0
   43.2526    2.3636   -7.7304 N   0  0  0  0  0  0  0  0  0  0  0  0
   43.4008    2.6779   -9.2435 C   0  0  0  0  0  0  0  0  0  0  0  0
  1  2  1  6  0  0  0
  1  9  1  0  0  0  0
  1 35  1  0  0  0  0
  3  4  1  6  0  0  0
  3 11  1  0  0  0  0
  3 45  1  0  0  0  0
  5  6  1  0  0  0  0
  5 12  1  0  0  0  0
  5 37  1  6  0  0  0
  6 30  1  0  0  0  0
  7 14  1  0  0  0  0
  7 41  1  0  0  0  0
  7 23  1  6  0  0  0
  8 16  2  0  0  0  0
  8 42  1  0  0  0  0
  9 10  1  6  0  0  0
  9 18  1  0  0  0  0
 11 20  1  0  0  0  0
 12 13  1  1  0  0  0
 12 22  1  0  0  0  0
 13 47  1  0  0  0  0
 14 15  1  1  0  0  0
 14 24  1  0  0  0  0
 16 17  1  0  0  0  0
 17 26  2  0  0  0  0
 18 19  1  1  0  0  0
 18 27  1  0  0  0  0
 20 21  1  6  0  0  0
 20 29  1  0  0  0  0
 22 23  1  1  0  0  0
 22 30  1  0  0  0  0
 24 25  1  1  0  0  0
 24 31  1  0  0  0  0
 26 33  1  0  0  0  0
 27 28  1  6  0  0  0
 27 34  1  0  0  0  0
 29  2  1  1  0  0  0
 29 36  1  0  0  0  0
 30 38  1  6  0  0  0
 31 32  1  6  0  0  0
 31 40  1  0  0  0  0
 33 42  2  0  0  0  0
 34 35  1  0  0  0  0
 34 43  1  1  0  0  0
 36 37  1  1  0  0  0
 36 45  1  0  0  0  0
 38 39  1  0  0  0  0
 40 41  1  0  0  0  0
 40 48  1  1  0  0  0
 43 44  1  0  0  0  0
 45 46  1  1  0  0  0
 47 50  1  0  0  0  0
 48 49  1  0  0  0  0
 50 51  1  0  0  0  0
 51 52  1  0  0  0  0
 52  8  1  0  0  0  0
M  END
>  <CHROM.1>
179.69045920,-58.22935439,-67.48797430,90.52629466,-54.01911767,176.35668118
-174.86516063,71.37123615,67.96424158,-178.71513363,166.46580890,74.32089680
-176.11375441,-92.97213515,137.68148870,41.72678036,-0.92133249,-7.81716266
1.17401470,-0.77401365,-1.08787979

>  <Name>
2be0_lig

>  <RI>
3.37048e+07

>  <Rbt.Current_Directory>
/home/itssahil/PROJECTS/Mol_Feturizer/New_Systems/rnas/2be0

>  <Rbt.Executable>
rbdock ($Id: //depot/dev/client3/rdock/2013.1/src/exe/rbdock.cxx#4 $)

>  <Rbt.Library>
libRbt.so (2013.1, Build901 2013/11/27)

>  <Rbt.Parameter_File>
/export/apps/rDock/src/rDock_2013.1_src/data/scripts/dock_solv.prm

>  <Rbt.Receptor>
prm/pocket_docking_8.prm

>  <SCORE>
-16.8585

>  <SCORE.INTER>
2.96146

>  <SCORE.INTER.CONST>
1

>  <SCORE.INTER.POLAR>
0

>  <SCORE.INTER.ROT>
15

>  <SCORE.INTER.SOLV>
12.0359

>  <SCORE.INTER.VDW>
-15.6376

>  <SCORE.INTER.norm>
0.0569512

>  <SCORE.INTRA>
-19.8199

>  <SCORE.INTRA.DIHEDRAL>
-39.9688

>  <SCORE.INTRA.DIHEDRAL.0>
47.8724

>  <SCORE.INTRA.POLAR>
0

>  <SCORE.INTRA.POLAR.0>
0

>  <SCORE.INTRA.REPUL>
0

>  <SCORE.INTRA.REPUL.0>
0

>  <SCORE.INTRA.SOLV>
-1.59018

>  <SCORE.INTRA.SOLV.lig_0>
-115.677

>  <SCORE.INTRA.VDW>
0.95954

>  <SCORE.INTRA.VDW.0>
-7.4833

>  <SCORE.INTRA.norm>
-0.381152

>  <SCORE.RESTR>
0

>  <SCORE.RESTR.CAVITY>
0

>  <SCORE.RESTR.norm>
0

>  <SCORE.SYSTEM>
0

>  <SCORE.SYSTEM.CONST>
0

>  <SCORE.SYSTEM.DIHEDRAL>
0

>  <SCORE.SYSTEM.SOLV>
0

>  <SCORE.SYSTEM.norm>
0

>  <SCORE.heavy>
52

>  <SCORE.norm>
-0.324201

>  <RMSD>
10.185

$$$$
2be0_lig
 OpenBabel11021811423D
libRbt.so/2013.1/901 2013/11/27
 52 56  0  0  0  0  0  0  0  0999 V2000
   40.0103    0.5298   -5.3946 C   0  0  2  0  0  0  0  0  0  0  0  0
   39.2484    0.8691   -4.2600 O   0  0  0  0  0  0  0  0  0  0  0  0
   39.3337    4.3617   -1.5832 C   0  0  2  0  0  0  0  0  0  0  0  0
   39.8497    5.3534   -0.5985 N   0  0  0  0  0  0  0  0  0  0  0  0
   40.6678    4.4633   -5.8308 C   0  0  2  0  0  0  0  0  0  0  0  0
   40.6145    4.2650   -7.2585 O   0  0  0  0  0  0  0  0  0  0  0  0
   45.1980    4.5310   -5.7454 C   0  0  1  0  0  0  0  0  0  0  0  0
   45.9509   10.1808   -8.8700 C   0  0  0  0  0  0  0  0  0  0  0  0
   39.3064   -0.6099   -6.2379 C   0  0  2  0  0  0  0  0  0  0  0  0
   37.9380   -0.2073   -6.5698 N   0  0  0  0  0  0  0  0  0  0  0  0
   39.4526    2.8966   -0.9606 C   0  0  0  0  0  0  0  0  0  0  0  0
   42.0827    4.9686   -5.5063 C   0  0  2  0  0  0  0  0  0  0  0  0
   41.9853    6.4450   -5.7253 O   0  0  0  0  0  0  0  0  0  0  0  0
   46.5298    5.2276   -6.3635 C   0  0  2  0  0  0  0  0  0  0  0  0
   46.9904    4.4230   -7.5409 N   0  0  0  0  0  0  0  0  0  0  0  0
   47.2225    9.8574   -9.4472 C   0  0  0  0  0  0  0  0  0  0  0  0
   48.2011   10.8732   -9.6071 N   0  0  0  0  0  0  0  0  0  0  0  0
   39.3443   -1.9839   -5.4215 C   0  0  1  0  0  0  0  0  0  0  0  0
   38.7025   -2.9893   -6.1904 O   0  0  0  0  0  0  0  0  0  0  0  0
   38.9087    1.7753   -2.0174 C   0  0  2  0  0  0  0  0  0  0  0  0
   39.0082    0.4525   -1.4682 N   0  0  0  0  0  0  0  0  0  0  0  0
   42.8770    4.0984   -6.4985 C   0  0  2  0  0  0  0  0  0  0  0  0
   44.2073    4.5017   -6.7886 O   0  0  0  0  0  0  0  0  0  0  0  0
   47.6175    5.2540   -5.2476 C   0  0  1  0  0  0  0  0  0  0  0  0
   47.0681    6.0781   -4.1583 O   0  0  0  0  0  0  0  0  0  0  0  0
   47.9846   12.2263   -9.2192 C   0  0  0  0  0  0  0  0  0  0  0  0
   40.8293   -2.3419   -5.1233 C   0  0  2  0  0  0  0  0  0  0  0  0
   40.9290   -3.6102   -4.3613 O   0  0  0  0  0  0  0  0  0  0  0  0
   39.7422    1.8557   -3.3622 C   0  0  2  0  0  0  0  0  0  0  0  0
   41.9554    4.0399   -7.7401 C   0  0  1  0  0  0  0  0  0  0  0  0
   47.9302    3.7407   -4.7396 C   0  0  2  0  0  0  0  0  0  0  0  0
   48.4794    2.9110   -5.8233 O   0  0  0  0  0  0  0  0  0  0  0  0
   46.7475   12.6053   -8.6421 C   0  0  0  0  0  0  0  0  0  0  0  0
   41.5130   -1.1953   -4.2835 C   0  0  2  0  0  0  0  0  0  0  0  0
   41.3797    0.0156   -5.0777 O   0  0  0  0  0  0  0  0  0  0  0  0
   39.6013    3.3127   -3.9247 C   0  0  2  0  0  0  0  0  0  0  0  0
   40.3682    3.2653   -5.1218 O   0  0  0  0  0  0  0  0  0  0  0  0
   41.9643    2.6661   -8.4084 C   0  0  0  0  0  0  0  0  0  0  0  0
   42.7904    1.7021   -7.8004 O   0  0  0  0  0  0  0  0  0  0  0  0
   46.5860    3.0778   -4.1859 C   0  0  1  0  0  0  0  0  0  0  0  0
   45.5439    3.1154   -5.2847 O   0  0  0  0  0  0  0  0  0  0  0  0
   45.6928   11.5822   -8.4546 C   0  0  0  0  0  0  0  0  0  0  0  0
   42.9149   -1.5790   -4.0523 C   0  0  0  0  0  0  0  0  0  0  0  0
   42.9624   -2.5851   -3.1701 O   0  0  0  0  0  0  0  0  0  0  0  0
   40.1661    4.3718   -2.8871 C   0  0  1  0  0  0  0  0  0  0  0  0
   40.0248    5.6576   -3.3955 O   0  0  0  0  0  0  0  0  0  0  0  0
   43.0686    7.4549   -5.6704 C   0  0  0  0  0  0  0  0  0  0  0  0
   46.9421    1.6373   -3.7278 C   0  0  0  0  0  0  0  0  0  0  0  0
   45.7823    0.9772   -3.1823 N   0  0  0  0  0  0  0  0  0  0  0  0
   43.8373    7.3672   -6.9928 C   0  0  0  0  0  0  0  0  0  0  0  0
   44.5928    8.6423   -7.2162 N   0  0  0  0  0  0  0  0  0  0  0  0
   44.8632    9.0111   -8.6998 C   0  0  0  0  0  0  0  0  0  0  0  0
  1  2  1  1  0  0  0
  1  9  1  0  0  0  0
  1 35  1  0  0  0  0
  3  4  1  1  0  0  0
  3 11  1  0  0  0  0
  3 45  1  0  0  0  0
  5  6  1  0  0  0  0
  5 12  1  0  0  0  0
  5 37  1  1  0  0  0
  6 30  1  0  0  0  0
  7 14  1  0  0  0  0
  7 41  1  0  0  0  0
  7 23  1  6  0  0  0
  8 16  2  0  0  0  0
  8 42  1  0  0  0  0
  9 10  1  1  0  0  0
  9 18  1  0  0  0  0
 11 20  1  0  0  0  0
 12 13  1  6  0  0  0
 12 22  1  0  0  0  0
 13 47  1  0  0  0  0
 14 15  1  6  0  0  0
 14 24  1  0  0  0  0
 16 17  1  0  0  0  0
 17 26  2  0  0  0  0
 18 19  1  6  0  0  0
 18 27  1  0  0  0  0
 20 21  1  1  0  0  0
 20 29  1  0  0  0  0
 22 23  1  6  0  0  0
 22 30  1  0  0  0  0
 24 25  1  1  0  0  0
 24 31  1  0  0  0  0
 26 33  1  0  0  0  0
 27 28  1  1  0  0  0
 27 34  1  0  0  0  0
 29  2  1  6  0  0  0
 29 36  1  0  0  0  0
 30 38  1  1  0  0  0
 31 32  1  6  0  0  0
 31 40  1  0  0  0  0
 33 42  2  0  0  0  0
 34 35  1  0  0  0  0
 34 43  1  6  0  0  0
 36 37  1  6  0  0  0
 36 45  1  0  0  0  0
 38 39  1  0  0  0  0
 40 41  1  0  0  0  0
 40 48  1  6  0  0  0
 43 44  1  0  0  0  0
 45 46  1  6  0  0  0
 47 50  1  0  0  0  0
 48 49  1  0  0  0  0
 50 51  1  0  0  0  0
 51 52  1  0  0  0  0
 52  8  1  0  0  0  0
M  END
>  <CHROM.1>
178.46067718,-141.88506320,-172.19227136,-174.69060111,78.76745732,62.81962689
-165.51229876,-116.30798173,-71.65391731,-170.05488703,178.64310244,159.57292171
-152.57511203,-166.63977976,111.64616682,42.92488173,3.66777596,-5.47882324
2.14861512,-0.24447434,2.92850181

>  <Name>
2be0_lig

>  <RI>
0

>  <Rbt.Current_Directory>
/home/itssahil/PROJECTS/Mol_Feturizer/New_Systems/rnas/2be0

>  <Rbt.Executable>
rbdock ($Id: //depot/dev/client3/rdock/2013.1/src/exe/rbdock.cxx#4 $)

>  <Rbt.Library>
libRbt.so (2013.1, Build901 2013/11/27)

>  <Rbt.Parameter_File>
/export/apps/rDock/src/rDock_2013.1_src/data/scripts/dock_solv.prm

>  <Rbt.Receptor>
prm/pocket_docking_4.prm

>  <SCORE>
-22.5021

>  <SCORE.INTER>
-8.01323

>  <SCORE.INTER.CONST>
1

>  <SCORE.INTER.POLAR>
-0.95108

>  <SCORE.INTER.ROT>
15

>  <SCORE.INTER.SOLV>
9.89683

>  <SCORE.INTER.VDW>
-19.0708

>  <SCORE.INTER.norm>
-0.154101

>  <SCORE.INTRA>
-14.4889

>  <SCORE.INTRA.DIHEDRAL>
-30.3055

>  <SCORE.INTRA.DIHEDRAL.0>
47.8724

>  <SCORE.INTRA.POLAR>
0

>  <SCORE.INTRA.POLAR.0>
0

>  <SCORE.INTRA.REPUL>
0

>  <SCORE.INTRA.REPUL.0>
0

>  <SCORE.INTRA.SOLV>
-2.76212

>  <SCORE.INTRA.SOLV.lig_0>
-115.677

>  <SCORE.INTRA.VDW>
2.04493

>  <SCORE.INTRA.VDW.0>
-7.4833

>  <SCORE.INTRA.norm>
-0.278632

>  <SCORE.RESTR>
0

>  <SCORE.RESTR.CAVITY>
0

>  <SCORE.RESTR.norm>
0

>  <SCORE.SYSTEM>
0

>  <SCORE.SYSTEM.CONST>
0

>  <SCORE.SYSTEM.DIHEDRAL>
0

>  <SCORE.SYSTEM.SOLV>
0

>  <SCORE.SYSTEM.norm>
0

>  <SCORE.heavy>
52

>  <SCORE.norm>
-0.432733

>  <RMSD>
10.188

$$$$
2be0_lig
 OpenBabel11021811423D
libRbt.so/2013.1/901 2013/11/27
 52 56  0  0  0  0  0  0  0  0999 V2000
   39.3535   -2.0491   -5.9044 C   0  0  2  0  0  0  0  0  0  0  0  0
   39.1702   -2.4551   -4.5686 O   0  0  0  0  0  0  0  0  0  0  0  0
   38.5307   -0.1173   -0.8948 C   0  0  2  0  0  0  0  0  0  0  0  0
   38.8063    0.8246    0.2261 N   0  0  0  0  0  0  0  0  0  0  0  0
   38.2496    1.6163   -4.8469 C   0  0  2  0  0  0  0  0  0  0  0  0
   38.0849    2.0205   -6.2216 O   0  0  0  0  0  0  0  0  0  0  0  0
   42.5864    2.9364   -4.7104 C   0  0  1  0  0  0  0  0  0  0  0  0
   39.0543    7.3249    0.3513 C   0  0  0  0  0  0  0  0  0  0  0  0
   38.9976   -3.2166   -6.9123 C   0  0  2  0  0  0  0  0  0  0  0  0
   37.6431   -3.7054   -6.6460 N   0  0  0  0  0  0  0  0  0  0  0  0
   39.6562   -1.2492   -0.9151 C   0  0  0  0  0  0  0  0  0  0  0  0
   39.5083    2.3269   -4.3241 C   0  0  2  0  0  0  0  0  0  0  0  0
   38.9992    3.6642   -3.8883 O   0  0  0  0  0  0  0  0  0  0  0  0
   43.2178    1.4502   -4.8949 C   0  0  2  0  0  0  0  0  0  0  0  0
   42.1391    0.4372   -4.6585 N   0  0  0  0  0  0  0  0  0  0  0  0
   39.3244    6.9618    1.7114 C   0  0  0  0  0  0  0  0  0  0  0  0
   38.4761    7.4340    2.7471 N   0  0  0  0  0  0  0  0  0  0  0  0
   40.0875   -4.3801   -6.7935 C   0  0  1  0  0  0  0  0  0  0  0  0
   39.7464   -5.4188   -7.6984 O   0  0  0  0  0  0  0  0  0  0  0  0
   39.3978   -2.2971   -2.1418 C   0  0  2  0  0  0  0  0  0  0  0  0
   40.4026   -3.3221   -2.1697 N   0  0  0  0  0  0  0  0  0  0  0  0
   40.3834    2.2155   -5.5869 C   0  0  2  0  0  0  0  0  0  0  0  0
   41.5166    3.0678   -5.6637 O   0  0  0  0  0  0  0  0  0  0  0  0
   44.3704    1.2882   -3.8583 C   0  0  1  0  0  0  0  0  0  0  0  0
   45.3714    2.3143   -4.1938 O   0  0  0  0  0  0  0  0  0  0  0  0
   37.3478    8.2684    2.5051 C   0  0  0  0  0  0  0  0  0  0  0  0
   41.4893   -3.7791   -7.1031 C   0  0  2  0  0  0  0  0  0  0  0  0
   42.5466   -4.8142   -7.0043 O   0  0  0  0  0  0  0  0  0  0  0  0
   39.3951   -1.5188   -3.5216 C   0  0  2  0  0  0  0  0  0  0  0  0
   39.3721    2.4126   -6.7413 C   0  0  1  0  0  0  0  0  0  0  0  0
   43.7963    1.4976   -2.3508 C   0  0  2  0  0  0  0  0  0  0  0  0
   42.7949    0.4757   -2.0087 O   0  0  0  0  0  0  0  0  0  0  0  0
   37.0305    8.6592    1.1809 C   0  0  0  0  0  0  0  0  0  0  0  0
   41.8254   -2.6183   -6.0897 C   0  0  2  0  0  0  0  0  0  0  0  0
   40.7565   -1.6424   -6.2308 O   0  0  0  0  0  0  0  0  0  0  0  0
   38.2834   -0.4156   -3.4453 C   0  0  2  0  0  0  0  0  0  0  0  0
   38.3621    0.2022   -4.7241 O   0  0  0  0  0  0  0  0  0  0  0  0
   39.6660    1.5055   -7.9349 C   0  0  0  0  0  0  0  0  0  0  0  0
   39.2615    0.1650   -7.7911 O   0  0  0  0  0  0  0  0  0  0  0  0
   43.1427    2.9504   -2.2283 C   0  0  1  0  0  0  0  0  0  0  0  0
   42.0624    3.0816   -3.2821 O   0  0  0  0  0  0  0  0  0  0  0  0
   37.8854    8.1934    0.0644 C   0  0  0  0  0  0  0  0  0  0  0  0
   43.1473   -2.0773   -6.4444 C   0  0  0  0  0  0  0  0  0  0  0  0
   44.0912   -2.9836   -6.1607 O   0  0  0  0  0  0  0  0  0  0  0  0
   38.5818    0.6009   -2.2641 C   0  0  1  0  0  0  0  0  0  0  0  0
   37.5830    1.5655   -2.2032 O   0  0  0  0  0  0  0  0  0  0  0  0
   39.7654    4.7965   -3.3163 C   0  0  0  0  0  0  0  0  0  0  0  0
   42.6045    3.0884   -0.7782 C   0  0  0  0  0  0  0  0  0  0  0  0
   43.6908    3.0732    0.1697 N   0  0  0  0  0  0  0  0  0  0  0  0
   38.7473    5.8353   -2.8350 C   0  0  0  0  0  0  0  0  0  0  0  0
   39.4711    7.0006   -2.2309 N   0  0  0  0  0  0  0  0  0  0  0  0
   40.0300    6.7749   -0.8002 C   0  0  0  0  0  0  0  0  0  0  0  0
  1  2  1  1  0  0  0
  1  9  1  0  0  0  0
  1 35  1  0  0  0  0
  3  4  1  1  0  0  0
  3 11  1  0  0  0  0
  3 45  1  0  0  0  0
  5  6  1  0  0  0  0
  5 12  1  0  0  0  0
  5 37  1  6  0  0  0
  6 30  1  0  0  0  0
  7 14  1  0  0  0  0
  7 41  1  0  0  0  0
  7 23  1  6  0  0  0
  8 16  2  0  0  0  0
  8 42  1  0  0  0  0
  9 10  1  1  0  0  0
  9 18  1  0  0  0  0
 11 20  1  0  0  0  0
 12 13  1  6  0  0  0
 12 22  1  0  0  0  0
 13 47  1  0  0  0  0
 14 15  1  1  0  0  0
 14 24  1  0  0  0  0
 16 17  1  0  0  0  0
 17 26  2  0  0  0  0
 18 19  1  6  0  0  0
 18 27  1  0  0  0  0
 20 21  1  6  0  0  0
 20 29  1  0  0  0  0
 22 23  1  1  0  0  0
 22 30  1  0  0  0  0
 24 25  1  6  0  0  0
 24 31  1  0  0  0  0
 26 33  1  0  0  0  0
 27 28  1  1  0  0  0
 27 34  1  0  0  0  0
 29  2  1  6  0  0  0
 29 36  1  0  0  0  0
 30 38  1  6  0  0  0
 31 32  1  6  0  0  0
 31 40  1  0  0  0  0
 33 42  2  0  0  0  0
 34 35  1  0  0  0  0
 34 43  1  6  0  0  0
 36 37  1  6  0  0  0
 36 45  1  0  0  0  0
 38 39  1  0  0  0  0
 40 41  1  0  0  0  0
 40 48  1  1  0  0  0
 43 44  1  0  0  0  0
 45 46  1  1  0  0  0
 47 50  1  0  0  0  0
 48 49  1  0  0  0  0
 50 51  1  0  0  0  0
 51 52  1  0  0  0  0
 52  8  1  0  0  0  0
M  END
>  <CHROM.1>
-177.71970922,-168.38056368,62.42403891,-178.87262106,-171.01966202,63.60016721
-169.05993551,-38.28562036,-69.50737105,-139.30958921,65.50680744,179.37674065
-76.94119429,-96.38057508,168.47857660,40.33049890,1.23779336,-3.65101421
1.42865426,-0.08399646,-2.56015320

>  <Name>
2be0_lig

>  <RI>
0

>  <Rbt.Current_Directory>
/home/itssahil/PROJECTS/Mol_Feturizer/New_Systems/rnas/2be0

>  <Rbt.Executable>
rbdock ($Id: //depot/dev/client3/rdock/2013.1/src/exe/rbdock.cxx#4 $)

>  <Rbt.Library>
libRbt.so (2013.1, Build901 2013/11/27)

>  <Rbt.Parameter_File>
/export/apps/rDock/src/rDock_2013.1_src/data/scripts/dock_solv.prm

>  <Rbt.Receptor>
prm/pocket_docking_6.prm

>  <SCORE>
-13.3205

>  <SCORE.INTER>
-0.372001

>  <SCORE.INTER.CONST>
1

>  <SCORE.INTER.POLAR>
0

>  <SCORE.INTER.ROT>
15

>  <SCORE.INTER.SOLV>
8.49115

>  <SCORE.INTER.VDW>
-16.6784

>  <SCORE.INTER.norm>
-0.00715387

>  <SCORE.INTRA>
-12.9485

>  <SCORE.INTRA.DIHEDRAL>
-36.435

>  <SCORE.INTRA.DIHEDRAL.0>
47.8724

>  <SCORE.INTRA.POLAR>
0

>  <SCORE.INTRA.POLAR.0>
0

>  <SCORE.INTRA.REPUL>
0.12528

>  <SCORE.INTRA.REPUL.0>
0

>  <SCORE.INTRA.SOLV>
3.52935

>  <SCORE.INTRA.SOLV.lig_0>
-115.677

>  <SCORE.INTRA.VDW>
2.87789

>  <SCORE.INTRA.VDW.0>
-7.4833

>  <SCORE.INTRA.norm>
-0.249011

>  <SCORE.RESTR>
0

>  <SCORE.RESTR.CAVITY>
0

>  <SCORE.RESTR.norm>
0

>  <SCORE.SYSTEM>
0

>  <SCORE.SYSTEM.CONST>
0

>  <SCORE.SYSTEM.DIHEDRAL>
0

>  <SCORE.SYSTEM.SOLV>
0

>  <SCORE.SYSTEM.norm>
0

>  <SCORE.heavy>
52

>  <SCORE.norm>
-0.256164

>  <RMSD>
10.188

$$$$
2be0_lig
 OpenBabel11021811423D
libRbt.so/2013.1/901 2013/11/27
 52 56  0  0  0  0  0  0  0  0999 V2000
   38.8015   -3.2608   -6.5318 C   0  0  2  0  0  0  0  0  0  0  0  0
   38.4287   -2.1140   -5.8046 O   0  0  0  0  0  0  0  0  0  0  0  0
   39.3429   -0.9575   -1.6576 C   0  0  2  0  0  0  0  0  0  0  0  0
   40.1418   -0.6358   -0.4420 N   0  0  0  0  0  0  0  0  0  0  0  0
   38.8103    1.9168   -5.1135 C   0  0  2  0  0  0  0  0  0  0  0  0
   38.5998    2.4991   -6.4162 O   0  0  0  0  0  0  0  0  0  0  0  0
   42.9028    3.7432   -4.6351 C   0  0  1  0  0  0  0  0  0  0  0  0
   41.8097    8.4955   -2.3378 C   0  0  0  0  0  0  0  0  0  0  0  0
   40.2116   -3.0671   -7.2244 C   0  0  2  0  0  0  0  0  0  0  0  0
   41.2067   -2.6791   -6.2225 N   0  0  0  0  0  0  0  0  0  0  0  0
   39.7280   -2.4217   -2.1638 C   0  0  0  0  0  0  0  0  0  0  0  0
   39.9817    2.6777   -4.4722 C   0  0  2  0  0  0  0  0  0  0  0  0
   39.3260    3.8706   -3.8522 O   0  0  0  0  0  0  0  0  0  0  0  0
   44.0691    4.8075   -5.0202 C   0  0  2  0  0  0  0  0  0  0  0  0
   44.6163    4.4532   -6.3696 N   0  0  0  0  0  0  0  0  0  0  0  0
   43.1186    8.5007   -2.9222 C   0  0  0  0  0  0  0  0  0  0  0  0
   44.1764    9.1885   -2.2718 N   0  0  0  0  0  0  0  0  0  0  0  0
   40.0905   -1.9870   -8.3968 C   0  0  1  0  0  0  0  0  0  0  0  0
   41.3651   -1.8226   -8.9990 O   0  0  0  0  0  0  0  0  0  0  0  0
   38.8820   -2.8082   -3.5072 C   0  0  2  0  0  0  0  0  0  0  0  0
   39.2177   -4.1246   -3.9716 N   0  0  0  0  0  0  0  0  0  0  0  0
   40.8625    2.8526   -5.7237 C   0  0  2  0  0  0  0  0  0  0  0  0
   41.8927    3.8276   -5.6564 O   0  0  0  0  0  0  0  0  0  0  0  0
   45.1781    4.7175   -3.9288 C   0  0  1  0  0  0  0  0  0  0  0  0
   44.5368    5.0987   -2.6596 O   0  0  0  0  0  0  0  0  0  0  0  0
   44.0057    9.8908   -1.0447 C   0  0  0  0  0  0  0  0  0  0  0  0
   39.0264   -2.4824   -9.4188 C   0  0  2  0  0  0  0  0  0  0  0  0
   38.8663   -1.5160  -10.5321 O   0  0  0  0  0  0  0  0  0  0  0  0
   39.1759   -1.7512   -4.6499 C   0  0  2  0  0  0  0  0  0  0  0  0
   39.8343    3.1047   -6.8522 C   0  0  1  0  0  0  0  0  0  0  0  0
   45.7674    3.2030   -3.8580 C   0  0  2  0  0  0  0  0  0  0  0  0
   46.4096    2.8149   -5.1234 O   0  0  0  0  0  0  0  0  0  0  0  0
   42.7349    9.9197   -0.4194 C   0  0  0  0  0  0  0  0  0  0  0  0
   37.6298   -2.6698   -8.7104 C   0  0  2  0  0  0  0  0  0  0  0  0
   37.8527   -3.6200   -7.6322 O   0  0  0  0  0  0  0  0  0  0  0  0
   38.7920   -0.3339   -4.0995 C   0  0  2  0  0  0  0  0  0  0  0  0
   39.0811    0.5215   -5.1986 O   0  0  0  0  0  0  0  0  0  0  0  0
   40.2271    2.4228   -8.1617 C   0  0  0  0  0  0  0  0  0  0  0  0
   40.1989    1.0156   -8.1440 O   0  0  0  0  0  0  0  0  0  0  0  0
   44.5806    2.1862   -3.5256 C   0  0  1  0  0  0  0  0  0  0  0  0
   43.5061    2.3400   -4.5822 O   0  0  0  0  0  0  0  0  0  0  0  0
   41.5977    9.2179   -1.0586 C   0  0  0  0  0  0  0  0  0  0  0  0
   36.6741   -3.1580   -9.7176 C   0  0  0  0  0  0  0  0  0  0  0  0
   36.4011   -2.1764  -10.5863 O   0  0  0  0  0  0  0  0  0  0  0  0
   39.6529    0.0212   -2.8149 C   0  0  1  0  0  0  0  0  0  0  0  0
   39.2940    1.2746   -2.3336 O   0  0  0  0  0  0  0  0  0  0  0  0
   39.8483    4.7529   -2.7820 C   0  0  0  0  0  0  0  0  0  0  0  0
   45.1981    0.7620   -3.4820 C   0  0  0  0  0  0  0  0  0  0  0  0
   44.5319   -0.0498   -2.4942 N   0  0  0  0  0  0  0  0  0  0  0  0
   38.8493    5.9024   -2.6147 C   0  0  0  0  0  0  0  0  0  0  0  0
   39.5700    7.1224   -2.1258 N   0  0  0  0  0  0  0  0  0  0  0  0
   40.6321    7.7079   -3.0950 C   0  0  0  0  0  0  0  0  0  0  0  0
  1  2  1  6  0  0  0
  1  9  1  0  0  0  0
  1 35  1  0  0  0  0
  3  4  1  1  0  0  0
  3 11  1  0  0  0  0
  3 45  1  0  0  0  0
  5  6  1  0  0  0  0
  5 12  1  0  0  0  0
  5 37  1  6  0  0  0
  6 30  1  0  0  0  0
  7 14  1  0  0  0  0
  7 41  1  0  0  0  0
  7 23  1  6  0  0  0
  8 16  2  0  0  0  0
  8 42  1  0  0  0  0
  9 10  1  1  0  0  0
  9 18  1  0  0  0  0
 11 20  1  0  0  0  0
 12 13  1  6  0  0  0
 12 22  1  0  0  0  0
 13 47  1  0  0  0  0
 14 15  1  6  0  0  0
 14 24  1  0  0  0  0
 16 17  1  0  0  0  0
 17 26  2  0  0  0  0
 18 19  1  6  0  0  0
 18 27  1  0  0  0  0
 20 21  1  6  0  0  0
 20 29  1  0  0  0  0
 22 23  1  1  0  0  0
 22 30  1  0  0  0  0
 24 25  1  1  0  0  0
 24 31  1  0  0  0  0
 26 33  1  0  0  0  0
 27 28  1  6  0  0  0
 27 34  1  0  0  0  0
 29  2  1  6  0  0  0
 29 36  1  0  0  0  0
 30 38  1  6  0  0  0
 31 32  1  6  0  0  0
 31 40  1  0  0  0  0
 33 42  2  0  0  0  0
 34 35  1  0  0  0  0
 34 43  1  6  0  0  0
 36 37  1  6  0  0  0
 36 45  1  0  0  0  0
 38 39  1  0  0  0  0
 40 41  1  0  0  0  0
 40 48  1  6  0  0  0
 43 44  1  0  0  0  0
 45 46  1  1  0  0  0
 47 50  1  0  0  0  0
 48 49  1  0  0  0  0
 50 51  1  0  0  0  0
 51 52  1  0  0  0  0
 52  8  1  0  0  0  0
M  END
>  <CHROM.1>
-66.79415874,-154.57122979,168.77487959,160.58368159,174.39110457,57.81303841
-70.45748864,-49.02552663,-70.44713054,177.43092725,145.87239419,-151.42113089
63.82685091,-152.49643357,149.07516552,40.88121728,1.80655054,-4.90217365
-2.00027058,-0.45959131,0.27630245

>  <Name>
2be0_lig

>  <RI>
0

>  <Rbt.Current_Directory>
/home/itssahil/PROJECTS/Mol_Feturizer/New_Systems/rnas/2be0

>  <Rbt.Executable>
rbdock ($Id: //depot/dev/client3/rdock/2013.1/src/exe/rbdock.cxx#4 $)

>  <Rbt.Library>
libRbt.so (2013.1, Build901 2013/11/27)

>  <Rbt.Parameter_File>
/export/apps/rDock/src/rDock_2013.1_src/data/scripts/dock_solv.prm

>  <Rbt.Receptor>
prm/pocket_docking_4.prm

>  <SCORE>
-10.5897

>  <SCORE.INTER>
2.19147

>  <SCORE.INTER.CONST>
1

>  <SCORE.INTER.POLAR>
-1.03559

>  <SCORE.INTER.ROT>
15

>  <SCORE.INTER.SOLV>
9.69953

>  <SCORE.INTER.VDW>
-11.9202

>  <SCORE.INTER.norm>
0.0421437

>  <SCORE.INTRA>
-12.7888

>  <SCORE.INTRA.DIHEDRAL>
-33.7305

>  <SCORE.INTRA.DIHEDRAL.0>
47.8724

>  <SCORE.INTRA.POLAR>
0

>  <SCORE.INTRA.POLAR.0>
0

>  <SCORE.INTRA.REPUL>
0

>  <SCORE.INTRA.REPUL.0>
0

>  <SCORE.INTRA.SOLV>
1.19561

>  <SCORE.INTRA.SOLV.lig_0>
-115.677

>  <SCORE.INTRA.VDW>
3.47867

>  <SCORE.INTRA.VDW.0>
-7.4833

>  <SCORE.INTRA.norm>
-0.245938

>  <SCORE.RESTR>
0.00756149

>  <SCORE.RESTR.CAVITY>
0.00756149

>  <SCORE.RESTR.norm>
0.000145413

>  <SCORE.SYSTEM>
0

>  <SCORE.SYSTEM.CONST>
0

>  <SCORE.SYSTEM.DIHEDRAL>
0

>  <SCORE.SYSTEM.SOLV>
0

>  <SCORE.SYSTEM.norm>
0

>  <SCORE.heavy>
52

>  <SCORE.norm>
-0.203649

>  <RMSD>
10.196

$$$$
2be0_lig
 OpenBabel11021811423D
libRbt.so/2013.1/901 2013/11/27
 52 56  0  0  0  0  0  0  0  0999 V2000
   42.2243    8.5261   -3.3414 C   0  0  2  0  0  0  0  0  0  0  0  0
   42.7750    7.3638   -3.9147 O   0  0  0  0  0  0  0  0  0  0  0  0
   41.8119    4.4460   -7.0659 C   0  0  2  0  0  0  0  0  0  0  0  0
   41.0192    3.7027   -8.0851 N   0  0  0  0  0  0  0  0  0  0  0  0
   44.0085    8.6594   -7.2222 C   0  0  2  0  0  0  0  0  0  0  0  0
   43.8777    8.6660   -8.6586 O   0  0  0  0  0  0  0  0  0  0  0  0
   47.3417    5.8816   -7.3129 C   0  0  1  0  0  0  0  0  0  0  0  0
   48.3315   12.0776  -10.0987 C   0  0  0  0  0  0  0  0  0  0  0  0
   43.0661    9.0011   -2.0878 C   0  0  2  0  0  0  0  0  0  0  0  0
   44.4712    9.1635   -2.4672 N   0  0  0  0  0  0  0  0  0  0  0  0
   41.0747    4.3432   -5.6537 C   0  0  0  0  0  0  0  0  0  0  0  0
   45.2638    7.8348   -6.8955 C   0  0  2  0  0  0  0  0  0  0  0  0
   46.3750    8.8296   -7.0095 O   0  0  0  0  0  0  0  0  0  0  0  0
   48.7231    6.0313   -8.1560 C   0  0  2  0  0  0  0  0  0  0  0  0
   48.7929    4.9248   -9.1641 N   0  0  0  0  0  0  0  0  0  0  0  0
   48.2378   10.7332  -10.5871 C   0  0  0  0  0  0  0  0  0  0  0  0
   49.3707   10.1216  -11.1850 N   0  0  0  0  0  0  0  0  0  0  0  0
   42.8863    7.9551   -0.8922 C   0  0  1  0  0  0  0  0  0  0  0  0
   43.6538    8.3947    0.2177 O   0  0  0  0  0  0  0  0  0  0  0  0
   41.9067    5.1594   -4.5084 C   0  0  2  0  0  0  0  0  0  0  0  0
   41.2549    5.0729   -3.2322 N   0  0  0  0  0  0  0  0  0  0  0  0
   45.1081    6.7356   -7.9633 C   0  0  2  0  0  0  0  0  0  0  0  0
   46.2561    5.9522   -8.2547 O   0  0  0  0  0  0  0  0  0  0  0  0
   49.9097    5.9430   -7.1494 C   0  0  1  0  0  0  0  0  0  0  0  0
   49.7492    7.0776   -6.2252 O   0  0  0  0  0  0  0  0  0  0  0  0
   50.6225   10.7845  -11.3317 C   0  0  0  0  0  0  0  0  0  0  0  0
   41.3723    7.8540   -0.5461 C   0  0  2  0  0  0  0  0  0  0  0  0
   41.1413    6.8915    0.5581 O   0  0  0  0  0  0  0  0  0  0  0  0
   42.0496    6.6799   -4.9294 C   0  0  2  0  0  0  0  0  0  0  0  0
   44.5454    7.5008   -9.1848 C   0  0  1  0  0  0  0  0  0  0  0  0
   49.8600    4.5251   -6.3538 C   0  0  2  0  0  0  0  0  0  0  0  0
   50.0193    3.3863   -7.2715 O   0  0  0  0  0  0  0  0  0  0  0  0
   50.7755   12.1140  -10.8668 C   0  0  0  0  0  0  0  0  0  0  0  0
   40.5511    7.3803   -1.8066 C   0  0  2  0  0  0  0  0  0  0  0  0
   40.8209    8.3571   -2.8496 O   0  0  0  0  0  0  0  0  0  0  0  0
   42.7676    6.7240   -6.3228 C   0  0  2  0  0  0  0  0  0  0  0  0
   42.8524    8.1183   -6.5912 O   0  0  0  0  0  0  0  0  0  0  0  0
   43.4967    6.6921   -9.9466 C   0  0  0  0  0  0  0  0  0  0  0  0
   42.7344    7.4173  -10.8816 O   0  0  0  0  0  0  0  0  0  0  0  0
   48.4678    4.3987   -5.5799 C   0  0  1  0  0  0  0  0  0  0  0  0
   47.3443    4.5369   -6.5866 O   0  0  0  0  0  0  0  0  0  0  0  0
   49.6224   12.7971  -10.2358 C   0  0  0  0  0  0  0  0  0  0  0  0
   39.1306    7.3246   -1.4256 C   0  0  0  0  0  0  0  0  0  0  0  0
   38.6523    8.5692   -1.3032 O   0  0  0  0  0  0  0  0  0  0  0  0
   41.9184    5.9490   -7.4163 C   0  0  1  0  0  0  0  0  0  0  0  0
   42.5724    5.9884   -8.6420 O   0  0  0  0  0  0  0  0  0  0  0  0
   46.9187    9.4625   -8.2343 C   0  0  0  0  0  0  0  0  0  0  0  0
   48.4730    3.0273   -4.8515 C   0  0  0  0  0  0  0  0  0  0  0  0
   47.4193    2.9706   -3.8690 N   0  0  0  0  0  0  0  0  0  0  0  0
   45.9203   10.5403   -8.6690 C   0  0  0  0  0  0  0  0  0  0  0  0
   46.4393   11.8897   -8.2736 N   0  0  0  0  0  0  0  0  0  0  0  0
   47.0341   12.7439   -9.4255 C   0  0  0  0  0  0  0  0  0  0  0  0
  1  2  1  1  0  0  0
  1  9  1  0  0  0  0
  1 35  1  0  0  0  0
  3  4  1  6  0  0  0
  3 11  1  0  0  0  0
  3 45  1  0  0  0  0
  5  6  1  0  0  0  0
  5 12  1  0  0  0  0
  5 37  1  1  0  0  0
  6 30  1  0  0  0  0
  7 14  1  0  0  0  0
  7 41  1  0  0  0  0
  7 23  1  6  0  0  0
  8 16  2  0  0  0  0
  8 42  1  0  0  0  0
  9 10  1  6  0  0  0
  9 18  1  0  0  0  0
 11 20  1  0  0  0  0
 12 13  1  6  0  0  0
 12 22  1  0  0  0  0
 13 47  1  0  0  0  0
 14 15  1  6  0  0  0
 14 24  1  0  0  0  0
 16 17  1  0  0  0  0
 17 26  2  0  0  0  0
 18 19  1  1  0  0  0
 18 27  1  0  0  0  0
 20 21  1  1  0  0  0
 20 29  1  0  0  0  0
 22 23  1  6  0  0  0
 22 30  1  0  0  0  0
 24 25  1  1  0  0  0
 24 31  1  0  0  0  0
 26 33  1  0  0  0  0
 27 28  1  1  0  0  0
 27 34  1  0  0  0  0
 29  2  1  1  0  0  0
 29 36  1  0  0  0  0
 30 38  1  1  0  0  0
 31 32  1  6  0  0  0
 31 40  1  0  0  0  0
 33 42  2  0  0  0  0
 34 35  1  0  0  0  0
 34 43  1  1  0  0  0
 36 37  1  6  0  0  0
 36 45  1  0  0  0  0
 38 39  1  0  0  0  0
 40 41  1  0  0  0  0
 40 48  1  6  0  0  0
 43 44  1  0  0  0  0
 45 46  1  6  0  0  0
 47 50  1  0  0  0  0
 48 49  1  0  0  0  0
 50 51  1  0  0  0  0
 51 52  1  0  0  0  0
 52  8  1  0  0  0  0
M  END
>  <CHROM.1>
171.00423889,90.04763873,-135.96078090,-70.88867794,76.27638655,20.09151157
-126.62202453,50.42028147,72.58514344,142.06622312,165.57295908,102.50617526
103.88192763,-63.21100419,53.86607424,44.96890308,7.41798453,-6.29766205
2.63758977,-0.62130457,2.65530079

>  <Name>
2be0_lig

>  <RI>
224

>  <Rbt.Current_Directory>
/home/itssahil/PROJECTS/Mol_Feturizer/New_Systems/rnas/2be0

>  <Rbt.Executable>
rbdock ($Id: //depot/dev/client3/rdock/2013.1/src/exe/rbdock.cxx#4 $)

>  <Rbt.Library>
libRbt.so (2013.1, Build901 2013/11/27)

>  <Rbt.Parameter_File>
/export/apps/rDock/src/rDock_2013.1_src/data/scripts/dock_solv.prm

>  <Rbt.Receptor>
prm/blind_docking_100.prm

>  <SCORE>
19.3022

>  <SCORE.INTER>
-11.9936

>  <SCORE.INTER.CONST>
1

>  <SCORE.INTER.POLAR>
-1.78326

>  <SCORE.INTER.ROT>
15

>  <SCORE.INTER.SOLV>
29.9711

>  <SCORE.INTER.VDW>
-25.6419

>  <SCORE.INTER.norm>
-0.230647

>  <SCORE.INTRA>
18.5614

>  <SCORE.INTRA.DIHEDRAL>
-10.4999

>  <SCORE.INTRA.DIHEDRAL.0>
47.8724

>  <SCORE.INTRA.POLAR>
0

>  <SCORE.INTRA.POLAR.0>
0

>  <SCORE.INTRA.REPUL>
0

>  <SCORE.INTRA.REPUL.0>
0

>  <SCORE.INTRA.SOLV>
1.02892

>  <SCORE.INTRA.SOLV.lig_0>
-115.677

>  <SCORE.INTRA.VDW>
23.2969

>  <SCORE.INTRA.VDW.0>
-7.4833

>  <SCORE.INTRA.norm>
0.356951

>  <SCORE.RESTR>
12.7344

>  <SCORE.RESTR.CAVITY>
12.7344

>  <SCORE.RESTR.norm>
0.244891

>  <SCORE.SYSTEM>
0

>  <SCORE.SYSTEM.CONST>
0

>  <SCORE.SYSTEM.DIHEDRAL>
0

>  <SCORE.SYSTEM.SOLV>
0

>  <SCORE.SYSTEM.norm>
0

>  <SCORE.heavy>
52

>  <SCORE.norm>
0.371195

>  <RMSD>
10.210

$$$$
2be0_lig
 OpenBabel11021811423D
libRbt.so/2013.1/901 2013/11/27
 52 56  0  0  0  0  0  0  0  0999 V2000
   42.4970    5.4540    0.9464 C   0  0  2  0  0  0  0  0  0  0  0  0
   43.1048    5.5824   -0.3173 O   0  0  0  0  0  0  0  0  0  0  0  0
   43.2245    9.9066   -1.1284 C   0  0  2  0  0  0  0  0  0  0  0  0
   43.7675   11.2415   -1.5061 N   0  0  0  0  0  0  0  0  0  0  0  0
   42.9997    6.9437   -4.2757 C   0  0  2  0  0  0  0  0  0  0  0  0
   42.9182    5.8311   -5.1899 O   0  0  0  0  0  0  0  0  0  0  0  0
   47.2665    5.3745   -5.7239 C   0  0  1  0  0  0  0  0  0  0  0  0
   46.7722   11.0556   -9.4495 C   0  0  0  0  0  0  0  0  0  0  0  0
   41.5233    4.2066    0.9900 C   0  0  2  0  0  0  0  0  0  0  0  0
   42.2449    3.0002    0.5795 N   0  0  0  0  0  0  0  0  0  0  0  0
   44.0875    9.3131    0.0762 C   0  0  0  0  0  0  0  0  0  0  0  0
   44.3633    7.6125   -4.5123 C   0  0  2  0  0  0  0  0  0  0  0  0
   44.1019    8.5454   -5.6519 O   0  0  0  0  0  0  0  0  0  0  0  0
   48.5605    5.3375   -4.7414 C   0  0  2  0  0  0  0  0  0  0  0  0
   49.3281    6.6135   -4.9096 N   0  0  0  0  0  0  0  0  0  0  0  0
   46.5302   11.0005  -10.8613 C   0  0  0  0  0  0  0  0  0  0  0  0
   47.5570   11.3777  -11.7660 N   0  0  0  0  0  0  0  0  0  0  0  0
   40.2500    4.4862    0.0646 C   0  0  1  0  0  0  0  0  0  0  0  0
   39.3947    3.3546    0.1116 O   0  0  0  0  0  0  0  0  0  0  0  0
   43.5318    7.8397    0.5123 C   0  0  2  0  0  0  0  0  0  0  0  0
   44.2987    7.2955    1.5972 N   0  0  0  0  0  0  0  0  0  0  0  0
   45.2106    6.3462   -4.7387 C   0  0  2  0  0  0  0  0  0  0  0  0
   46.4796    6.5203   -5.3518 O   0  0  0  0  0  0  0  0  0  0  0  0
   49.4302    4.1078   -5.1421 C   0  0  1  0  0  0  0  0  0  0  0  0
   48.5879    2.9204   -4.9231 O   0  0  0  0  0  0  0  0  0  0  0  0
   48.8421   11.8194  -11.3399 C   0  0  0  0  0  0  0  0  0  0  0  0
   39.5383    5.7721    0.5767 C   0  0  2  0  0  0  0  0  0  0  0  0
   38.3467    6.0860   -0.2482 O   0  0  0  0  0  0  0  0  0  0  0  0
   43.5920    6.8545   -0.7268 C   0  0  2  0  0  0  0  0  0  0  0  0
   44.2578    5.4143   -5.5248 C   0  0  1  0  0  0  0  0  0  0  0  0
   49.8813    4.2294   -6.7002 C   0  0  2  0  0  0  0  0  0  0  0  0
   50.7233    5.4144   -6.9266 O   0  0  0  0  0  0  0  0  0  0  0  0
   49.1398   11.8933   -9.9569 C   0  0  0  0  0  0  0  0  0  0  0  0
   40.5237    7.0025    0.5262 C   0  0  2  0  0  0  0  0  0  0  0  0
   41.6666    6.6333    1.3461 O   0  0  0  0  0  0  0  0  0  0  0  0
   42.7404    7.4872   -1.8816 C   0  0  2  0  0  0  0  0  0  0  0  0
   42.8541    6.5246   -2.9227 O   0  0  0  0  0  0  0  0  0  0  0  0
   44.3894    3.9529   -5.0990 C   0  0  0  0  0  0  0  0  0  0  0  0
   44.6172    3.7401   -3.7264 O   0  0  0  0  0  0  0  0  0  0  0  0
   48.5808    4.3117   -7.6248 C   0  0  1  0  0  0  0  0  0  0  0  0
   47.7428    5.4895   -7.1715 O   0  0  0  0  0  0  0  0  0  0  0  0
   48.1015   11.5113   -8.9718 C   0  0  0  0  0  0  0  0  0  0  0  0
   39.8042    8.1790    1.0403 C   0  0  0  0  0  0  0  0  0  0  0  0
   38.8850    8.5655    0.1468 O   0  0  0  0  0  0  0  0  0  0  0  0
   43.3254    8.9015   -2.3001 C   0  0  1  0  0  0  0  0  0  0  0  0
   42.5543    9.4531   -3.3163 O   0  0  0  0  0  0  0  0  0  0  0  0
   43.8953    8.2136   -7.0814 C   0  0  0  0  0  0  0  0  0  0  0  0
   49.0713    4.4372   -9.0929 C   0  0  0  0  0  0  0  0  0  0  0  0
   47.9643    4.3206  -10.0093 N   0  0  0  0  0  0  0  0  0  0  0  0
   45.2784    8.1589   -7.7384 C   0  0  0  0  0  0  0  0  0  0  0  0
   45.9930    9.4557   -7.5054 N   0  0  0  0  0  0  0  0  0  0  0  0
   45.5927   10.6216   -8.4491 C   0  0  0  0  0  0  0  0  0  0  0  0
  1  2  1  6  0  0  0
  1  9  1  0  0  0  0
  1 35  1  0  0  0  0
  3  4  1  6  0  0  0
  3 11  1  0  0  0  0
  3 45  1  0  0  0  0
  5  6  1  0  0  0  0
  5 12  1  0  0  0  0
  5 37  1  1  0  0  0
  6 30  1  0  0  0  0
  7 14  1  0  0  0  0
  7 41  1  0  0  0  0
  7 23  1  1  0  0  0
  8 16  2  0  0  0  0
  8 42  1  0  0  0  0
  9 10  1  6  0  0  0
  9 18  1  0  0  0  0
 11 20  1  0  0  0  0
 12 13  1  6  0  0  0
 12 22  1  0  0  0  0
 13 47  1  0  0  0  0
 14 15  1  6  0  0  0
 14 24  1  0  0  0  0
 16 17  1  0  0  0  0
 17 26  2  0  0  0  0
 18 19  1  1  0  0  0
 18 27  1  0  0  0  0
 20 21  1  1  0  0  0
 20 29  1  0  0  0  0
 22 23  1  6  0  0  0
 22 30  1  0  0  0  0
 24 25  1  6  0  0  0
 24 31  1  0  0  0  0
 26 33  1  0  0  0  0
 27 28  1  6  0  0  0
 27 34  1  0  0  0  0
 29  2  1  1  0  0  0
 29 36  1  0  0  0  0
 30 38  1  1  0  0  0
 31 32  1  1  0  0  0
 31 40  1  0  0  0  0
 33 42  2  0  0  0  0
 34 35  1  0  0  0  0
 34 43  1  1  0  0  0
 36 37  1  6  0  0  0
 36 45  1  0  0  0  0
 38 39  1  0  0  0  0
 40 41  1  0  0  0  0
 40 48  1  6  0  0  0
 43 44  1  0  0  0  0
 45 46  1  6  0  0  0
 47 50  1  0  0  0  0
 48 49  1  0  0  0  0
 50 51  1  0  0  0  0
 51 52  1  0  0  0  0
 52  8  1  0  0  0  0
M  END
>  <CHROM.1>
156.57826147,-172.25421200,-111.19030918,-73.45277744,-87.20450048,-173.43772232
9.32819567,-79.45821933,-71.50684989,-140.62075403,171.59915361,-55.62556042
-80.33483285,-112.50419604,121.80364994,44.67816091,6.98165805,-4.10527988
-2.57815035,0.77535548,-0.53712624

>  <Name>
2be0_lig

>  <RI>
224

>  <Rbt.Current_Directory>
/home/itssahil/PROJECTS/Mol_Feturizer/New_Systems/rnas/2be0

>  <Rbt.Executable>
rbdock ($Id: //depot/dev/client3/rdock/2013.1/src/exe/rbdock.cxx#4 $)

>  <Rbt.Library>
libRbt.so (2013.1, Build901 2013/11/27)

>  <Rbt.Parameter_File>
/export/apps/rDock/src/rDock_2013.1_src/data/scripts/dock_solv.prm

>  <Rbt.Receptor>
prm/blind_docking_100.prm

>  <SCORE>
18.3162

>  <SCORE.INTER>
-1.37909

>  <SCORE.INTER.CONST>
1

>  <SCORE.INTER.POLAR>
-1.82912

>  <SCORE.INTER.ROT>
15

>  <SCORE.INTER.SOLV>
35.0484

>  <SCORE.INTER.VDW>
-20.1051

>  <SCORE.INTER.norm>
-0.0265209

>  <SCORE.INTRA>
4.66298

>  <SCORE.INTRA.DIHEDRAL>
-17.5823

>  <SCORE.INTRA.DIHEDRAL.0>
47.8724

>  <SCORE.INTRA.POLAR>
0

>  <SCORE.INTRA.POLAR.0>
0

>  <SCORE.INTRA.REPUL>
0.116147

>  <SCORE.INTRA.REPUL.0>
0

>  <SCORE.INTRA.SOLV>
-0.0637525

>  <SCORE.INTRA.SOLV.lig_0>
-115.677

>  <SCORE.INTRA.VDW>
12.9053

>  <SCORE.INTRA.VDW.0>
-7.4833

>  <SCORE.INTRA.norm>
0.0896726

>  <SCORE.RESTR>
15.0323

>  <SCORE.RESTR.CAVITY>
15.0323

>  <SCORE.RESTR.norm>
0.289084

>  <SCORE.SYSTEM>
0

>  <SCORE.SYSTEM.CONST>
0

>  <SCORE.SYSTEM.DIHEDRAL>
0

>  <SCORE.SYSTEM.SOLV>
0

>  <SCORE.SYSTEM.norm>
0

>  <SCORE.heavy>
52

>  <SCORE.norm>
0.352235

>  <RMSD>
10.221

$$$$
2be0_lig
 OpenBabel11021811423D
libRbt.so/2013.1/901 2013/11/27
 52 56  0  0  0  0  0  0  0  0999 V2000
   41.5298   -0.6377   -3.2894 C   0  0  2  0  0  0  0  0  0  0  0  0
   41.0387   -1.9032   -2.9148 O   0  0  0  0  0  0  0  0  0  0  0  0
   38.8018   -3.2108    0.6428 C   0  0  2  0  0  0  0  0  0  0  0  0
   38.5029   -3.5129    2.0707 N   0  0  0  0  0  0  0  0  0  0  0  0
   38.7733    0.9802   -1.0488 C   0  0  2  0  0  0  0  0  0  0  0  0
   37.5097    0.7015   -1.6860 O   0  0  0  0  0  0  0  0  0  0  0  0
   39.8970    4.1164   -4.1613 C   0  0  1  0  0  0  0  0  0  0  0  0
   38.6229    7.9759   -0.2124 C   0  0  0  0  0  0  0  0  0  0  0  0
   41.4500   -0.4329   -4.8570 C   0  0  2  0  0  0  0  0  0  0  0  0
   40.0812   -0.6726   -5.3190 N   0  0  0  0  0  0  0  0  0  0  0  0
   40.1069   -4.0165    0.2003 C   0  0  0  0  0  0  0  0  0  0  0  0
   39.2412    2.3476   -1.5722 C   0  0  2  0  0  0  0  0  0  0  0  0
   38.5518    3.3216   -0.6703 O   0  0  0  0  0  0  0  0  0  0  0  0
   39.4345    5.5056   -4.8666 C   0  0  2  0  0  0  0  0  0  0  0  0
   38.6037    5.1798   -6.0705 N   0  0  0  0  0  0  0  0  0  0  0  0
   37.6648    8.3107    0.8000 C   0  0  0  0  0  0  0  0  0  0  0  0
   37.2367    9.6563    0.9455 N   0  0  0  0  0  0  0  0  0  0  0  0
   42.5024   -1.3958   -5.5790 C   0  0  1  0  0  0  0  0  0  0  0  0
   42.4097   -1.2025   -6.9819 O   0  0  0  0  0  0  0  0  0  0  0  0
   40.4778   -3.7009   -1.3594 C   0  0  2  0  0  0  0  0  0  0  0  0
   41.6494   -4.4218   -1.7708 N   0  0  0  0  0  0  0  0  0  0  0  0
   38.7868    2.2071   -3.0373 C   0  0  2  0  0  0  0  0  0  0  0  0
   38.7017    3.3998   -3.8033 O   0  0  0  0  0  0  0  0  0  0  0  0
   40.7203    6.2872   -5.2726 C   0  0  1  0  0  0  0  0  0  0  0  0
   41.4439    6.5654   -4.0210 O   0  0  0  0  0  0  0  0  0  0  0  0
   37.7179   10.7161    0.1249 C   0  0  0  0  0  0  0  0  0  0  0  0
   43.9252   -1.0661   -5.0415 C   0  0  2  0  0  0  0  0  0  0  0  0
   44.9481   -1.9336   -5.6742 O   0  0  0  0  0  0  0  0  0  0  0  0
   40.7166   -2.1466   -1.5509 C   0  0  2  0  0  0  0  0  0  0  0  0
   37.4488    1.4383   -2.9245 C   0  0  1  0  0  0  0  0  0  0  0  0
   41.6214    5.3880   -6.2852 C   0  0  2  0  0  0  0  0  0  0  0  0
   40.9043    5.1057   -7.5384 O   0  0  0  0  0  0  0  0  0  0  0  0
   38.6651   10.4455   -0.8932 C   0  0  0  0  0  0  0  0  0  0  0  0
   43.9845   -1.2754   -3.4794 C   0  0  2  0  0  0  0  0  0  0  0  0
   42.9617   -0.4058   -2.9204 O   0  0  0  0  0  0  0  0  0  0  0  0
   39.4137   -1.4035   -1.0933 C   0  0  2  0  0  0  0  0  0  0  0  0
   39.7337   -0.0359   -1.3182 O   0  0  0  0  0  0  0  0  0  0  0  0
   37.2688    0.4143   -4.0440 C   0  0  0  0  0  0  0  0  0  0  0  0
   37.1075    0.9506   -5.3353 O   0  0  0  0  0  0  0  0  0  0  0  0
   42.0123    4.0136   -5.5703 C   0  0  1  0  0  0  0  0  0  0  0  0
   40.7377    3.3106   -5.1512 O   0  0  0  0  0  0  0  0  0  0  0  0
   39.1445    9.0571   -1.0852 C   0  0  0  0  0  0  0  0  0  0  0  0
   45.3419   -0.9291   -3.0282 C   0  0  0  0  0  0  0  0  0  0  0  0
   45.4697   -1.2262   -1.7290 O   0  0  0  0  0  0  0  0  0  0  0  0
   39.1007   -1.7076    0.4321 C   0  0  1  0  0  0  0  0  0  0  0  0
   37.9386   -1.0509    0.8191 O   0  0  0  0  0  0  0  0  0  0  0  0
   38.7723    3.5471    0.7777 C   0  0  0  0  0  0  0  0  0  0  0  0
   42.8585    3.1961   -6.5838 C   0  0  0  0  0  0  0  0  0  0  0  0
   44.1581    3.7952   -6.7594 N   0  0  0  0  0  0  0  0  0  0  0  0
   40.0338    4.4056    0.9157 C   0  0  0  0  0  0  0  0  0  0  0  0
   39.6488    5.8533    0.9661 N   0  0  0  0  0  0  0  0  0  0  0  0
   39.0882    6.4451   -0.3552 C   0  0  0  0  0  0  0  0  0  0  0  0
  1  2  1  6  0  0  0
  1  9  1  0  0  0  0
  1 35  1  0  0  0  0
  3  4  1  1  0  0  0
  3 11  1  0  0  0  0
  3 45  1  0  0  0  0
  5  6  1  0  0  0  0
  5 12  1  0  0  0  0
  5 37  1  6  0  0  0
  6 30  1  0  0  0  0
  7 14  1  0  0  0  0
  7 41  1  0  0  0  0
  7 23  1  6  0  0  0
  8 16  2  0  0  0  0
  8 42  1  0  0  0  0
  9 10  1  6  0  0  0
  9 18  1  0  0  0  0
 11 20  1  0  0  0  0
 12 13  1  1  0  0  0
 12 22  1  0  0  0  0
 13 47  1  0  0  0  0
 14 15  1  6  0  0  0
 14 24  1  0  0  0  0
 16 17  1  0  0  0  0
 17 26  2  0  0  0  0
 18 19  1  6  0  0  0
 18 27  1  0  0  0  0
 20 21  1  1  0  0  0
 20 29  1  0  0  0  0
 22 23  1  1  0  0  0
 22 30  1  0  0  0  0
 24 25  1  1  0  0  0
 24 31  1  0  0  0  0
 26 33  1  0  0  0  0
 27 28  1  6  0  0  0
 27 34  1  0  0  0  0
 29  2  1  6  0  0  0
 29 36  1  0  0  0  0
 30 38  1  6  0  0  0
 31 32  1  6  0  0  0
 31 40  1  0  0  0  0
 33 42  2  0  0  0  0
 34 35  1  0  0  0  0
 34 43  1  1  0  0  0
 36 37  1  1  0  0  0
 36 45  1  0  0  0  0
 38 39  1  0  0  0  0
 40 41  1  0  0  0  0
 40 48  1  6  0  0  0
 43 44  1  0  0  0  0
 45 46  1  6  0  0  0
 47 50  1  0  0  0  0
 48 49  1  0  0  0  0
 50 51  1  0  0  0  0
 51 52  1  0  0  0  0
 52  8  1  0  0  0  0
M  END
>  <CHROM.1>
-164.38438230,-51.50551688,-173.24742921,67.11299571,78.96051434,68.50982165
-168.61719616,176.38189476,-173.67467365,178.53294452,70.75259986,92.74393356
-69.03601934,176.94173727,-55.39991479,40.30235666,1.98427505,-2.69554844
-1.05962123,0.97609511,-0.32380406

>  <Name>
2be0_lig

>  <RI>
3.37048e+07

>  <Rbt.Current_Directory>
/home/itssahil/PROJECTS/Mol_Feturizer/New_Systems/rnas/2be0

>  <Rbt.Executable>
rbdock ($Id: //depot/dev/client3/rdock/2013.1/src/exe/rbdock.cxx#4 $)

>  <Rbt.Library>
libRbt.so (2013.1, Build901 2013/11/27)

>  <Rbt.Parameter_File>
/export/apps/rDock/src/rDock_2013.1_src/data/scripts/dock_solv.prm

>  <Rbt.Receptor>
prm/pocket_docking_8.prm

>  <SCORE>
-26.4888

>  <SCORE.INTER>
-7.54271

>  <SCORE.INTER.CONST>
1

>  <SCORE.INTER.POLAR>
0

>  <SCORE.INTER.ROT>
15

>  <SCORE.INTER.SOLV>
16.0404

>  <SCORE.INTER.VDW>
-23.9753

>  <SCORE.INTER.norm>
-0.145052

>  <SCORE.INTRA>
-18.9461

>  <SCORE.INTRA.DIHEDRAL>
-38.3054

>  <SCORE.INTRA.DIHEDRAL.0>
47.8724

>  <SCORE.INTRA.POLAR>
0

>  <SCORE.INTRA.POLAR.0>
0

>  <SCORE.INTRA.REPUL>
0

>  <SCORE.INTRA.REPUL.0>
0

>  <SCORE.INTRA.SOLV>
-1.71391

>  <SCORE.INTRA.SOLV.lig_0>
-115.677

>  <SCORE.INTRA.VDW>
1.06357

>  <SCORE.INTRA.VDW.0>
-7.4833

>  <SCORE.INTRA.norm>
-0.364348

>  <SCORE.RESTR>
0

>  <SCORE.RESTR.CAVITY>
0

>  <SCORE.RESTR.norm>
0

>  <SCORE.SYSTEM>
0

>  <SCORE.SYSTEM.CONST>
0

>  <SCORE.SYSTEM.DIHEDRAL>
0

>  <SCORE.SYSTEM.SOLV>
0

>  <SCORE.SYSTEM.norm>
0

>  <SCORE.heavy>
52

>  <SCORE.norm>
-0.5094

>  <RMSD>
10.227

$$$$
2be0_lig
 OpenBabel11021811423D
libRbt.so/2013.1/901 2013/11/27
 52 56  0  0  0  0  0  0  0  0999 V2000
   38.0047    0.6426   -4.8730 C   0  0  2  0  0  0  0  0  0  0  0  0
   38.0804    1.8660   -4.1798 O   0  0  0  0  0  0  0  0  0  0  0  0
   38.3679    2.4992    0.1661 C   0  0  2  0  0  0  0  0  0  0  0  0
   38.9205    2.4592    1.5490 N   0  0  0  0  0  0  0  0  0  0  0  0
   39.6520    5.4359   -3.1044 C   0  0  2  0  0  0  0  0  0  0  0  0
   38.9548    6.0860   -4.1868 O   0  0  0  0  0  0  0  0  0  0  0  0
   43.6261    5.8623   -5.5109 C   0  0  1  0  0  0  0  0  0  0  0  0
   42.5650   11.2495    0.8702 C   0  0  0  0  0  0  0  0  0  0  0  0
   39.4442    0.1230   -5.2774 C   0  0  2  0  0  0  0  0  0  0  0  0
   40.2976    0.0531   -4.0894 N   0  0  0  0  0  0  0  0  0  0  0  0
   38.2739    1.0105   -0.4024 C   0  0  0  0  0  0  0  0  0  0  0  0
   41.1227    5.8726   -3.1991 C   0  0  2  0  0  0  0  0  0  0  0  0
   41.1498    7.1723   -2.4593 O   0  0  0  0  0  0  0  0  0  0  0  0
   44.8279    6.9333   -5.2874 C   0  0  2  0  0  0  0  0  0  0  0  0
   44.6408    8.0718   -6.2437 N   0  0  0  0  0  0  0  0  0  0  0  0
   43.4413   11.3185   -0.2622 C   0  0  0  0  0  0  0  0  0  0  0  0
   43.8168   12.5838   -0.7847 N   0  0  0  0  0  0  0  0  0  0  0  0
   40.0626    1.0750   -6.4030 C   0  0  1  0  0  0  0  0  0  0  0  0
   41.3542    0.5970   -6.7456 O   0  0  0  0  0  0  0  0  0  0  0  0
   37.6842    1.0116   -1.9263 C   0  0  2  0  0  0  0  0  0  0  0  0
   37.5926   -0.3226   -2.4487 N   0  0  0  0  0  0  0  0  0  0  0  0
   41.2735    5.8612   -4.7321 C   0  0  2  0  0  0  0  0  0  0  0  0
   42.3869    6.5549   -5.2758 O   0  0  0  0  0  0  0  0  0  0  0  0
   46.1774    6.1999   -5.5522 C   0  0  1  0  0  0  0  0  0  0  0  0
   46.2613    5.1214   -4.5536 O   0  0  0  0  0  0  0  0  0  0  0  0
   43.3601   13.8159   -0.2358 C   0  0  0  0  0  0  0  0  0  0  0  0
   39.1032    1.0810   -7.6284 C   0  0  2  0  0  0  0  0  0  0  0  0
   39.6238    1.9537   -8.7085 O   0  0  0  0  0  0  0  0  0  0  0  0
   38.6167    1.8852   -2.8626 C   0  0  2  0  0  0  0  0  0  0  0  0
   39.9053    6.3849   -5.2299 C   0  0  1  0  0  0  0  0  0  0  0  0
   46.1987    5.6031   -7.0652 C   0  0  2  0  0  0  0  0  0  0  0  0
   46.1148    6.6756   -8.0688 O   0  0  0  0  0  0  0  0  0  0  0  0
   42.4930   13.8106    0.8846 C   0  0  0  0  0  0  0  0  0  0  0  0
   37.6754    1.6008   -7.2057 C   0  0  2  0  0  0  0  0  0  0  0  0
   37.2233    0.7115   -6.1476 O   0  0  0  0  0  0  0  0  0  0  0  0
   38.6836    3.3297   -2.2558 C   0  0  2  0  0  0  0  0  0  0  0  0
   39.5249    4.0193   -3.1722 O   0  0  0  0  0  0  0  0  0  0  0  0
   39.4276    5.6626   -6.4885 C   0  0  0  0  0  0  0  0  0  0  0  0
   40.3222    5.6832   -7.5750 O   0  0  0  0  0  0  0  0  0  0  0  0
   44.9745    4.5942   -7.2556 C   0  0  1  0  0  0  0  0  0  0  0  0
   43.6897    5.3334   -6.9434 O   0  0  0  0  0  0  0  0  0  0  0  0
   42.0708   12.5155    1.4667 C   0  0  0  0  0  0  0  0  0  0  0  0
   36.8103    1.5636   -8.3959 C   0  0  0  0  0  0  0  0  0  0  0  0
   35.6813    2.2394   -8.1482 O   0  0  0  0  0  0  0  0  0  0  0  0
   39.2884    3.2948   -0.7893 C   0  0  1  0  0  0  0  0  0  0  0  0
   39.3314    4.5800   -0.2620 O   0  0  0  0  0  0  0  0  0  0  0  0
   40.8226    7.4259   -1.0363 C   0  0  0  0  0  0  0  0  0  0  0  0
   45.0395    4.0673   -8.7150 C   0  0  0  0  0  0  0  0  0  0  0  0
   43.8710    3.2809   -9.0230 N   0  0  0  0  0  0  0  0  0  0  0  0
   41.1423    8.8972   -0.7530 C   0  0  0  0  0  0  0  0  0  0  0  0
   40.9421    9.1794    0.7054 N   0  0  0  0  0  0  0  0  0  0  0  0
   42.1580    9.8043    1.4412 C   0  0  0  0  0  0  0  0  0  0  0  0
  1  2  1  6  0  0  0
  1  9  1  0  0  0  0
  1 35  1  0  0  0  0
  3  4  1  1  0  0  0
  3 11  1  0  0  0  0
  3 45  1  0  0  0  0
  5  6  1  0  0  0  0
  5 12  1  0  0  0  0
  5 37  1  6  0  0  0
  6 30  1  0  0  0  0
  7 14  1  0  0  0  0
  7 41  1  0  0  0  0
  7 23  1  6  0  0  0
  8 16  2  0  0  0  0
  8 42  1  0  0  0  0
  9 10  1  1  0  0  0
  9 18  1  0  0  0  0
 11 20  1  0  0  0  0
 12 13  1  6  0  0  0
 12 22  1  0  0  0  0
 13 47  1  0  0  0  0
 14 15  1  6  0  0  0
 14 24  1  0  0  0  0
 16 17  1  0  0  0  0
 17 26  2  0  0  0  0
 18 19  1  6  0  0  0
 18 27  1  0  0  0  0
 20 21  1  6  0  0  0
 20 29  1  0  0  0  0
 22 23  1  1  0  0  0
 22 30  1  0  0  0  0
 24 25  1  1  0  0  0
 24 31  1  0  0  0  0
 26 33  1  0  0  0  0
 27 28  1  6  0  0  0
 27 34  1  0  0  0  0
 29  2  1  6  0  0  0
 29 36  1  0  0  0  0
 30 38  1  6  0  0  0
 31 32  1  6  0  0  0
 31 40  1  0  0  0  0
 33 42  2  0  0  0  0
 34 35  1  0  0  0  0
 34 43  1  6  0  0  0
 36 37  1  6  0  0  0
 36 45  1  0  0  0  0
 38 39  1  0  0  0  0
 40 41  1  0  0  0  0
 40 48  1  6  0  0  0
 43 44  1  0  0  0  0
 45 46  1  1  0  0  0
 47 50  1  0  0  0  0
 48 49  1  0  0  0  0
 50 51  1  0  0  0  0
 51 52  1  0  0  0  0
 52  8  1  0  0  0  0
M  END
>  <CHROM.1>
-69.98246640,-106.63943091,-147.95501615,61.28581047,174.57385786,91.64545439
-63.06295097,-171.73353034,-167.78062293,169.02142420,-172.68508977,-175.11281176
125.49776543,62.74328807,-85.44788517,40.98120776,5.02712389,-4.01013934
2.09279889,-0.74405961,-2.26561989

>  <Name>
2be0_lig

>  <RI>
0

>  <Rbt.Current_Directory>
/home/itssahil/PROJECTS/Mol_Feturizer/New_Systems/rnas/2be0

>  <Rbt.Executable>
rbdock ($Id: //depot/dev/client3/rdock/2013.1/src/exe/rbdock.cxx#4 $)

>  <Rbt.Library>
libRbt.so (2013.1, Build901 2013/11/27)

>  <Rbt.Parameter_File>
/export/apps/rDock/src/rDock_2013.1_src/data/scripts/dock_solv.prm

>  <Rbt.Receptor>
prm/pocket_docking_6.prm

>  <SCORE>
-24.0033

>  <SCORE.INTER>
-12.4693

>  <SCORE.INTER.CONST>
1

>  <SCORE.INTER.POLAR>
-1.32218

>  <SCORE.INTER.ROT>
15

>  <SCORE.INTER.SOLV>
13.6689

>  <SCORE.INTER.VDW>
-22.0619

>  <SCORE.INTER.norm>
-0.239794

>  <SCORE.INTRA>
-11.534

>  <SCORE.INTRA.DIHEDRAL>
-28.9486

>  <SCORE.INTRA.DIHEDRAL.0>
47.8724

>  <SCORE.INTRA.POLAR>
0

>  <SCORE.INTRA.POLAR.0>
0

>  <SCORE.INTRA.REPUL>
0

>  <SCORE.INTRA.REPUL.0>
0

>  <SCORE.INTRA.SOLV>
-0.0910104

>  <SCORE.INTRA.SOLV.lig_0>
-115.677

>  <SCORE.INTRA.VDW>
2.98579

>  <SCORE.INTRA.VDW.0>
-7.4833

>  <SCORE.INTRA.norm>
-0.221808

>  <SCORE.RESTR>
0

>  <SCORE.RESTR.CAVITY>
0

>  <SCORE.RESTR.norm>
0

>  <SCORE.SYSTEM>
0

>  <SCORE.SYSTEM.CONST>
0

>  <SCORE.SYSTEM.DIHEDRAL>
0

>  <SCORE.SYSTEM.SOLV>
0

>  <SCORE.SYSTEM.norm>
0

>  <SCORE.heavy>
52

>  <SCORE.norm>
-0.461601

>  <RMSD>
10.267

$$$$
2be0_lig
 OpenBabel11021811423D
libRbt.so/2013.1/901 2013/11/27
 52 56  0  0  0  0  0  0  0  0999 V2000
   39.1467    6.4970   -0.2543 C   0  0  2  0  0  0  0  0  0  0  0  0
   40.1973    7.3347   -0.6755 O   0  0  0  0  0  0  0  0  0  0  0  0
   44.5947    7.1528   -0.7017 C   0  0  2  0  0  0  0  0  0  0  0  0
   45.9678    6.5757   -0.7371 N   0  0  0  0  0  0  0  0  0  0  0  0
   41.8387    7.7417   -4.3300 C   0  0  2  0  0  0  0  0  0  0  0  0
   40.7949    7.4825   -5.2911 O   0  0  0  0  0  0  0  0  0  0  0  0
   44.6991    4.7978   -6.2798 C   0  0  1  0  0  0  0  0  0  0  0  0
   46.3158   10.5398  -10.9318 C   0  0  0  0  0  0  0  0  0  0  0  0
   37.7495    7.2336   -0.3581 C   0  0  2  0  0  0  0  0  0  0  0  0
   37.5595    7.7467   -1.7165 N   0  0  0  0  0  0  0  0  0  0  0  0
   43.7935    6.5205    0.5257 C   0  0  0  0  0  0  0  0  0  0  0  0
   43.1491    7.2322   -4.9509 C   0  0  2  0  0  0  0  0  0  0  0  0
   43.6100    8.3831   -5.7879 O   0  0  0  0  0  0  0  0  0  0  0  0
   45.4902    5.9001   -5.3851 C   0  0  2  0  0  0  0  0  0  0  0  0
   45.6464    7.1523   -6.1934 N   0  0  0  0  0  0  0  0  0  0  0  0
   45.4804   10.5566  -12.0965 C   0  0  0  0  0  0  0  0  0  0  0  0
   45.8127   11.4009  -13.1882 N   0  0  0  0  0  0  0  0  0  0  0  0
   37.6721    8.3960    0.7368 C   0  0  1  0  0  0  0  0  0  0  0  0
   36.4167    9.0478    0.6221 O   0  0  0  0  0  0  0  0  0  0  0  0
   42.2742    7.1182    0.5915 C   0  0  2  0  0  0  0  0  0  0  0  0
   41.5432    6.5588    1.6933 N   0  0  0  0  0  0  0  0  0  0  0  0
   42.6088    5.9597   -5.6303 C   0  0  2  0  0  0  0  0  0  0  0  0
   43.4244    5.3663   -6.6298 O   0  0  0  0  0  0  0  0  0  0  0  0
   46.8800    5.3030   -5.0095 C   0  0  1  0  0  0  0  0  0  0  0  0
   46.6062    4.0971   -4.2106 O   0  0  0  0  0  0  0  0  0  0  0  0
   46.9541   12.2525  -13.1903 C   0  0  0  0  0  0  0  0  0  0  0  0
   37.8703    7.7638    2.1451 C   0  0  2  0  0  0  0  0  0  0  0  0
   37.8123    8.7980    3.2063 O   0  0  0  0  0  0  0  0  0  0  0  0
   41.5146    6.8051   -0.7630 C   0  0  2  0  0  0  0  0  0  0  0  0
   41.2115    6.3905   -6.1364 C   0  0  1  0  0  0  0  0  0  0  0  0
   47.7117    4.9379   -6.3589 C   0  0  2  0  0  0  0  0  0  0  0  0
   47.9886    6.1385   -7.1627 O   0  0  0  0  0  0  0  0  0  0  0  0
   47.8174   12.2778  -12.0673 C   0  0  0  0  0  0  0  0  0  0  0  0
   39.2664    7.0349    2.2286 C   0  0  2  0  0  0  0  0  0  0  0  0
   39.2628    6.0413    1.1666 O   0  0  0  0  0  0  0  0  0  0  0  0
   42.3458    7.4364   -1.9333 C   0  0  2  0  0  0  0  0  0  0  0  0
   41.5739    7.1087   -3.0823 O   0  0  0  0  0  0  0  0  0  0  0  0
   40.1690    5.2843   -5.9817 C   0  0  0  0  0  0  0  0  0  0  0  0
   39.6670    5.1031   -4.6792 O   0  0  0  0  0  0  0  0  0  0  0  0
   46.8771    3.8905   -7.2303 C   0  0  1  0  0  0  0  0  0  0  0  0
   45.5194    4.4907   -7.5322 O   0  0  0  0  0  0  0  0  0  0  0  0
   47.5138   11.4155  -10.9017 C   0  0  0  0  0  0  0  0  0  0  0  0
   39.3867    6.4412    3.5699 C   0  0  0  0  0  0  0  0  0  0  0  0
   39.8410    7.3640    4.4271 O   0  0  0  0  0  0  0  0  0  0  0  0
   43.8034    6.8120   -1.9867 C   0  0  1  0  0  0  0  0  0  0  0  0
   44.5301    7.3887   -3.0216 O   0  0  0  0  0  0  0  0  0  0  0  0
   43.7454    8.4501   -7.2622 C   0  0  0  0  0  0  0  0  0  0  0  0
   47.7114    3.5894   -8.5050 C   0  0  0  0  0  0  0  0  0  0  0  0
   46.8510    3.4519   -9.6537 N   0  0  0  0  0  0  0  0  0  0  0  0
   44.4540    9.7677   -7.5927 C   0  0  0  0  0  0  0  0  0  0  0  0
   44.5429    9.9267   -9.0805 N   0  0  0  0  0  0  0  0  0  0  0  0
   45.9164    9.5736   -9.7122 C   0  0  0  0  0  0  0  0  0  0  0  0
  1  2  1  1  0  0  0
  1  9  1  0  0  0  0
  1 35  1  0  0  0  0
  3  4  1  6  0  0  0
  3 11  1  0  0  0  0
  3 45  1  0  0  0  0
  5  6  1  0  0  0  0
  5 12  1  0  0  0  0
  5 37  1  1  0  0  0
  6 30  1  0  0  0  0
  7 14  1  0  0  0  0
  7 41  1  0  0  0  0
  7 23  1  6  0  0  0
  8 16  2  0  0  0  0
  8 42  1  0  0  0  0
  9 10  1  6  0  0  0
  9 18  1  0  0  0  0
 11 20  1  0  0  0  0
 12 13  1  6  0  0  0
 12 22  1  0  0  0  0
 13 47  1  0  0  0  0
 14 15  1  6  0  0  0
 14 24  1  0  0  0  0
 16 17  1  0  0  0  0
 17 26  2  0  0  0  0
 18 19  1  1  0  0  0
 18 27  1  0  0  0  0
 20 21  1  1  0  0  0
 20 29  1  0  0  0  0
 22 23  1  6  0  0  0
 22 30  1  0  0  0  0
 24 25  1  1  0  0  0
 24 31  1  0  0  0  0
 26 33  1  0  0  0  0
 27 28  1  1  0  0  0
 27 34  1  0  0  0  0
 29  2  1  1  0  0  0
 29 36  1  0  0  0  0
 30 38  1  1  0  0  0
 31 32  1  6  0  0  0
 31 40  1  0  0  0  0
 33 42  2  0  0  0  0
 34 35  1  0  0  0  0
 34 43  1  1  0  0  0
 36 37  1  6  0  0  0
 36 45  1  0  0  0  0
 38 39  1  0  0  0  0
 40 41  1  0  0  0  0
 40 48  1  6  0  0  0
 43 44  1  0  0  0  0
 45 46  1  6  0  0  0
 47 50  1  0  0  0  0
 48 49  1  0  0  0  0
 50 51  1  0  0  0  0
 51 52  1  0  0  0  0
 52  8  1  0  0  0  0
M  END
>  <CHROM.1>
-174.54730469,-168.39948487,-49.07012645,-114.79147520,-171.52713045,65.44641904
-94.46763148,-38.75638798,-84.45894428,166.70416886,-142.02741294,-176.57709337
-100.67100575,-143.01634526,-62.29231483,43.04169368,7.23506085,-4.21589983
2.31534419,-0.66112242,2.19419162

>  <Name>
2be0_lig

>  <RI>
224

>  <Rbt.Current_Directory>
/home/itssahil/PROJECTS/Mol_Feturizer/New_Systems/rnas/2be0

>  <Rbt.Executable>
rbdock ($Id: //depot/dev/client3/rdock/2013.1/src/exe/rbdock.cxx#4 $)

>  <Rbt.Library>
libRbt.so (2013.1, Build901 2013/11/27)

>  <Rbt.Parameter_File>
/export/apps/rDock/src/rDock_2013.1_src/data/scripts/dock_solv.prm

>  <Rbt.Receptor>
prm/blind_docking_100.prm

>  <SCORE>
54.5228

>  <SCORE.INTER>
34.0897

>  <SCORE.INTER.CONST>
1

>  <SCORE.INTER.POLAR>
-0.276512

>  <SCORE.INTER.ROT>
15

>  <SCORE.INTER.SOLV>
32.7669

>  <SCORE.INTER.VDW>
-0.87413

>  <SCORE.INTER.norm>
0.655571

>  <SCORE.INTRA>
8.27965

>  <SCORE.INTRA.DIHEDRAL>
-24.4395

>  <SCORE.INTRA.DIHEDRAL.0>
47.8724

>  <SCORE.INTRA.POLAR>
0

>  <SCORE.INTRA.POLAR.0>
0

>  <SCORE.INTRA.REPUL>
0

>  <SCORE.INTRA.REPUL.0>
0

>  <SCORE.INTRA.SOLV>
6.9501

>  <SCORE.INTRA.SOLV.lig_0>
-115.677

>  <SCORE.INTRA.VDW>
17.0243

>  <SCORE.INTRA.VDW.0>
-7.4833

>  <SCORE.INTRA.norm>
0.159224

>  <SCORE.RESTR>
12.1534

>  <SCORE.RESTR.CAVITY>
12.1534

>  <SCORE.RESTR.norm>
0.23372

>  <SCORE.SYSTEM>
0

>  <SCORE.SYSTEM.CONST>
0

>  <SCORE.SYSTEM.DIHEDRAL>
0

>  <SCORE.SYSTEM.SOLV>
0

>  <SCORE.SYSTEM.norm>
0

>  <SCORE.heavy>
52

>  <SCORE.norm>
1.04851

>  <RMSD>
10.284

$$$$
2be0_lig
 OpenBabel11021811423D
libRbt.so/2013.1/901 2013/11/27
 52 56  0  0  0  0  0  0  0  0999 V2000
   40.3828    7.1201    0.6007 C   0  0  2  0  0  0  0  0  0  0  0  0
   41.5336    7.0050   -0.2025 O   0  0  0  0  0  0  0  0  0  0  0  0
   43.4632   10.9576   -0.3606 C   0  0  2  0  0  0  0  0  0  0  0  0
   44.5118   12.0059   -0.2154 N   0  0  0  0  0  0  0  0  0  0  0  0
   42.9513    7.7865   -3.7573 C   0  0  2  0  0  0  0  0  0  0  0  0
   41.9949    6.8138   -4.2260 O   0  0  0  0  0  0  0  0  0  0  0  0
   46.2961    5.9791   -5.9294 C   0  0  1  0  0  0  0  0  0  0  0  0
   46.4019   10.5420   -9.8761 C   0  0  0  0  0  0  0  0  0  0  0  0
   40.3608    6.0136    1.7326 C   0  0  2  0  0  0  0  0  0  0  0  0
   41.6033    6.0708    2.5056 N   0  0  0  0  0  0  0  0  0  0  0  0
   43.2188   10.2631    1.0559 C   0  0  0  0  0  0  0  0  0  0  0  0
   44.2510    7.5430   -4.5409 C   0  0  2  0  0  0  0  0  0  0  0  0
   44.0501    8.3223   -5.8017 O   0  0  0  0  0  0  0  0  0  0  0  0
   46.3773    5.8891   -7.5501 C   0  0  2  0  0  0  0  0  0  0  0  0
   46.3202    4.4473   -7.9546 N   0  0  0  0  0  0  0  0  0  0  0  0
   45.2591   10.1288  -10.6364 C   0  0  0  0  0  0  0  0  0  0  0  0
   45.1957   10.4185  -12.0246 N   0  0  0  0  0  0  0  0  0  0  0  0
   40.1319    4.5752    1.0736 C   0  0  1  0  0  0  0  0  0  0  0  0
   40.1230    3.5981    2.1029 O   0  0  0  0  0  0  0  0  0  0  0  0
   42.0829    9.0947    0.9366 C   0  0  2  0  0  0  0  0  0  0  0  0
   41.8520    8.4633    2.2052 N   0  0  0  0  0  0  0  0  0  0  0  0
   44.2181    6.0035   -4.5792 C   0  0  2  0  0  0  0  0  0  0  0  0
   45.0586    5.3639   -5.5284 O   0  0  0  0  0  0  0  0  0  0  0  0
   47.7204    6.5402   -7.9985 C   0  0  1  0  0  0  0  0  0  0  0  0
   47.6591    7.9464   -7.5669 O   0  0  0  0  0  0  0  0  0  0  0  0
   46.2261   11.1139  -12.7193 C   0  0  0  0  0  0  0  0  0  0  0  0
   38.7898    4.5992    0.2860 C   0  0  2  0  0  0  0  0  0  0  0  0
   38.5238    3.2880   -0.3537 O   0  0  0  0  0  0  0  0  0  0  0  0
   42.5392    8.0079   -0.1218 C   0  0  2  0  0  0  0  0  0  0  0  0
   42.7150    5.6822   -4.7567 C   0  0  1  0  0  0  0  0  0  0  0  0
   48.9724    5.7667   -7.3055 C   0  0  2  0  0  0  0  0  0  0  0  0
   49.0397    4.3603   -7.7320 O   0  0  0  0  0  0  0  0  0  0  0  0
   47.3803   11.5461  -12.0207 C   0  0  0  0  0  0  0  0  0  0  0  0
   38.8309    5.7071   -0.8358 C   0  0  2  0  0  0  0  0  0  0  0  0
   39.0974    6.9612   -0.1495 O   0  0  0  0  0  0  0  0  0  0  0  0
   42.7754    8.7414   -1.4876 C   0  0  2  0  0  0  0  0  0  0  0  0
   43.1633    7.6814   -2.3532 O   0  0  0  0  0  0  0  0  0  0  0  0
   42.2811    4.4596   -3.9499 C   0  0  0  0  0  0  0  0  0  0  0  0
   43.2916    3.5143   -3.6921 O   0  0  0  0  0  0  0  0  0  0  0  0
   48.8268    5.8381   -5.7160 C   0  0  1  0  0  0  0  0  0  0  0  0
   47.4906    5.2390   -5.3285 O   0  0  0  0  0  0  0  0  0  0  0  0
   47.4942   11.2689  -10.5700 C   0  0  0  0  0  0  0  0  0  0  0  0
   37.5327    5.6966   -1.5291 C   0  0  0  0  0  0  0  0  0  0  0  0
   37.3486    6.8688   -2.1494 O   0  0  0  0  0  0  0  0  0  0  0  0
   43.9043    9.8468   -1.3429 C   0  0  1  0  0  0  0  0  0  0  0  0
   44.0943   10.4942   -2.5579 O   0  0  0  0  0  0  0  0  0  0  0  0
   44.2907    7.8878   -7.1980 C   0  0  0  0  0  0  0  0  0  0  0  0
   50.0382    5.0771   -5.1117 C   0  0  0  0  0  0  0  0  0  0  0  0
   51.2693    5.5213   -5.7164 N   0  0  0  0  0  0  0  0  0  0  0  0
   44.1119    9.1185   -8.0928 C   0  0  0  0  0  0  0  0  0  0  0  0
   45.0444   10.2023   -7.6427 N   0  0  0  0  0  0  0  0  0  0  0  0
   46.4473   10.1994   -8.3074 C   0  0  0  0  0  0  0  0  0  0  0  0
  1  2  1  6  0  0  0
  1  9  1  0  0  0  0
  1 35  1  0  0  0  0
  3  4  1  1  0  0  0
  3 11  1  0  0  0  0
  3 45  1  0  0  0  0
  5  6  1  0  0  0  0
  5 12  1  0  0  0  0
  5 37  1  1  0  0  0
  6 30  1  0  0  0  0
  7 14  1  0  0  0  0
  7 41  1  0  0  0  0
  7 23  1  1  0  0  0
  8 16  2  0  0  0  0
  8 42  1  0  0  0  0
  9 10  1  6  0  0  0
  9 18  1  0  0  0  0
 11 20  1  0  0  0  0
 12 13  1  6  0  0  0
 12 22  1  0  0  0  0
 13 47  1  0  0  0  0
 14 15  1  1  0  0  0
 14 24  1  0  0  0  0
 16 17  1  0  0  0  0
 17 26  2  0  0  0  0
 18 19  1  1  0  0  0
 18 27  1  0  0  0  0
 20 21  1  1  0  0  0
 20 29  1  0  0  0  0
 22 23  1  6  0  0  0
 22 30  1  0  0  0  0
 24 25  1  1  0  0  0
 24 31  1  0  0  0  0
 26 33  1  0  0  0  0
 27 28  1  6  0  0  0
 27 34  1  0  0  0  0
 29  2  1  6  0  0  0
 29 36  1  0  0  0  0
 30 38  1  1  0  0  0
 31 32  1  6  0  0  0
 31 40  1  0  0  0  0
 33 42  2  0  0  0  0
 34 35  1  0  0  0  0
 34 43  1  1  0  0  0
 36 37  1  6  0  0  0
 36 45  1  0  0  0  0
 38 39  1  0  0  0  0
 40 41  1  0  0  0  0
 40 48  1  1  0  0  0
 43 44  1  0  0  0  0
 45 46  1  6  0  0  0
 47 50  1  0  0  0  0
 48 49  1  0  0  0  0
 50 51  1  0  0  0  0
 51 52  1  0  0  0  0
 52  8  1  0  0  0  0
M  END
>  <CHROM.1>
-110.52983229,-114.52693007,-133.83770489,-132.87437197,-172.41300035,29.98774436
0.04097094,-143.30520548,159.15853442,154.32201843,49.18191693,56.86691109
89.94722203,66.84511964,-32.54006131,43.89036342,7.31663470,-4.08186656,2.57462300
-0.80840709,2.62665254

>  <Name>
2be0_lig

>  <RI>
224

>  <Rbt.Current_Directory>
/home/itssahil/PROJECTS/Mol_Feturizer/New_Systems/rnas/2be0

>  <Rbt.Executable>
rbdock ($Id: //depot/dev/client3/rdock/2013.1/src/exe/rbdock.cxx#4 $)

>  <Rbt.Library>
libRbt.so (2013.1, Build901 2013/11/27)

>  <Rbt.Parameter_File>
/export/apps/rDock/src/rDock_2013.1_src/data/scripts/dock_solv.prm

>  <Rbt.Receptor>
prm/blind_docking_100.prm

>  <SCORE>
5.26807

>  <SCORE.INTER>
-21.5712

>  <SCORE.INTER.CONST>
1

>  <SCORE.INTER.POLAR>
-2.22191

>  <SCORE.INTER.ROT>
15

>  <SCORE.INTER.SOLV>
27.1635

>  <SCORE.INTER.VDW>
-29.6289

>  <SCORE.INTER.norm>
-0.41483

>  <SCORE.INTRA>
11.828

>  <SCORE.INTRA.DIHEDRAL>
-0.987489

>  <SCORE.INTRA.DIHEDRAL.0>
47.8724

>  <SCORE.INTRA.POLAR>
0

>  <SCORE.INTRA.POLAR.0>
0

>  <SCORE.INTRA.REPUL>
0

>  <SCORE.INTRA.REPUL.0>
0

>  <SCORE.INTRA.SOLV>
3.35485

>  <SCORE.INTRA.SOLV.lig_0>
-115.677

>  <SCORE.INTRA.VDW>
10.6444

>  <SCORE.INTRA.VDW.0>
-7.4833

>  <SCORE.INTRA.norm>
0.227462

>  <SCORE.RESTR>
15.0112

>  <SCORE.RESTR.CAVITY>
15.0112

>  <SCORE.RESTR.norm>
0.288677

>  <SCORE.SYSTEM>
0

>  <SCORE.SYSTEM.CONST>
0

>  <SCORE.SYSTEM.DIHEDRAL>
0

>  <SCORE.SYSTEM.SOLV>
0

>  <SCORE.SYSTEM.norm>
0

>  <SCORE.heavy>
52

>  <SCORE.norm>
0.101309

>  <RMSD>
10.287

$$$$
2be0_lig
 OpenBabel11021811423D
libRbt.so/2013.1/901 2013/11/27
 52 56  0  0  0  0  0  0  0  0999 V2000
   44.2205    6.3398   -1.4519 C   0  0  2  0  0  0  0  0  0  0  0  0
   43.3733    5.6010   -2.3001 O   0  0  0  0  0  0  0  0  0  0  0  0
   40.1141    6.3152   -5.1704 C   0  0  2  0  0  0  0  0  0  0  0  0
   39.1177    7.0539   -5.9957 N   0  0  0  0  0  0  0  0  0  0  0  0
   44.2486    7.1220   -6.0512 C   0  0  2  0  0  0  0  0  0  0  0  0
   43.8931    6.4833   -7.2946 O   0  0  0  0  0  0  0  0  0  0  0  0
   48.6927    6.1768   -6.6383 C   0  0  1  0  0  0  0  0  0  0  0  0
   47.3630   12.1841   -9.8123 C   0  0  0  0  0  0  0  0  0  0  0  0
   43.9708    5.9740    0.0678 C   0  0  2  0  0  0  0  0  0  0  0  0
   44.0966    4.5272    0.2563 N   0  0  0  0  0  0  0  0  0  0  0  0
   39.8969    6.6858   -3.6329 C   0  0  0  0  0  0  0  0  0  0  0  0
   45.7497    7.4427   -6.1313 C   0  0  2  0  0  0  0  0  0  0  0  0
   45.7884    8.7598   -6.8391 O   0  0  0  0  0  0  0  0  0  0  0  0
   49.9601    5.9443   -7.6288 C   0  0  2  0  0  0  0  0  0  0  0  0
   49.7623    4.6557   -8.3677 N   0  0  0  0  0  0  0  0  0  0  0  0
   48.3903   12.4755   -8.8560 C   0  0  0  0  0  0  0  0  0  0  0  0
   49.7540   12.3305   -9.2226 N   0  0  0  0  0  0  0  0  0  0  0  0
   42.5362    6.5140    0.5219 C   0  0  1  0  0  0  0  0  0  0  0  0
   42.3291    6.1696    1.8830 O   0  0  0  0  0  0  0  0  0  0  0  0
   40.9819    5.9053   -2.6930 C   0  0  2  0  0  0  0  0  0  0  0  0
   40.7956    6.2286   -1.3066 N   0  0  0  0  0  0  0  0  0  0  0  0
   46.2242    6.1695   -6.8570 C   0  0  2  0  0  0  0  0  0  0  0  0
   47.5103    6.2108   -7.4577 O   0  0  0  0  0  0  0  0  0  0  0  0
   51.2482    5.8916   -6.7529 C   0  0  1  0  0  0  0  0  0  0  0  0
   51.3494    7.2034   -6.0924 O   0  0  0  0  0  0  0  0  0  0  0  0
   50.1677   11.9003  -10.5157 C   0  0  0  0  0  0  0  0  0  0  0  0
   42.4940    8.0540    0.3009 C   0  0  2  0  0  0  0  0  0  0  0  0
   41.1809    8.6141    0.7021 O   0  0  0  0  0  0  0  0  0  0  0  0
   42.4529    6.2928   -3.1353 C   0  0  2  0  0  0  0  0  0  0  0  0
   45.0768    5.8770   -7.8530 C   0  0  1  0  0  0  0  0  0  0  0  0
   51.1300    4.6914   -5.6614 C   0  0  2  0  0  0  0  0  0  0  0  0
   51.0281    3.3770   -6.3145 O   0  0  0  0  0  0  0  0  0  0  0  0
   49.1972   11.5989  -11.5028 C   0  0  0  0  0  0  0  0  0  0  0  0
   42.7451    8.3982   -1.2176 C   0  0  2  0  0  0  0  0  0  0  0  0
   44.0386    7.8222   -1.5495 O   0  0  0  0  0  0  0  0  0  0  0  0
   42.6097    5.9195   -4.6503 C   0  0  2  0  0  0  0  0  0  0  0  0
   43.9529    6.2940   -4.9311 O   0  0  0  0  0  0  0  0  0  0  0  0
   44.7902    4.3826   -7.9895 C   0  0  0  0  0  0  0  0  0  0  0  0
   44.1762    3.9911   -9.1940 O   0  0  0  0  0  0  0  0  0  0  0  0
   49.8458    4.9338   -4.7422 C   0  0  1  0  0  0  0  0  0  0  0  0
   48.6259    5.0255   -5.6356 O   0  0  0  0  0  0  0  0  0  0  0  0
   47.7602   11.7336  -11.1696 C   0  0  0  0  0  0  0  0  0  0  0  0
   42.7151    9.8627   -1.3599 C   0  0  0  0  0  0  0  0  0  0  0  0
   42.3810   10.1822   -2.6165 O   0  0  0  0  0  0  0  0  0  0  0  0
   41.5626    6.7173   -5.5360 C   0  0  1  0  0  0  0  0  0  0  0  0
   41.7073    6.3681   -6.8734 O   0  0  0  0  0  0  0  0  0  0  0  0
   45.6691    9.0252   -8.2923 C   0  0  0  0  0  0  0  0  0  0  0  0
   49.7786    3.7566   -3.7317 C   0  0  0  0  0  0  0  0  0  0  0  0
   51.0968    3.2319   -3.4755 N   0  0  0  0  0  0  0  0  0  0  0  0
   44.7162   10.2132   -8.4593 C   0  0  0  0  0  0  0  0  0  0  0  0
   45.4448   11.4850   -8.1455 N   0  0  0  0  0  0  0  0  0  0  0  0
   45.8285   12.3583   -9.3703 C   0  0  0  0  0  0  0  0  0  0  0  0
  1  2  1  6  0  0  0
  1  9  1  0  0  0  0
  1 35  1  0  0  0  0
  3  4  1  6  0  0  0
  3 11  1  0  0  0  0
  3 45  1  0  0  0  0
  5  6  1  0  0  0  0
  5 12  1  0  0  0  0
  5 37  1  1  0  0  0
  6 30  1  0  0  0  0
  7 14  1  0  0  0  0
  7 41  1  0  0  0  0
  7 23  1  6  0  0  0
  8 16  2  0  0  0  0
  8 42  1  0  0  0  0
  9 10  1  6  0  0  0
  9 18  1  0  0  0  0
 11 20  1  0  0  0  0
 12 13  1  6  0  0  0
 12 22  1  0  0  0  0
 13 47  1  0  0  0  0
 14 15  1  1  0  0  0
 14 24  1  0  0  0  0
 16 17  1  0  0  0  0
 17 26  2  0  0  0  0
 18 19  1  1  0  0  0
 18 27  1  0  0  0  0
 20 21  1  1  0  0  0
 20 29  1  0  0  0  0
 22 23  1  6  0  0  0
 22 30  1  0  0  0  0
 24 25  1  1  0  0  0
 24 31  1  0  0  0  0
 26 33  1  0  0  0  0
 27 28  1  6  0  0  0
 27 34  1  0  0  0  0
 29  2  1  1  0  0  0
 29 36  1  0  0  0  0
 30 38  1  1  0  0  0
 31 32  1  6  0  0  0
 31 40  1  0  0  0  0
 33 42  2  0  0  0  0
 34 35  1  0  0  0  0
 34 43  1  1  0  0  0
 36 37  1  6  0  0  0
 36 45  1  0  0  0  0
 38 39  1  0  0  0  0
 40 41  1  0  0  0  0
 40 48  1  1  0  0  0
 43 44  1  0  0  0  0
 45 46  1  6  0  0  0
 47 50  1  0  0  0  0
 48 49  1  0  0  0  0
 50 51  1  0  0  0  0
 51 52  1  0  0  0  0
 52  8  1  0  0  0  0
M  END
>  <CHROM.1>
119.23908347,-62.89884678,169.08726694,-79.81222526,135.52377606,73.09879200
-116.06918956,87.65682126,-155.06368891,-129.02876385,27.79838546,77.76208300
105.31631396,-100.07850392,-58.43852295,45.42564738,7.23703753,-5.28141917
-2.44169202,0.44348484,-0.85390891

>  <Name>
2be0_lig

>  <RI>
224

>  <Rbt.Current_Directory>
/home/itssahil/PROJECTS/Mol_Feturizer/New_Systems/rnas/2be0

>  <Rbt.Executable>
rbdock ($Id: //depot/dev/client3/rdock/2013.1/src/exe/rbdock.cxx#4 $)

>  <Rbt.Library>
libRbt.so (2013.1, Build901 2013/11/27)

>  <Rbt.Parameter_File>
/export/apps/rDock/src/rDock_2013.1_src/data/scripts/dock_solv.prm

>  <Rbt.Receptor>
prm/blind_docking_100.prm

>  <SCORE>
11.3488

>  <SCORE.INTER>
-7.52885

>  <SCORE.INTER.CONST>
1

>  <SCORE.INTER.POLAR>
-1.73116

>  <SCORE.INTER.ROT>
15

>  <SCORE.INTER.SOLV>
34.1952

>  <SCORE.INTER.VDW>
-24.2471

>  <SCORE.INTER.norm>
-0.144786

>  <SCORE.INTRA>
7.59933

>  <SCORE.INTRA.DIHEDRAL>
-6.27831

>  <SCORE.INTRA.DIHEDRAL.0>
47.8724

>  <SCORE.INTRA.POLAR>
0

>  <SCORE.INTRA.POLAR.0>
0

>  <SCORE.INTRA.REPUL>
0

>  <SCORE.INTRA.REPUL.0>
0

>  <SCORE.INTRA.SOLV>
3.37352

>  <SCORE.INTRA.SOLV.lig_0>
-115.677

>  <SCORE.INTRA.VDW>
9.05173

>  <SCORE.INTRA.VDW.0>
-7.4833

>  <SCORE.INTRA.norm>
0.146141

>  <SCORE.RESTR>
11.2783

>  <SCORE.RESTR.CAVITY>
11.2783

>  <SCORE.RESTR.norm>
0.216891

>  <SCORE.SYSTEM>
0

>  <SCORE.SYSTEM.CONST>
0

>  <SCORE.SYSTEM.DIHEDRAL>
0

>  <SCORE.SYSTEM.SOLV>
0

>  <SCORE.SYSTEM.norm>
0

>  <SCORE.heavy>
52

>  <SCORE.norm>
0.218246

>  <RMSD>
10.374

$$$$
2be0_lig
 OpenBabel11021811423D
libRbt.so/2013.1/901 2013/11/27
 52 56  0  0  0  0  0  0  0  0999 V2000
   38.1081    0.0411   -3.8172 C   0  0  2  0  0  0  0  0  0  0  0  0
   37.3238   -0.6810   -4.7372 O   0  0  0  0  0  0  0  0  0  0  0  0
   35.6131    0.3044   -8.6708 C   0  0  2  0  0  0  0  0  0  0  0  0
   34.8224    1.0235   -9.7086 N   0  0  0  0  0  0  0  0  0  0  0  0
   39.6328    1.7287   -7.0914 C   0  0  2  0  0  0  0  0  0  0  0  0
   40.4695    0.6468   -7.5494 O   0  0  0  0  0  0  0  0  0  0  0  0
   42.5415    2.8054   -3.7305 C   0  0  1  0  0  0  0  0  0  0  0  0
   43.7896    3.1973  -12.4419 C   0  0  0  0  0  0  0  0  0  0  0  0
   38.7209   -0.9134   -2.7130 C   0  0  2  0  0  0  0  0  0  0  0  0
   39.4558   -2.0055   -3.3546 N   0  0  0  0  0  0  0  0  0  0  0  0
   34.6407   -0.1335   -7.4830 C   0  0  0  0  0  0  0  0  0  0  0  0
   40.5260    2.6532   -6.2487 C   0  0  2  0  0  0  0  0  0  0  0  0
   41.1587    3.5496   -7.2652 O   0  0  0  0  0  0  0  0  0  0  0  0
   44.0579    3.3098   -3.4344 C   0  0  2  0  0  0  0  0  0  0  0  0
   44.9406    2.1095   -3.2736 N   0  0  0  0  0  0  0  0  0  0  0  0
   42.8394    2.6323  -13.3545 C   0  0  0  0  0  0  0  0  0  0  0  0
   42.9907    2.8468  -14.7495 N   0  0  0  0  0  0  0  0  0  0  0  0
   37.5545   -1.4543   -1.7629 C   0  0  1  0  0  0  0  0  0  0  0  0
   38.1230   -2.3127   -0.7861 O   0  0  0  0  0  0  0  0  0  0  0  0
   35.4737   -0.9149   -6.3145 C   0  0  2  0  0  0  0  0  0  0  0  0
   34.6094   -1.3163   -5.2406 N   0  0  0  0  0  0  0  0  0  0  0  0
   41.3744    1.5799   -5.5409 C   0  0  2  0  0  0  0  0  0  0  0  0
   42.5815    2.0113   -4.9299 O   0  0  0  0  0  0  0  0  0  0  0  0
   44.0324    4.1609   -2.1290 C   0  0  1  0  0  0  0  0  0  0  0  0
   43.1560    5.3109   -2.4058 O   0  0  0  0  0  0  0  0  0  0  0  0
   44.0564    3.6105  -15.3054 C   0  0  0  0  0  0  0  0  0  0  0  0
   36.8375   -0.2342   -1.1151 C   0  0  2  0  0  0  0  0  0  0  0  0
   35.7385   -0.6743   -0.2222 O   0  0  0  0  0  0  0  0  0  0  0  0
   36.6187    0.0241   -5.7515 C   0  0  2  0  0  0  0  0  0  0  0  0
   41.5758    0.5044   -6.6349 C   0  0  1  0  0  0  0  0  0  0  0  0
   43.4603    3.2693   -0.8947 C   0  0  2  0  0  0  0  0  0  0  0  0
   44.3312    2.1177   -0.6125 O   0  0  0  0  0  0  0  0  0  0  0  0
   45.0266    4.1926  -14.4529 C   0  0  0  0  0  0  0  0  0  0  0  0
   36.2347    0.7043   -2.2302 C   0  0  2  0  0  0  0  0  0  0  0  0
   37.3546    1.0970   -3.0706 O   0  0  0  0  0  0  0  0  0  0  0  0
   37.5361    0.4327   -6.9559 C   0  0  2  0  0  0  0  0  0  0  0  0
   38.5216    1.2523   -6.3392 O   0  0  0  0  0  0  0  0  0  0  0  0
   41.5113   -0.9157   -6.0750 C   0  0  0  0  0  0  0  0  0  0  0  0
   41.6368   -1.9473   -7.0244 O   0  0  0  0  0  0  0  0  0  0  0  0
   41.9894    2.7548   -1.2480 C   0  0  1  0  0  0  0  0  0  0  0  0
   42.0521    1.9745   -2.5449 O   0  0  0  0  0  0  0  0  0  0  0  0
   44.9129    3.9987  -12.9887 C   0  0  0  0  0  0  0  0  0  0  0  0
   35.5913    1.8461   -1.5605 C   0  0  0  0  0  0  0  0  0  0  0  0
   34.4801    1.4308   -0.9395 O   0  0  0  0  0  0  0  0  0  0  0  0
   36.7024    1.2149   -8.0561 C   0  0  1  0  0  0  0  0  0  0  0  0
   37.5265    1.5608   -9.1204 O   0  0  0  0  0  0  0  0  0  0  0  0
   42.2231    3.2218   -8.2430 C   0  0  0  0  0  0  0  0  0  0  0  0
   41.5014    1.9044   -0.0438 C   0  0  0  0  0  0  0  0  0  0  0  0
   40.1336    1.4909   -0.2359 N   0  0  0  0  0  0  0  0  0  0  0  0
   42.4015    4.4465   -9.1462 C   0  0  0  0  0  0  0  0  0  0  0  0
   43.5944    4.2441  -10.0310 N   0  0  0  0  0  0  0  0  0  0  0  0
   43.5944    2.9371  -10.8689 C   0  0  0  0  0  0  0  0  0  0  0  0
  1  2  1  6  0  0  0
  1  9  1  0  0  0  0
  1 35  1  0  0  0  0
  3  4  1  6  0  0  0
  3 11  1  0  0  0  0
  3 45  1  0  0  0  0
  5  6  1  0  0  0  0
  5 12  1  0  0  0  0
  5 37  1  1  0  0  0
  6 30  1  0  0  0  0
  7 14  1  0  0  0  0
  7 41  1  0  0  0  0
  7 23  1  6  0  0  0
  8 16  2  0  0  0  0
  8 42  1  0  0  0  0
  9 10  1  6  0  0  0
  9 18  1  0  0  0  0
 11 20  1  0  0  0  0
 12 13  1  6  0  0  0
 12 22  1  0  0  0  0
 13 47  1  0  0  0  0
 14 15  1  1  0  0  0
 14 24  1  0  0  0  0
 16 17  1  0  0  0  0
 17 26  2  0  0  0  0
 18 19  1  1  0  0  0
 18 27  1  0  0  0  0
 20 21  1  1  0  0  0
 20 29  1  0  0  0  0
 22 23  1  6  0  0  0
 22 30  1  0  0  0  0
 24 25  1  6  0  0  0
 24 31  1  0  0  0  0
 26 33  1  0  0  0  0
 27 28  1  1  0  0  0
 27 34  1  0  0  0  0
 29  2  1  1  0  0  0
 29 36  1  0  0  0  0
 30 38  1  1  0  0  0
 31 32  1  6  0  0  0
 31 40  1  0  0  0  0
 33 42  2  0  0  0  0
 34 35  1  0  0  0  0
 34 43  1  1  0  0  0
 36 37  1  1  0  0  0
 36 45  1  0  0  0  0
 38 39  1  0  0  0  0
 40 41  1  0  0  0  0
 40 48  1  1  0  0  0
 43 44  1  0  0  0  0
 45 46  1  6  0  0  0
 47 50  1  0  0  0  0
 48 49  1  0  0  0  0
 50 51  1  0  0  0  0
 51 52  1  0  0  0  0
 52  8  1  0  0  0  0
M  END
>  <CHROM.1>
175.85858060,-63.79252630,-171.51403572,-73.07241096,174.00777918,71.44197675
-161.21836581,61.46714989,-70.63304815,174.00727630,175.29101697,172.18028528
54.09925070,125.64576341,-127.13769777,40.07599323,1.45139192,-5.68590631
2.10406361,0.40484289,1.63315513

>  <Name>
2be0_lig

>  <RI>
3.37048e+07

>  <Rbt.Current_Directory>
/home/itssahil/PROJECTS/Mol_Feturizer/New_Systems/rnas/2be0

>  <Rbt.Executable>
rbdock ($Id: //depot/dev/client3/rdock/2013.1/src/exe/rbdock.cxx#4 $)

>  <Rbt.Library>
libRbt.so (2013.1, Build901 2013/11/27)

>  <Rbt.Parameter_File>
/export/apps/rDock/src/rDock_2013.1_src/data/scripts/dock_solv.prm

>  <Rbt.Receptor>
prm/pocket_docking_8.prm

>  <SCORE>
-23.3047

>  <SCORE.INTER>
-4.23156

>  <SCORE.INTER.CONST>
1

>  <SCORE.INTER.POLAR>
0

>  <SCORE.INTER.ROT>
15

>  <SCORE.INTER.SOLV>
9.17703

>  <SCORE.INTER.VDW>
-19.4801

>  <SCORE.INTER.norm>
-0.0813762

>  <SCORE.INTRA>
-19.0732

>  <SCORE.INTRA.DIHEDRAL>
-40.9362

>  <SCORE.INTRA.DIHEDRAL.0>
47.8724

>  <SCORE.INTRA.POLAR>
0

>  <SCORE.INTRA.POLAR.0>
0

>  <SCORE.INTRA.REPUL>
0

>  <SCORE.INTRA.REPUL.0>
0

>  <SCORE.INTRA.SOLV>
-2.18791

>  <SCORE.INTRA.SOLV.lig_0>
-115.677

>  <SCORE.INTRA.VDW>
2.4889

>  <SCORE.INTRA.VDW.0>
-7.4833

>  <SCORE.INTRA.norm>
-0.366791

>  <SCORE.RESTR>
0

>  <SCORE.RESTR.CAVITY>
0

>  <SCORE.RESTR.norm>
0

>  <SCORE.SYSTEM>
0

>  <SCORE.SYSTEM.CONST>
0

>  <SCORE.SYSTEM.DIHEDRAL>
0

>  <SCORE.SYSTEM.SOLV>
0

>  <SCORE.SYSTEM.norm>
0

>  <SCORE.heavy>
52

>  <SCORE.norm>
-0.448168

>  <RMSD>
10.377

$$$$
2be0_lig
 OpenBabel11021811423D
libRbt.so/2013.1/901 2013/11/27
 52 56  0  0  0  0  0  0  0  0999 V2000
   41.9228    7.2239   -1.7057 C   0  0  2  0  0  0  0  0  0  0  0  0
   42.7148    6.9675   -2.8414 O   0  0  0  0  0  0  0  0  0  0  0  0
   40.4633    5.6583   -6.3894 C   0  0  2  0  0  0  0  0  0  0  0  0
   39.7864    5.7220   -7.7150 N   0  0  0  0  0  0  0  0  0  0  0  0
   44.5686    7.0014   -6.2284 C   0  0  2  0  0  0  0  0  0  0  0  0
   44.7463    6.2179   -7.4262 O   0  0  0  0  0  0  0  0  0  0  0  0
   49.1106    5.5646   -6.7328 C   0  0  1  0  0  0  0  0  0  0  0  0
   45.2060   11.2268  -11.4852 C   0  0  0  0  0  0  0  0  0  0  0  0
   42.2627    8.6363   -1.0769 C   0  0  2  0  0  0  0  0  0  0  0  0
   42.1438    9.6762   -2.1011 N   0  0  0  0  0  0  0  0  0  0  0  0
   39.8308    6.7628   -5.4259 C   0  0  0  0  0  0  0  0  0  0  0  0
   45.9406    7.6036   -5.8854 C   0  0  2  0  0  0  0  0  0  0  0  0
   45.9926    8.8485   -6.7130 O   0  0  0  0  0  0  0  0  0  0  0  0
   48.8650    4.4128   -5.6129 C   0  0  2  0  0  0  0  0  0  0  0  0
   49.1317    4.9953   -4.2582 N   0  0  0  0  0  0  0  0  0  0  0  0
   45.5256   10.4380  -12.6387 C   0  0  0  0  0  0  0  0  0  0  0  0
   46.2549   11.0199  -13.7085 N   0  0  0  0  0  0  0  0  0  0  0  0
   43.7238    8.5987   -0.4293 C   0  0  1  0  0  0  0  0  0  0  0  0
   44.0117    9.8746    0.1214 O   0  0  0  0  0  0  0  0  0  0  0  0
   40.5572    6.7353   -3.9625 C   0  0  2  0  0  0  0  0  0  0  0  0
   39.9955    7.7233   -3.0852 N   0  0  0  0  0  0  0  0  0  0  0  0
   46.8261    6.3994   -6.2578 C   0  0  2  0  0  0  0  0  0  0  0  0
   48.2128    6.6490   -6.4351 O   0  0  0  0  0  0  0  0  0  0  0  0
   49.8413    3.2361   -5.9149 C   0  0  1  0  0  0  0  0  0  0  0  0
   49.4797    2.7353   -7.2512 O   0  0  0  0  0  0  0  0  0  0  0  0
   46.6950   12.3742  -13.7005 C   0  0  0  0  0  0  0  0  0  0  0  0
   43.7576    7.4799    0.6522 C   0  0  2  0  0  0  0  0  0  0  0  0
   45.0944    7.3938    1.2882 O   0  0  0  0  0  0  0  0  0  0  0  0
   42.1110    6.9954   -4.1290 C   0  0  2  0  0  0  0  0  0  0  0  0
   46.1294    5.8170   -7.5105 C   0  0  1  0  0  0  0  0  0  0  0  0
   51.3787    3.7665   -5.8821 C   0  0  2  0  0  0  0  0  0  0  0  0
   51.7472    4.2690   -4.5494 O   0  0  0  0  0  0  0  0  0  0  0  0
   46.4096   13.2021  -12.5869 C   0  0  0  0  0  0  0  0  0  0  0  0
   43.4163    6.0817    0.0071 C   0  0  2  0  0  0  0  0  0  0  0  0
   42.1033    6.2314   -0.6000 O   0  0  0  0  0  0  0  0  0  0  0  0
   42.6791    5.8936   -5.0895 C   0  0  2  0  0  0  0  0  0  0  0  0
   44.0635    6.2140   -5.1549 O   0  0  0  0  0  0  0  0  0  0  0  0
   46.1502    4.2895   -7.5318 C   0  0  0  0  0  0  0  0  0  0  0  0
   45.0715    3.6600   -6.8827 O   0  0  0  0  0  0  0  0  0  0  0  0
   51.5628    4.9289   -6.9627 C   0  0  1  0  0  0  0  0  0  0  0  0
   50.5651    6.0281   -6.6606 O   0  0  0  0  0  0  0  0  0  0  0  0
   45.6503   12.6424  -11.4448 C   0  0  0  0  0  0  0  0  0  0  0  0
   43.4424    5.0718    1.0773 C   0  0  0  0  0  0  0  0  0  0  0  0
   42.7999    3.9708    0.6676 O   0  0  0  0  0  0  0  0  0  0  0  0
   41.9741    5.9688   -6.5089 C   0  0  1  0  0  0  0  0  0  0  0  0
   42.4807    4.9805   -7.3444 O   0  0  0  0  0  0  0  0  0  0  0  0
   46.1688    8.9696   -8.1795 C   0  0  0  0  0  0  0  0  0  0  0  0
   53.0397    5.4014   -6.8782 C   0  0  0  0  0  0  0  0  0  0  0  0
   53.9390    4.2835   -7.0205 N   0  0  0  0  0  0  0  0  0  0  0  0
   46.2461   10.4648   -8.5047 C   0  0  0  0  0  0  0  0  0  0  0  0
   44.8842   10.9641   -8.8825 N   0  0  0  0  0  0  0  0  0  0  0  0
   44.3810   10.5418  -10.2891 C   0  0  0  0  0  0  0  0  0  0  0  0
  1  2  1  6  0  0  0
  1  9  1  0  0  0  0
  1 35  1  0  0  0  0
  3  4  1  6  0  0  0
  3 11  1  0  0  0  0
  3 45  1  0  0  0  0
  5  6  1  0  0  0  0
  5 12  1  0  0  0  0
  5 37  1  1  0  0  0
  6 30  1  0  0  0  0
  7 14  1  0  0  0  0
  7 41  1  0  0  0  0
  7 23  1  1  0  0  0
  8 16  2  0  0  0  0
  8 42  1  0  0  0  0
  9 10  1  6  0  0  0
  9 18  1  0  0  0  0
 11 20  1  0  0  0  0
 12 13  1  6  0  0  0
 12 22  1  0  0  0  0
 13 47  1  0  0  0  0
 14 15  1  1  0  0  0
 14 24  1  0  0  0  0
 16 17  1  0  0  0  0
 17 26  2  0  0  0  0
 18 19  1  1  0  0  0
 18 27  1  0  0  0  0
 20 21  1  1  0  0  0
 20 29  1  0  0  0  0
 22 23  1  6  0  0  0
 22 30  1  0  0  0  0
 24 25  1  6  0  0  0
 24 31  1  0  0  0  0
 26 33  1  0  0  0  0
 27 28  1  6  0  0  0
 27 34  1  0  0  0  0
 29  2  1  1  0  0  0
 29 36  1  0  0  0  0
 30 38  1  1  0  0  0
 31 32  1  1  0  0  0
 31 40  1  0  0  0  0
 33 42  2  0  0  0  0
 34 35  1  0  0  0  0
 34 43  1  1  0  0  0
 36 37  1  6  0  0  0
 36 45  1  0  0  0  0
 38 39  1  0  0  0  0
 40 41  1  0  0  0  0
 40 48  1  1  0  0  0
 43 44  1  0  0  0  0
 45 46  1  6  0  0  0
 47 50  1  0  0  0  0
 48 49  1  0  0  0  0
 50 51  1  0  0  0  0
 51 52  1  0  0  0  0
 52  8  1  0  0  0  0
M  END
>  <CHROM.1>
-108.37856718,-79.17582760,-52.05481943,-72.66424767,-176.21624912,177.59241871
-23.04338656,-27.91070524,162.46713655,-96.10585930,53.74497890,-94.46765664
-74.07310459,-68.32081528,140.00647271,45.41876858,7.01584585,-5.68756207
2.19212010,-0.41283142,2.05616659

>  <Name>
2be0_lig

>  <RI>
224

>  <Rbt.Current_Directory>
/home/itssahil/PROJECTS/Mol_Feturizer/New_Systems/rnas/2be0

>  <Rbt.Executable>
rbdock ($Id: //depot/dev/client3/rdock/2013.1/src/exe/rbdock.cxx#4 $)

>  <Rbt.Library>
libRbt.so (2013.1, Build901 2013/11/27)

>  <Rbt.Parameter_File>
/export/apps/rDock/src/rDock_2013.1_src/data/scripts/dock_solv.prm

>  <Rbt.Receptor>
prm/blind_docking_100.prm

>  <SCORE>
9.47198

>  <SCORE.INTER>
-4.9936

>  <SCORE.INTER.CONST>
1

>  <SCORE.INTER.POLAR>
-0.987745

>  <SCORE.INTER.ROT>
15

>  <SCORE.INTER.SOLV>
30.6876

>  <SCORE.INTER.VDW>
-23.8658

>  <SCORE.INTER.norm>
-0.0960308

>  <SCORE.INTRA>
0.747832

>  <SCORE.INTRA.DIHEDRAL>
-20.0502

>  <SCORE.INTRA.DIHEDRAL.0>
47.8724

>  <SCORE.INTRA.POLAR>
0

>  <SCORE.INTRA.POLAR.0>
0

>  <SCORE.INTRA.REPUL>
0

>  <SCORE.INTRA.REPUL.0>
0

>  <SCORE.INTRA.SOLV>
2.43646

>  <SCORE.INTRA.SOLV.lig_0>
-115.677

>  <SCORE.INTRA.VDW>
9.55469

>  <SCORE.INTRA.VDW.0>
-7.4833

>  <SCORE.INTRA.norm>
0.0143814

>  <SCORE.RESTR>
13.7177

>  <SCORE.RESTR.CAVITY>
13.7177

>  <SCORE.RESTR.norm>
0.263803

>  <SCORE.SYSTEM>
0

>  <SCORE.SYSTEM.CONST>
0

>  <SCORE.SYSTEM.DIHEDRAL>
0

>  <SCORE.SYSTEM.SOLV>
0

>  <SCORE.SYSTEM.norm>
0

>  <SCORE.heavy>
52

>  <SCORE.norm>
0.182153

>  <RMSD>
10.394

$$$$
2be0_lig
 OpenBabel11021811423D
libRbt.so/2013.1/901 2013/11/27
 52 56  0  0  0  0  0  0  0  0999 V2000
   44.4607    2.8991   -3.3046 C   0  0  2  0  0  0  0  0  0  0  0  0
   43.2700    2.3813   -3.8494 O   0  0  0  0  0  0  0  0  0  0  0  0
   39.9296    4.1643   -6.0930 C   0  0  2  0  0  0  0  0  0  0  0  0
   38.7987    5.0763   -6.4228 N   0  0  0  0  0  0  0  0  0  0  0  0
   44.2964    5.3203   -6.5122 C   0  0  2  0  0  0  0  0  0  0  0  0
   44.7407    4.4023   -7.5321 O   0  0  0  0  0  0  0  0  0  0  0  0
   48.9636    4.3411   -5.9882 C   0  0  1  0  0  0  0  0  0  0  0  0
   44.1166   10.2201  -11.8673 C   0  0  0  0  0  0  0  0  0  0  0  0
   45.4224    1.7383   -2.8214 C   0  0  2  0  0  0  0  0  0  0  0  0
   45.6594    0.8011   -3.9214 N   0  0  0  0  0  0  0  0  0  0  0  0
   39.6412    3.4604   -4.6896 C   0  0  0  0  0  0  0  0  0  0  0  0
   45.5337    6.1118   -6.0592 C   0  0  2  0  0  0  0  0  0  0  0  0
   45.6174    7.2277   -7.0517 O   0  0  0  0  0  0  0  0  0  0  0  0
   50.3675    5.1100   -5.7067 C   0  0  2  0  0  0  0  0  0  0  0  0
   50.6354    6.0515   -6.8414 N   0  0  0  0  0  0  0  0  0  0  0  0
   43.1199   11.0186  -12.5182 C   0  0  0  0  0  0  0  0  0  0  0  0
   43.5018   11.9190  -13.5471 N   0  0  0  0  0  0  0  0  0  0  0  0
   44.7907    1.0139   -1.5439 C   0  0  1  0  0  0  0  0  0  0  0  0
   45.6631   -0.0267   -1.1317 O   0  0  0  0  0  0  0  0  0  0  0  0
   40.8677    2.4601   -4.2837 C   0  0  2  0  0  0  0  0  0  0  0  0
   40.6193    1.8185   -3.0235 N   0  0  0  0  0  0  0  0  0  0  0  0
   46.5698    4.9726   -6.0992 C   0  0  2  0  0  0  0  0  0  0  0  0
   47.9397    5.3463   -6.0969 O   0  0  0  0  0  0  0  0  0  0  0  0
   51.4893    4.0334   -5.6000 C   0  0  1  0  0  0  0  0  0  0  0  0
   51.1336    3.1822   -4.4527 O   0  0  0  0  0  0  0  0  0  0  0  0
   44.8500   12.0782  -13.9769 C   0  0  0  0  0  0  0  0  0  0  0  0
   44.5849    2.0751   -0.4242 C   0  0  2  0  0  0  0  0  0  0  0  0
   43.9954    1.4610    0.7901 O   0  0  0  0  0  0  0  0  0  0  0  0
   42.2233    3.2761   -4.2057 C   0  0  2  0  0  0  0  0  0  0  0  0
   46.1474    4.1485   -7.3388 C   0  0  1  0  0  0  0  0  0  0  0  0
   51.5616    3.1670   -6.9747 C   0  0  2  0  0  0  0  0  0  0  0  0
   51.9163    4.0114   -8.1260 O   0  0  0  0  0  0  0  0  0  0  0  0
   45.8784   11.3150  -13.3711 C   0  0  0  0  0  0  0  0  0  0  0  0
   43.6253    3.2225   -0.9243 C   0  0  2  0  0  0  0  0  0  0  0  0
   44.2531    3.7793   -2.1120 O   0  0  0  0  0  0  0  0  0  0  0  0
   42.4532    3.9540   -5.6009 C   0  0  2  0  0  0  0  0  0  0  0  0
   43.6869    4.6389   -5.4205 O   0  0  0  0  0  0  0  0  0  0  0  0
   46.3030    2.6446   -7.1195 C   0  0  0  0  0  0  0  0  0  0  0  0
   45.5045    2.0956   -6.0986 O   0  0  0  0  0  0  0  0  0  0  0  0
   50.1486    2.4689   -7.2376 C   0  0  1  0  0  0  0  0  0  0  0  0
   49.0831    3.5446   -7.2870 O   0  0  0  0  0  0  0  0  0  0  0  0
   45.5318   10.3615  -12.2918 C   0  0  0  0  0  0  0  0  0  0  0  0
   43.4867    4.2025    0.1649 C   0  0  0  0  0  0  0  0  0  0  0  0
   42.5575    5.1082   -0.1653 O   0  0  0  0  0  0  0  0  0  0  0  0
   41.2602    4.9404   -5.9489 C   0  0  1  0  0  0  0  0  0  0  0  0
   41.4735    5.5248   -7.1917 O   0  0  0  0  0  0  0  0  0  0  0  0
   44.5714    8.2119   -7.4172 C   0  0  0  0  0  0  0  0  0  0  0  0
   50.2738    1.6687   -8.5625 C   0  0  0  0  0  0  0  0  0  0  0  0
   50.2916    2.5614   -9.6946 N   0  0  0  0  0  0  0  0  0  0  0  0
   45.1168    9.0403   -8.5850 C   0  0  0  0  0  0  0  0  0  0  0  0
   43.9818    9.7283   -9.2814 N   0  0  0  0  0  0  0  0  0  0  0  0
   43.6555    9.2087  -10.7075 C   0  0  0  0  0  0  0  0  0  0  0  0
  1  2  1  1  0  0  0
  1  9  1  0  0  0  0
  1 35  1  0  0  0  0
  3  4  1  1  0  0  0
  3 11  1  0  0  0  0
  3 45  1  0  0  0  0
  5  6  1  0  0  0  0
  5 12  1  0  0  0  0
  5 37  1  1  0  0  0
  6 30  1  0  0  0  0
  7 14  1  0  0  0  0
  7 41  1  0  0  0  0
  7 23  1  6  0  0  0
  8 16  2  0  0  0  0
  8 42  1  0  0  0  0
  9 10  1  6  0  0  0
  9 18  1  0  0  0  0
 11 20  1  0  0  0  0
 12 13  1  6  0  0  0
 12 22  1  0  0  0  0
 13 47  1  0  0  0  0
 14 15  1  6  0  0  0
 14 24  1  0  0  0  0
 16 17  1  0  0  0  0
 17 26  2  0  0  0  0
 18 19  1  1  0  0  0
 18 27  1  0  0  0  0
 20 21  1  1  0  0  0
 20 29  1  0  0  0  0
 22 23  1  6  0  0  0
 22 30  1  0  0  0  0
 24 25  1  1  0  0  0
 24 31  1  0  0  0  0
 26 33  1  0  0  0  0
 27 28  1  1  0  0  0
 27 34  1  0  0  0  0
 29  2  1  6  0  0  0
 29 36  1  0  0  0  0
 30 38  1  1  0  0  0
 31 32  1  6  0  0  0
 31 40  1  0  0  0  0
 33 42  2  0  0  0  0
 34 35  1  0  0  0  0
 34 43  1  1  0  0  0
 36 37  1  1  0  0  0
 36 45  1  0  0  0  0
 38 39  1  0  0  0  0
 40 41  1  0  0  0  0
 40 48  1  6  0  0  0
 43 44  1  0  0  0  0
 45 46  1  6  0  0  0
 47 50  1  0  0  0  0
 48 49  1  0  0  0  0
 50 51  1  0  0  0  0
 51 52  1  0  0  0  0
 52  8  1  0  0  0  0
M  END
>  <CHROM.1>
173.31818402,-66.85914225,-168.47188284,54.45805167,-174.05604194,173.31934115
-159.84682253,-53.55424381,-172.80350237,175.77598185,-73.38886609,161.74312303
-110.69700239,-106.64473730,-103.53460170,45.31755797,4.81496834,-6.11784869
1.66488758,-0.24048790,2.26794017

>  <Name>
2be0_lig

>  <RI>
0

>  <Rbt.Current_Directory>
/home/itssahil/PROJECTS/Mol_Feturizer/New_Systems/rnas/2be0

>  <Rbt.Executable>
rbdock ($Id: //depot/dev/client3/rdock/2013.1/src/exe/rbdock.cxx#4 $)

>  <Rbt.Library>
libRbt.so (2013.1, Build901 2013/11/27)

>  <Rbt.Parameter_File>
/export/apps/rDock/src/rDock_2013.1_src/data/scripts/dock_solv.prm

>  <Rbt.Receptor>
prm/pocket_docking_7.prm

>  <SCORE>
-28.8636

>  <SCORE.INTER>
-10.7923

>  <SCORE.INTER.CONST>
1

>  <SCORE.INTER.POLAR>
0

>  <SCORE.INTER.ROT>
15

>  <SCORE.INTER.SOLV>
20.3939

>  <SCORE.INTER.VDW>
-27.5928

>  <SCORE.INTER.norm>
-0.207543

>  <SCORE.INTRA>
-18.0713

>  <SCORE.INTRA.DIHEDRAL>
-38.8366

>  <SCORE.INTRA.DIHEDRAL.0>
47.8724

>  <SCORE.INTRA.POLAR>
0

>  <SCORE.INTRA.POLAR.0>
0

>  <SCORE.INTRA.REPUL>
0

>  <SCORE.INTRA.REPUL.0>
0

>  <SCORE.INTRA.SOLV>
0.0217287

>  <SCORE.INTRA.SOLV.lig_0>
-115.677

>  <SCORE.INTRA.VDW>
1.33613

>  <SCORE.INTRA.VDW.0>
-7.4833

>  <SCORE.INTRA.norm>
-0.347525

>  <SCORE.RESTR>
0

>  <SCORE.RESTR.CAVITY>
0

>  <SCORE.RESTR.norm>
0

>  <SCORE.SYSTEM>
0

>  <SCORE.SYSTEM.CONST>
0

>  <SCORE.SYSTEM.DIHEDRAL>
0

>  <SCORE.SYSTEM.SOLV>
0

>  <SCORE.SYSTEM.norm>
0

>  <SCORE.heavy>
52

>  <SCORE.norm>
-0.555069

>  <RMSD>
10.410

$$$$
2be0_lig
 OpenBabel11021811423D
libRbt.so/2013.1/901 2013/11/27
 52 56  0  0  0  0  0  0  0  0999 V2000
   42.1060    0.2158   -3.6184 C   0  0  2  0  0  0  0  0  0  0  0  0
   41.4512   -0.8550   -2.9801 O   0  0  0  0  0  0  0  0  0  0  0  0
   37.2225   -2.0636   -3.1499 C   0  0  2  0  0  0  0  0  0  0  0  0
   35.7503   -2.0278   -2.9244 N   0  0  0  0  0  0  0  0  0  0  0  0
   39.0250    1.4729   -4.8647 C   0  0  2  0  0  0  0  0  0  0  0  0
   37.9200    1.4511   -5.7914 O   0  0  0  0  0  0  0  0  0  0  0  0
   41.4820    4.2640   -7.3813 C   0  0  1  0  0  0  0  0  0  0  0  0
   38.2588    7.7766    0.2986 C   0  0  0  0  0  0  0  0  0  0  0  0
   43.5540   -0.2036   -4.1012 C   0  0  2  0  0  0  0  0  0  0  0  0
   43.4691   -1.4011   -4.9399 N   0  0  0  0  0  0  0  0  0  0  0  0
   37.9685   -2.0252   -1.7391 C   0  0  0  0  0  0  0  0  0  0  0  0
   39.9117    2.6644   -5.2607 C   0  0  2  0  0  0  0  0  0  0  0  0
   39.2764    3.8217   -4.5576 O   0  0  0  0  0  0  0  0  0  0  0  0
   41.4996    5.6589   -8.2151 C   0  0  2  0  0  0  0  0  0  0  0  0
   41.2195    5.3605   -9.6566 N   0  0  0  0  0  0  0  0  0  0  0  0
   39.5727    7.6132    0.8479 C   0  0  0  0  0  0  0  0  0  0  0  0
   39.8391    8.0438    2.1741 N   0  0  0  0  0  0  0  0  0  0  0  0
   44.4997   -0.4281   -2.8319 C   0  0  1  0  0  0  0  0  0  0  0  0
   45.7889   -0.8103   -3.2855 O   0  0  0  0  0  0  0  0  0  0  0  0
   39.5895   -2.0487   -1.9434 C   0  0  2  0  0  0  0  0  0  0  0  0
   40.2726   -2.0167   -0.6809 N   0  0  0  0  0  0  0  0  0  0  0  0
   39.7985    2.5435   -6.7922 C   0  0  2  0  0  0  0  0  0  0  0  0
   40.1806    3.6762   -7.5586 O   0  0  0  0  0  0  0  0  0  0  0  0
   42.9094    6.3010   -8.0433 C   0  0  1  0  0  0  0  0  0  0  0  0
   43.0679    6.5639   -6.6034 O   0  0  0  0  0  0  0  0  0  0  0  0
   38.8524    8.6443    3.0072 C   0  0  0  0  0  0  0  0  0  0  0  0
   44.5431    0.8911   -2.0072 C   0  0  2  0  0  0  0  0  0  0  0  0
   45.4053    0.7428   -0.8098 O   0  0  0  0  0  0  0  0  0  0  0  0
   40.0384   -0.8088   -2.8212 C   0  0  2  0  0  0  0  0  0  0  0  0
   38.3300    2.1070   -7.0089 C   0  0  1  0  0  0  0  0  0  0  0  0
   44.0550    5.2808   -8.5843 C   0  0  2  0  0  0  0  0  0  0  0  0
   43.9025    5.0131  -10.0228 O   0  0  0  0  0  0  0  0  0  0  0  0
   37.5356    8.8308    2.5191 C   0  0  0  0  0  0  0  0  0  0  0  0
   43.0924    1.2924   -1.5360 C   0  0  2  0  0  0  0  0  0  0  0  0
   42.2989    1.4182   -2.7482 O   0  0  0  0  0  0  0  0  0  0  0  0
   39.2714   -0.8880   -4.1867 C   0  0  2  0  0  0  0  0  0  0  0  0
   39.7555    0.2509   -4.8881 O   0  0  0  0  0  0  0  0  0  0  0  0
   38.1858    1.0856   -8.1358 C   0  0  0  0  0  0  0  0  0  0  0  0
   38.9135   -0.1076   -7.9686 O   0  0  0  0  0  0  0  0  0  0  0  0
   43.9701    3.9077   -7.7718 C   0  0  1  0  0  0  0  0  0  0  0  0
   42.5729    3.3433   -7.9269 O   0  0  0  0  0  0  0  0  0  0  0  0
   37.2069    8.3988    1.1408 C   0  0  0  0  0  0  0  0  0  0  0  0
   43.1944    2.5529   -0.7831 C   0  0  0  0  0  0  0  0  0  0  0  0
   43.7522    2.3156    0.4108 O   0  0  0  0  0  0  0  0  0  0  0  0
   37.7030   -0.8320   -3.9534 C   0  0  1  0  0  0  0  0  0  0  0  0
   37.0380   -0.9136   -5.1710 O   0  0  0  0  0  0  0  0  0  0  0  0
   39.2738    4.1259   -3.1071 C   0  0  0  0  0  0  0  0  0  0  0  0
   45.0747    2.9737   -8.3367 C   0  0  0  0  0  0  0  0  0  0  0  0
   44.7302    2.5245   -9.6627 N   0  0  0  0  0  0  0  0  0  0  0  0
   38.4391    5.3957   -2.9119 C   0  0  0  0  0  0  0  0  0  0  0  0
   38.5912    5.8807   -1.5018 N   0  0  0  0  0  0  0  0  0  0  0  0
   37.9856    7.2789   -1.2040 C   0  0  0  0  0  0  0  0  0  0  0  0
  1  2  1  1  0  0  0
  1  9  1  0  0  0  0
  1 35  1  0  0  0  0
  3  4  1  1  0  0  0
  3 11  1  0  0  0  0
  3 45  1  0  0  0  0
  5  6  1  0  0  0  0
  5 12  1  0  0  0  0
  5 37  1  6  0  0  0
  6 30  1  0  0  0  0
  7 14  1  0  0  0  0
  7 41  1  0  0  0  0
  7 23  1  6  0  0  0
  8 16  2  0  0  0  0
  8 42  1  0  0  0  0
  9 10  1  1  0  0  0
  9 18  1  0  0  0  0
 11 20  1  0  0  0  0
 12 13  1  1  0  0  0
 12 22  1  0  0  0  0
 13 47  1  0  0  0  0
 14 15  1  6  0  0  0
 14 24  1  0  0  0  0
 16 17  1  0  0  0  0
 17 26  2  0  0  0  0
 18 19  1  6  0  0  0
 18 27  1  0  0  0  0
 20 21  1  1  0  0  0
 20 29  1  0  0  0  0
 22 23  1  6  0  0  0
 22 30  1  0  0  0  0
 24 25  1  1  0  0  0
 24 31  1  0  0  0  0
 26 33  1  0  0  0  0
 27 28  1  1  0  0  0
 27 34  1  0  0  0  0
 29  2  1  6  0  0  0
 29 36  1  0  0  0  0
 30 38  1  6  0  0  0
 31 32  1  6  0  0  0
 31 40  1  0  0  0  0
 33 42  2  0  0  0  0
 34 35  1  0  0  0  0
 34 43  1  6  0  0  0
 36 37  1  6  0  0  0
 36 45  1  0  0  0  0
 38 39  1  0  0  0  0
 40 41  1  0  0  0  0
 40 48  1  6  0  0  0
 43 44  1  0  0  0  0
 45 46  1  6  0  0  0
 47 50  1  0  0  0  0
 48 49  1  0  0  0  0
 50 51  1  0  0  0  0
 51 52  1  0  0  0  0
 52  8  1  0  0  0  0
M  END
>  <CHROM.1>
-162.15774477,-79.77631914,-170.92520081,71.75879273,-177.92423348,54.31004716
-173.97002629,-57.46869368,-72.87291124,-95.51912596,-71.03686911,-170.52186451
170.84870113,-176.56615248,44.63915531,40.79475074,2.53517993,-4.08693375
0.53344854,-1.15832854,-3.07572563

>  <Name>
2be0_lig

>  <RI>
3.37048e+07

>  <Rbt.Current_Directory>
/home/itssahil/PROJECTS/Mol_Feturizer/New_Systems/rnas/2be0

>  <Rbt.Executable>
rbdock ($Id: //depot/dev/client3/rdock/2013.1/src/exe/rbdock.cxx#4 $)

>  <Rbt.Library>
libRbt.so (2013.1, Build901 2013/11/27)

>  <Rbt.Parameter_File>
/export/apps/rDock/src/rDock_2013.1_src/data/scripts/dock_solv.prm

>  <Rbt.Receptor>
prm/pocket_docking_8.prm

>  <SCORE>
-21.2199

>  <SCORE.INTER>
-5.9533

>  <SCORE.INTER.CONST>
1

>  <SCORE.INTER.POLAR>
0

>  <SCORE.INTER.ROT>
15

>  <SCORE.INTER.SOLV>
13.7445

>  <SCORE.INTER.VDW>
-22.1504

>  <SCORE.INTER.norm>
-0.114486

>  <SCORE.INTRA>
-15.2666

>  <SCORE.INTRA.DIHEDRAL>
-36.031

>  <SCORE.INTRA.DIHEDRAL.0>
47.8724

>  <SCORE.INTRA.POLAR>
0

>  <SCORE.INTRA.POLAR.0>
0

>  <SCORE.INTRA.REPUL>
0

>  <SCORE.INTRA.REPUL.0>
0

>  <SCORE.INTRA.SOLV>
-1.68351

>  <SCORE.INTRA.SOLV.lig_0>
-115.677

>  <SCORE.INTRA.VDW>
3.59062

>  <SCORE.INTRA.VDW.0>
-7.4833

>  <SCORE.INTRA.norm>
-0.293589

>  <SCORE.RESTR>
0

>  <SCORE.RESTR.CAVITY>
0

>  <SCORE.RESTR.norm>
0

>  <SCORE.SYSTEM>
0

>  <SCORE.SYSTEM.CONST>
0

>  <SCORE.SYSTEM.DIHEDRAL>
0

>  <SCORE.SYSTEM.SOLV>
0

>  <SCORE.SYSTEM.norm>
0

>  <SCORE.heavy>
52

>  <SCORE.norm>
-0.408075

>  <RMSD>
10.420

$$$$
2be0_lig
 OpenBabel11021811423D
libRbt.so/2013.1/901 2013/11/27
 52 56  0  0  0  0  0  0  0  0999 V2000
   42.0144    5.5658    1.2710 C   0  0  2  0  0  0  0  0  0  0  0  0
   41.5618    6.5449    0.3658 O   0  0  0  0  0  0  0  0  0  0  0  0
   42.7218   10.6265   -0.8030 C   0  0  2  0  0  0  0  0  0  0  0  0
   43.5743   11.8312   -1.0063 N   0  0  0  0  0  0  0  0  0  0  0  0
   42.7623    6.9537   -3.5030 C   0  0  2  0  0  0  0  0  0  0  0  0
   42.8202    5.5989   -3.9946 O   0  0  0  0  0  0  0  0  0  0  0  0
   46.8089    5.5662   -5.4122 C   0  0  1  0  0  0  0  0  0  0  0  0
   46.3630    9.7889   -9.6442 C   0  0  0  0  0  0  0  0  0  0  0  0
   41.0821    4.2867    1.2453 C   0  0  2  0  0  0  0  0  0  0  0  0
   40.9664    3.7854   -0.1257 N   0  0  0  0  0  0  0  0  0  0  0  0
   42.7580   10.2149    0.7390 C   0  0  0  0  0  0  0  0  0  0  0  0
   43.9520    7.7019   -4.1253 C   0  0  2  0  0  0  0  0  0  0  0  0
   43.4300    8.1437   -5.4556 O   0  0  0  0  0  0  0  0  0  0  0  0
   48.1550    5.2978   -4.5419 C   0  0  2  0  0  0  0  0  0  0  0  0
   49.0302    6.5114   -4.6242 N   0  0  0  0  0  0  0  0  0  0  0  0
   45.1964    9.4756  -10.4161 C   0  0  0  0  0  0  0  0  0  0  0  0
   45.0397   10.0339  -11.7118 N   0  0  0  0  0  0  0  0  0  0  0  0
   39.6566    4.6481    1.8724 C   0  0  1  0  0  0  0  0  0  0  0  0
   38.8346    3.4919    1.8331 O   0  0  0  0  0  0  0  0  0  0  0  0
   41.8444    8.8860    1.0023 C   0  0  2  0  0  0  0  0  0  0  0  0
   41.8667    8.5064    2.3868 N   0  0  0  0  0  0  0  0  0  0  0  0
   45.0025    6.5779   -4.0502 C   0  0  2  0  0  0  0  0  0  0  0  0
   46.1633    6.7251   -4.8549 O   0  0  0  0  0  0  0  0  0  0  0  0
   48.8728    4.0519   -5.1433 C   0  0  1  0  0  0  0  0  0  0  0  0
   47.9352    2.9266   -4.9950 O   0  0  0  0  0  0  0  0  0  0  0  0
   45.9971   10.9088  -12.3001 C   0  0  0  0  0  0  0  0  0  0  0  0
   39.8704    5.1578    3.3273 C   0  0  2  0  0  0  0  0  0  0  0  0
   38.5786    5.5139    3.9624 O   0  0  0  0  0  0  0  0  0  0  0  0
   42.3736    7.6856    0.1144 C   0  0  2  0  0  0  0  0  0  0  0  0
   44.1837    5.3020   -4.3596 C   0  0  1  0  0  0  0  0  0  0  0  0
   49.2302    4.3171   -6.7078 C   0  0  2  0  0  0  0  0  0  0  0  0
   50.1668    5.4409   -6.8637 O   0  0  0  0  0  0  0  0  0  0  0  0
   47.1705   11.2536  -11.5852 C   0  0  0  0  0  0  0  0  0  0  0  0
   40.8013    6.4310    3.3321 C   0  0  2  0  0  0  0  0  0  0  0  0
   42.0433    6.0205    2.6967 O   0  0  0  0  0  0  0  0  0  0  0  0
   42.3278    8.1442   -1.3845 C   0  0  2  0  0  0  0  0  0  0  0  0
   42.8058    6.9995   -2.0805 O   0  0  0  0  0  0  0  0  0  0  0  0
   44.6221    4.1084   -3.5126 C   0  0  0  0  0  0  0  0  0  0  0  0
   44.5561    4.2977   -2.1194 O   0  0  0  0  0  0  0  0  0  0  0  0
   47.8860    4.6240   -7.5151 C   0  0  1  0  0  0  0  0  0  0  0  0
   47.1981    5.8094   -6.8700 O   0  0  0  0  0  0  0  0  0  0  0  0
   47.3808   10.6977  -10.2283 C   0  0  0  0  0  0  0  0  0  0  0  0
   40.9837    6.8521    4.7305 C   0  0  0  0  0  0  0  0  0  0  0  0
   41.9979    7.7230    4.8056 O   0  0  0  0  0  0  0  0  0  0  0  0
   43.2485    9.4165   -1.6103 C   0  0  1  0  0  0  0  0  0  0  0  0
   43.1891    9.8165   -2.9400 O   0  0  0  0  0  0  0  0  0  0  0  0
   43.3556    7.3684   -6.7164 C   0  0  0  0  0  0  0  0  0  0  0  0
   48.2889    4.8789   -8.9931 C   0  0  0  0  0  0  0  0  0  0  0  0
   48.7013    6.2480   -9.1777 N   0  0  0  0  0  0  0  0  0  0  0  0
   44.7332    7.4521   -7.3818 C   0  0  0  0  0  0  0  0  0  0  0  0
   45.1513    8.8879   -7.4841 N   0  0  0  0  0  0  0  0  0  0  0  0
   46.5147    9.1417   -8.1819 C   0  0  0  0  0  0  0  0  0  0  0  0
  1  2  1  6  0  0  0
  1  9  1  0  0  0  0
  1 35  1  0  0  0  0
  3  4  1  1  0  0  0
  3 11  1  0  0  0  0
  3 45  1  0  0  0  0
  5  6  1  0  0  0  0
  5 12  1  0  0  0  0
  5 37  1  1  0  0  0
  6 30  1  0  0  0  0
  7 14  1  0  0  0  0
  7 41  1  0  0  0  0
  7 23  1  1  0  0  0
  8 16  2  0  0  0  0
  8 42  1  0  0  0  0
  9 10  1  6  0  0  0
  9 18  1  0  0  0  0
 11 20  1  0  0  0  0
 12 13  1  6  0  0  0
 12 22  1  0  0  0  0
 13 47  1  0  0  0  0
 14 15  1  6  0  0  0
 14 24  1  0  0  0  0
 16 17  1  0  0  0  0
 17 26  2  0  0  0  0
 18 19  1  1  0  0  0
 18 27  1  0  0  0  0
 20 21  1  1  0  0  0
 20 29  1  0  0  0  0
 22 23  1  6  0  0  0
 22 30  1  0  0  0  0
 24 25  1  6  0  0  0
 24 31  1  0  0  0  0
 26 33  1  0  0  0  0
 27 28  1  6  0  0  0
 27 34  1  0  0  0  0
 29  2  1  6  0  0  0
 29 36  1  0  0  0  0
 30 38  1  1  0  0  0
 31 32  1  1  0  0  0
 31 40  1  0  0  0  0
 33 42  2  0  0  0  0
 34 35  1  0  0  0  0
 34 43  1  1  0  0  0
 36 37  1  6  0  0  0
 36 45  1  0  0  0  0
 38 39  1  0  0  0  0
 40 41  1  0  0  0  0
 40 48  1  6  0  0  0
 43 44  1  0  0  0  0
 45 46  1  6  0  0  0
 47 50  1  0  0  0  0
 48 49  1  0  0  0  0
 50 51  1  0  0  0  0
 51 52  1  0  0  0  0
 52  8  1  0  0  0  0
M  END
>  <CHROM.1>
-171.39672719,-159.14403840,-104.52826043,-82.93370636,-82.74560372,-147.08515057
-98.25588888,-58.73888595,165.82967881,172.25727436,-83.77250874,-51.92607034
-178.11325351,107.69838126,-30.43414392,44.23555027,6.95824661,-3.35821991
-2.44024034,0.88047138,-0.71108212

>  <Name>
2be0_lig

>  <RI>
224

>  <Rbt.Current_Directory>
/home/itssahil/PROJECTS/Mol_Feturizer/New_Systems/rnas/2be0

>  <Rbt.Executable>
rbdock ($Id: //depot/dev/client3/rdock/2013.1/src/exe/rbdock.cxx#4 $)

>  <Rbt.Library>
libRbt.so (2013.1, Build901 2013/11/27)

>  <Rbt.Parameter_File>
/export/apps/rDock/src/rDock_2013.1_src/data/scripts/dock_solv.prm

>  <Rbt.Receptor>
prm/blind_docking_100.prm

>  <SCORE>
3.35695

>  <SCORE.INTER>
-6.81891

>  <SCORE.INTER.CONST>
1

>  <SCORE.INTER.POLAR>
-1.3298

>  <SCORE.INTER.ROT>
15

>  <SCORE.INTER.SOLV>
32.2737

>  <SCORE.INTER.VDW>
-24.4712

>  <SCORE.INTER.norm>
-0.131133

>  <SCORE.INTRA>
-2.22567

>  <SCORE.INTRA.DIHEDRAL>
-20.623

>  <SCORE.INTRA.DIHEDRAL.0>
47.8724

>  <SCORE.INTRA.POLAR>
0

>  <SCORE.INTRA.POLAR.0>
0

>  <SCORE.INTRA.REPUL>
0.000182721

>  <SCORE.INTRA.REPUL.0>
0

>  <SCORE.INTRA.SOLV>
5.56499

>  <SCORE.INTRA.SOLV.lig_0>
-115.677

>  <SCORE.INTRA.VDW>
5.30243

>  <SCORE.INTRA.VDW.0>
-7.4833

>  <SCORE.INTRA.norm>
-0.0428014

>  <SCORE.RESTR>
12.4015

>  <SCORE.RESTR.CAVITY>
12.4015

>  <SCORE.RESTR.norm>
0.238491

>  <SCORE.SYSTEM>
0

>  <SCORE.SYSTEM.CONST>
0

>  <SCORE.SYSTEM.DIHEDRAL>
0

>  <SCORE.SYSTEM.SOLV>
0

>  <SCORE.SYSTEM.norm>
0

>  <SCORE.heavy>
52

>  <SCORE.norm>
0.0645568

>  <RMSD>
10.427

$$$$
2be0_lig
 OpenBabel11021811423D
libRbt.so/2013.1/901 2013/11/27
 52 56  0  0  0  0  0  0  0  0999 V2000
   41.3732    7.4727   -0.6909 C   0  0  2  0  0  0  0  0  0  0  0  0
   41.5621    6.8935   -1.9604 O   0  0  0  0  0  0  0  0  0  0  0  0
   38.4462    5.2866   -4.6212 C   0  0  2  0  0  0  0  0  0  0  0  0
   37.2672    5.2566   -5.5315 N   0  0  0  0  0  0  0  0  0  0  0  0
   42.5214    6.6639   -5.9673 C   0  0  2  0  0  0  0  0  0  0  0  0
   43.0765    5.3327   -5.9779 O   0  0  0  0  0  0  0  0  0  0  0  0
   47.1049    6.2722   -6.0645 C   0  0  1  0  0  0  0  0  0  0  0  0
   48.1895   10.9845   -9.7337 C   0  0  0  0  0  0  0  0  0  0  0  0
   41.8861    8.9700   -0.6619 C   0  0  2  0  0  0  0  0  0  0  0  0
   41.2486    9.7331   -1.7370 N   0  0  0  0  0  0  0  0  0  0  0  0
   38.0214    5.9602   -3.2377 C   0  0  0  0  0  0  0  0  0  0  0  0
   43.6788    7.6289   -6.2700 C   0  0  2  0  0  0  0  0  0  0  0  0
   43.7375    7.6464   -7.7646 O   0  0  0  0  0  0  0  0  0  0  0  0
   48.3364    6.9983   -6.8376 C   0  0  2  0  0  0  0  0  0  0  0  0
   47.8086    7.6413   -8.0840 N   0  0  0  0  0  0  0  0  0  0  0  0
   48.8271   10.0324  -10.5951 C   0  0  0  0  0  0  0  0  0  0  0  0
   49.9919   10.4055  -11.3156 N   0  0  0  0  0  0  0  0  0  0  0  0
   43.4806    8.9941   -0.7755 C   0  0  1  0  0  0  0  0  0  0  0  0
   43.9190   10.3438   -0.7554 O   0  0  0  0  0  0  0  0  0  0  0  0
   39.2932    6.0253   -2.2139 C   0  0  2  0  0  0  0  0  0  0  0  0
   38.9235    6.6275   -0.9641 N   0  0  0  0  0  0  0  0  0  0  0  0
   44.7893    6.9236   -5.4687 C   0  0  2  0  0  0  0  0  0  0  0  0
   46.1294    7.2871   -5.7661 O   0  0  0  0  0  0  0  0  0  0  0  0
   49.3959    5.9077   -7.1796 C   0  0  1  0  0  0  0  0  0  0  0  0
   49.8524    5.3606   -5.8913 O   0  0  0  0  0  0  0  0  0  0  0  0
   50.5744   11.7022  -11.2300 C   0  0  0  0  0  0  0  0  0  0  0  0
   44.0738    8.1746    0.4071 C   0  0  2  0  0  0  0  0  0  0  0  0
   45.5557    8.1573    0.3531 O   0  0  0  0  0  0  0  0  0  0  0  0
   40.4722    6.8527   -2.8735 C   0  0  2  0  0  0  0  0  0  0  0  0
   44.4856    5.4216   -5.6825 C   0  0  1  0  0  0  0  0  0  0  0  0
   48.7244    4.7505   -8.1048 C   0  0  2  0  0  0  0  0  0  0  0  0
   48.2653    5.2902   -9.3942 O   0  0  0  0  0  0  0  0  0  0  0  0
   49.9889   12.6847  -10.3940 C   0  0  0  0  0  0  0  0  0  0  0  0
   43.5513    6.6872    0.3614 C   0  0  2  0  0  0  0  0  0  0  0  0
   42.1004    6.7714    0.4134 O   0  0  0  0  0  0  0  0  0  0  0  0
   40.8426    6.1577   -4.2296 C   0  0  2  0  0  0  0  0  0  0  0  0
   41.9047    6.9668   -4.7201 O   0  0  0  0  0  0  0  0  0  0  0  0
   44.7300    4.5925   -4.4227 C   0  0  0  0  0  0  0  0  0  0  0  0
   43.7000    4.6292   -3.4641 O   0  0  0  0  0  0  0  0  0  0  0  0
   47.4905    4.0981   -7.3273 C   0  0  1  0  0  0  0  0  0  0  0  0
   46.5101    5.1973   -6.9736 O   0  0  0  0  0  0  0  0  0  0  0  0
   48.7714   12.3453   -9.6215 C   0  0  0  0  0  0  0  0  0  0  0  0
   44.1265    5.9706    1.5111 C   0  0  0  0  0  0  0  0  0  0  0  0
   43.5814    4.7505    1.5945 O   0  0  0  0  0  0  0  0  0  0  0  0
   39.5951    6.1392   -5.2098 C   0  0  1  0  0  0  0  0  0  0  0  0
   39.9363    5.5115   -6.4018 O   0  0  0  0  0  0  0  0  0  0  0  0
   43.9147    8.8117   -8.6630 C   0  0  0  0  0  0  0  0  0  0  0  0
   46.8852    3.0134   -8.2593 C   0  0  0  0  0  0  0  0  0  0  0  0
   47.5706    1.7566   -8.0871 N   0  0  0  0  0  0  0  0  0  0  0  0
   45.2302    8.6040   -9.4204 C   0  0  0  0  0  0  0  0  0  0  0  0
   45.7753    9.9334   -9.8473 N   0  0  0  0  0  0  0  0  0  0  0  0
   46.8738   10.5343   -8.9296 C   0  0  0  0  0  0  0  0  0  0  0  0
  1  2  1  6  0  0  0
  1  9  1  0  0  0  0
  1 35  1  0  0  0  0
  3  4  1  6  0  0  0
  3 11  1  0  0  0  0
  3 45  1  0  0  0  0
  5  6  1  0  0  0  0
  5 12  1  0  0  0  0
  5 37  1  1  0  0  0
  6 30  1  0  0  0  0
  7 14  1  0  0  0  0
  7 41  1  0  0  0  0
  7 23  1  6  0  0  0
  8 16  2  0  0  0  0
  8 42  1  0  0  0  0
  9 10  1  6  0  0  0
  9 18  1  0  0  0  0
 11 20  1  0  0  0  0
 12 13  1  6  0  0  0
 12 22  1  0  0  0  0
 13 47  1  0  0  0  0
 14 15  1  6  0  0  0
 14 24  1  0  0  0  0
 16 17  1  0  0  0  0
 17 26  2  0  0  0  0
 18 19  1  1  0  0  0
 18 27  1  0  0  0  0
 20 21  1  1  0  0  0
 20 29  1  0  0  0  0
 22 23  1  6  0  0  0
 22 30  1  0  0  0  0
 24 25  1  1  0  0  0
 24 31  1  0  0  0  0
 26 33  1  0  0  0  0
 27 28  1  6  0  0  0
 27 34  1  0  0  0  0
 29  2  1  1  0  0  0
 29 36  1  0  0  0  0
 30 38  1  1  0  0  0
 31 32  1  6  0  0  0
 31 40  1  0  0  0  0
 33 42  2  0  0  0  0
 34 35  1  0  0  0  0
 34 43  1  1  0  0  0
 36 37  1  6  0  0  0
 36 45  1  0  0  0  0
 38 39  1  0  0  0  0
 40 41  1  0  0  0  0
 40 48  1  6  0  0  0
 43 44  1  0  0  0  0
 45 46  1  6  0  0  0
 47 50  1  0  0  0  0
 48 49  1  0  0  0  0
 50 51  1  0  0  0  0
 51 52  1  0  0  0  0
 52  8  1  0  0  0  0
M  END
>  <CHROM.1>
-97.80662346,-58.31597971,160.83274675,137.01711612,117.20198087,-128.12572934
-59.87109185,-35.91300544,172.75617252,-179.43420480,86.37090102,-154.80054293
98.04651482,128.77045781,-53.05072036,44.47732744,7.10863891,-5.22366026
-2.43306019,-0.48753675,-1.82863048

>  <Name>
2be0_lig

>  <RI>
224

>  <Rbt.Current_Directory>
/home/itssahil/PROJECTS/Mol_Feturizer/New_Systems/rnas/2be0

>  <Rbt.Executable>
rbdock ($Id: //depot/dev/client3/rdock/2013.1/src/exe/rbdock.cxx#4 $)

>  <Rbt.Library>
libRbt.so (2013.1, Build901 2013/11/27)

>  <Rbt.Parameter_File>
/export/apps/rDock/src/rDock_2013.1_src/data/scripts/dock_solv.prm

>  <Rbt.Receptor>
prm/blind_docking_100.prm

>  <SCORE>
60.2559

>  <SCORE.INTER>
38.9436

>  <SCORE.INTER.CONST>
1

>  <SCORE.INTER.POLAR>
0

>  <SCORE.INTER.ROT>
15

>  <SCORE.INTER.SOLV>
28.8923

>  <SCORE.INTER.VDW>
2.73166

>  <SCORE.INTER.norm>
0.748916

>  <SCORE.INTRA>
5.16022

>  <SCORE.INTRA.DIHEDRAL>
-12.5028

>  <SCORE.INTRA.DIHEDRAL.0>
47.8724

>  <SCORE.INTRA.POLAR>
0

>  <SCORE.INTRA.POLAR.0>
0

>  <SCORE.INTRA.REPUL>
0.665478

>  <SCORE.INTRA.REPUL.0>
0

>  <SCORE.INTRA.SOLV>
2.85803

>  <SCORE.INTRA.SOLV.lig_0>
-115.677

>  <SCORE.INTRA.VDW>
6.65521

>  <SCORE.INTRA.VDW.0>
-7.4833

>  <SCORE.INTRA.norm>
0.099235

>  <SCORE.RESTR>
16.1521

>  <SCORE.RESTR.CAVITY>
16.1521

>  <SCORE.RESTR.norm>
0.310617

>  <SCORE.SYSTEM>
0

>  <SCORE.SYSTEM.CONST>
0

>  <SCORE.SYSTEM.DIHEDRAL>
0

>  <SCORE.SYSTEM.SOLV>
0

>  <SCORE.SYSTEM.norm>
0

>  <SCORE.heavy>
52

>  <SCORE.norm>
1.15877

>  <RMSD>
10.453

$$$$
2be0_lig
 OpenBabel11021811423D
libRbt.so/2013.1/901 2013/11/27
 52 56  0  0  0  0  0  0  0  0999 V2000
   40.1519   -0.2425   -4.7268 C   0  0  2  0  0  0  0  0  0  0  0  0
   38.9800    0.2503   -4.1212 O   0  0  0  0  0  0  0  0  0  0  0  0
   38.3995    4.0639   -2.0022 C   0  0  2  0  0  0  0  0  0  0  0  0
   38.4719    5.0840   -0.9188 N   0  0  0  0  0  0  0  0  0  0  0  0
   41.8371    3.0825   -4.8155 C   0  0  2  0  0  0  0  0  0  0  0  0
   41.3738    3.3180   -6.1610 O   0  0  0  0  0  0  0  0  0  0  0  0
   45.2031    2.2166   -7.3388 C   0  0  1  0  0  0  0  0  0  0  0  0
   43.8610    8.4365   -8.4201 C   0  0  0  0  0  0  0  0  0  0  0  0
   39.8147   -1.3259   -5.8305 C   0  0  2  0  0  0  0  0  0  0  0  0
   38.8646   -0.7702   -6.7964 N   0  0  0  0  0  0  0  0  0  0  0  0
   37.7185    2.7392   -1.4281 C   0  0  0  0  0  0  0  0  0  0  0  0
   43.2719    2.5431   -4.9292 C   0  0  2  0  0  0  0  0  0  0  0  0
   44.1051    3.7821   -5.0178 O   0  0  0  0  0  0  0  0  0  0  0  0
   46.0101    1.5359   -8.5744 C   0  0  2  0  0  0  0  0  0  0  0  0
   46.7089    0.3084   -8.0737 N   0  0  0  0  0  0  0  0  0  0  0  0
   43.0157    7.7582   -9.3582 C   0  0  0  0  0  0  0  0  0  0  0  0
   42.8825    8.2635  -10.6781 N   0  0  0  0  0  0  0  0  0  0  0  0
   39.2520   -2.6486   -5.1309 C   0  0  1  0  0  0  0  0  0  0  0  0
   38.9492   -3.6031   -6.1367 O   0  0  0  0  0  0  0  0  0  0  0  0
   37.6328    1.5877   -2.5842 C   0  0  2  0  0  0  0  0  0  0  0  0
   37.0198    0.3909   -2.0809 N   0  0  0  0  0  0  0  0  0  0  0  0
   43.0907    1.6519   -6.1725 C   0  0  2  0  0  0  0  0  0  0  0  0
   44.2700    1.2380   -6.8467 O   0  0  0  0  0  0  0  0  0  0  0  0
   47.0353    2.5807   -9.1095 C   0  0  1  0  0  0  0  0  0  0  0  0
   46.2430    3.7265   -9.5857 O   0  0  0  0  0  0  0  0  0  0  0  0
   43.5553    9.4337  -11.1318 C   0  0  0  0  0  0  0  0  0  0  0  0
   40.3249   -3.1769   -4.1350 C   0  0  2  0  0  0  0  0  0  0  0  0
   39.8565   -4.4057   -3.4495 O   0  0  0  0  0  0  0  0  0  0  0  0
   39.0861    1.2548   -3.1196 C   0  0  2  0  0  0  0  0  0  0  0  0
   42.1166    2.4659   -7.0570 C   0  0  1  0  0  0  0  0  0  0  0  0
   48.0517    3.0230   -7.9191 C   0  0  2  0  0  0  0  0  0  0  0  0
   48.8468    1.8825   -7.4379 O   0  0  0  0  0  0  0  0  0  0  0  0
   44.4051   10.1456  -10.2497 C   0  0  0  0  0  0  0  0  0  0  0  0
   40.6474   -2.0842   -3.0443 C   0  0  2  0  0  0  0  0  0  0  0  0
   41.0953   -0.9097   -3.7755 O   0  0  0  0  0  0  0  0  0  0  0  0
   39.7124    2.5869   -3.6603 C   0  0  2  0  0  0  0  0  0  0  0  0
   40.9925    2.1709   -4.1203 O   0  0  0  0  0  0  0  0  0  0  0  0
   41.1000    1.5786   -7.7735 C   0  0  0  0  0  0  0  0  0  0  0  0
   40.1276    2.2602   -8.5294 O   0  0  0  0  0  0  0  0  0  0  0  0
   47.2136    3.6411   -6.7073 C   0  0  1  0  0  0  0  0  0  0  0  0
   46.2000    2.6124   -6.2501 O   0  0  0  0  0  0  0  0  0  0  0  0
   44.5771    9.6595   -8.8610 C   0  0  0  0  0  0  0  0  0  0  0  0
   41.6792   -2.6308   -2.1483 C   0  0  0  0  0  0  0  0  0  0  0  0
   41.1329   -3.5588   -1.3525 O   0  0  0  0  0  0  0  0  0  0  0  0
   39.8085    3.6709   -2.5057 C   0  0  1  0  0  0  0  0  0  0  0  0
   40.3554    4.8478   -3.0028 O   0  0  0  0  0  0  0  0  0  0  0  0
   44.0620    4.8458   -6.0488 C   0  0  0  0  0  0  0  0  0  0  0  0
   48.2309    4.0330   -5.6013 C   0  0  0  0  0  0  0  0  0  0  0  0
   49.1620    5.0173   -6.0941 N   0  0  0  0  0  0  0  0  0  0  0  0
   45.1150    5.8908   -5.6661 C   0  0  0  0  0  0  0  0  0  0  0  0
   45.2247    6.9116   -6.7582 N   0  0  0  0  0  0  0  0  0  0  0  0
   43.9939    7.8414   -6.9339 C   0  0  0  0  0  0  0  0  0  0  0  0
  1  2  1  1  0  0  0
  1  9  1  0  0  0  0
  1 35  1  0  0  0  0
  3  4  1  1  0  0  0
  3 11  1  0  0  0  0
  3 45  1  0  0  0  0
  5  6  1  0  0  0  0
  5 12  1  0  0  0  0
  5 37  1  6  0  0  0
  6 30  1  0  0  0  0
  7 14  1  0  0  0  0
  7 41  1  0  0  0  0
  7 23  1  1  0  0  0
  8 16  2  0  0  0  0
  8 42  1  0  0  0  0
  9 10  1  6  0  0  0
  9 18  1  0  0  0  0
 11 20  1  0  0  0  0
 12 13  1  6  0  0  0
 12 22  1  0  0  0  0
 13 47  1  0  0  0  0
 14 15  1  1  0  0  0
 14 24  1  0  0  0  0
 16 17  1  0  0  0  0
 17 26  2  0  0  0  0
 18 19  1  6  0  0  0
 18 27  1  0  0  0  0
 20 21  1  1  0  0  0
 20 29  1  0  0  0  0
 22 23  1  6  0  0  0
 22 30  1  0  0  0  0
 24 25  1  1  0  0  0
 24 31  1  0  0  0  0
 26 33  1  0  0  0  0
 27 28  1  1  0  0  0
 27 34  1  0  0  0  0
 29  2  1  6  0  0  0
 29 36  1  0  0  0  0
 30 38  1  1  0  0  0
 31 32  1  1  0  0  0
 31 40  1  0  0  0  0
 33 42  2  0  0  0  0
 34 35  1  0  0  0  0
 34 43  1  1  0  0  0
 36 37  1  1  0  0  0
 36 45  1  0  0  0  0
 38 39  1  0  0  0  0
 40 41  1  0  0  0  0
 40 48  1  1  0  0  0
 43 44  1  0  0  0  0
 45 46  1  6  0  0  0
 47 50  1  0  0  0  0
 48 49  1  0  0  0  0
 50 51  1  0  0  0  0
 51 52  1  0  0  0  0
 52  8  1  0  0  0  0
M  END
>  <CHROM.1>
-178.79546285,-73.97295192,-154.65983565,-60.79334133,179.65120745,-56.77893139
-178.26669068,59.84870439,-73.49947559,173.75662046,60.73004248,173.55712132
68.72481449,-154.83517949,94.99800611,42.51012357,2.51297268,-5.74310699
-2.28861552,0.48686781,-0.21864185

>  <Name>
2be0_lig

>  <RI>
3.37048e+07

>  <Rbt.Current_Directory>
/home/itssahil/PROJECTS/Mol_Feturizer/New_Systems/rnas/2be0

>  <Rbt.Executable>
rbdock ($Id: //depot/dev/client3/rdock/2013.1/src/exe/rbdock.cxx#4 $)

>  <Rbt.Library>
libRbt.so (2013.1, Build901 2013/11/27)

>  <Rbt.Parameter_File>
/export/apps/rDock/src/rDock_2013.1_src/data/scripts/dock_solv.prm

>  <Rbt.Receptor>
prm/pocket_docking_8.prm

>  <SCORE>
-23.7207

>  <SCORE.INTER>
-4.45592

>  <SCORE.INTER.CONST>
1

>  <SCORE.INTER.POLAR>
0

>  <SCORE.INTER.ROT>
15

>  <SCORE.INTER.SOLV>
10.7247

>  <SCORE.INTER.VDW>
-20.1455

>  <SCORE.INTER.norm>
-0.0856907

>  <SCORE.INTRA>
-19.2648

>  <SCORE.INTRA.DIHEDRAL>
-41.4413

>  <SCORE.INTRA.DIHEDRAL.0>
47.8724

>  <SCORE.INTRA.POLAR>
0

>  <SCORE.INTRA.POLAR.0>
0

>  <SCORE.INTRA.REPUL>
0

>  <SCORE.INTRA.REPUL.0>
0

>  <SCORE.INTRA.SOLV>
-1.52865

>  <SCORE.INTRA.SOLV.lig_0>
-115.677

>  <SCORE.INTRA.VDW>
2.22021

>  <SCORE.INTRA.VDW.0>
-7.4833

>  <SCORE.INTRA.norm>
-0.370477

>  <SCORE.RESTR>
0

>  <SCORE.RESTR.CAVITY>
0

>  <SCORE.RESTR.norm>
0

>  <SCORE.SYSTEM>
0

>  <SCORE.SYSTEM.CONST>
0

>  <SCORE.SYSTEM.DIHEDRAL>
0

>  <SCORE.SYSTEM.SOLV>
0

>  <SCORE.SYSTEM.norm>
0

>  <SCORE.heavy>
52

>  <SCORE.norm>
-0.456167

>  <RMSD>
10.468

$$$$
2be0_lig
 OpenBabel11021811423D
libRbt.so/2013.1/901 2013/11/27
 52 56  0  0  0  0  0  0  0  0999 V2000
   39.5556    1.0535   -2.0994 C   0  0  2  0  0  0  0  0  0  0  0  0
   38.6544    2.1233   -1.9374 O   0  0  0  0  0  0  0  0  0  0  0  0
   38.7853    6.5162   -1.6990 C   0  0  2  0  0  0  0  0  0  0  0  0
   39.3194    7.8857   -1.4566 N   0  0  0  0  0  0  0  0  0  0  0  0
   39.6755    3.9816   -5.3965 C   0  0  2  0  0  0  0  0  0  0  0  0
   38.3940    3.6601   -5.9751 O   0  0  0  0  0  0  0  0  0  0  0  0
   41.7310    0.4585   -7.4124 C   0  0  1  0  0  0  0  0  0  0  0  0
   43.6411    8.6920   -9.3604 C   0  0  0  0  0  0  0  0  0  0  0  0
   40.0603    0.5123   -0.7000 C   0  0  2  0  0  0  0  0  0  0  0  0
   38.9122    0.1680    0.1414 N   0  0  0  0  0  0  0  0  0  0  0  0
   38.9256    5.6562   -0.3614 C   0  0  0  0  0  0  0  0  0  0  0  0
   40.7357    3.2465   -6.2320 C   0  0  2  0  0  0  0  0  0  0  0  0
   40.9949    4.1825   -7.3696 O   0  0  0  0  0  0  0  0  0  0  0  0
   42.0621   -0.2186   -8.8523 C   0  0  2  0  0  0  0  0  0  0  0  0
   40.9815   -1.2041   -9.1795 N   0  0  0  0  0  0  0  0  0  0  0  0
   44.1248    8.5863   -8.0151 C   0  0  0  0  0  0  0  0  0  0  0  0
   44.9869    9.5881   -7.4971 N   0  0  0  0  0  0  0  0  0  0  0  0
   41.0020    1.6042   -0.0095 C   0  0  1  0  0  0  0  0  0  0  0  0
   41.4370    1.1034    1.2452 O   0  0  0  0  0  0  0  0  0  0  0  0
   38.3627    4.1393   -0.5897 C   0  0  2  0  0  0  0  0  0  0  0  0
   38.4813    3.3557    0.6074 N   0  0  0  0  0  0  0  0  0  0  0  0
   39.9705    1.9330   -6.4807 C   0  0  2  0  0  0  0  0  0  0  0  0
   40.4465    1.0971   -7.5254 O   0  0  0  0  0  0  0  0  0  0  0  0
   43.4460   -0.9267   -8.7409 C   0  0  1  0  0  0  0  0  0  0  0  0
   44.4244    0.1303   -8.4359 O   0  0  0  0  0  0  0  0  0  0  0  0
   45.4088   10.7164   -8.2566 C   0  0  0  0  0  0  0  0  0  0  0  0
   42.1974    1.9003   -0.9612 C   0  0  2  0  0  0  0  0  0  0  0  0
   43.1076    2.9132   -0.3742 O   0  0  0  0  0  0  0  0  0  0  0  0
   39.1643    3.4398   -1.7635 C   0  0  2  0  0  0  0  0  0  0  0  0
   38.5081    2.4015   -6.6705 C   0  0  1  0  0  0  0  0  0  0  0  0
   43.4045   -2.0471   -7.5625 C   0  0  2  0  0  0  0  0  0  0  0  0
   42.4283   -3.1067   -7.8605 O   0  0  0  0  0  0  0  0  0  0  0  0
   44.9622   10.8750   -9.5917 C   0  0  0  0  0  0  0  0  0  0  0  0
   41.6748    2.4375   -2.3489 C   0  0  2  0  0  0  0  0  0  0  0  0
   40.7897    1.4072   -2.8687 O   0  0  0  0  0  0  0  0  0  0  0  0
   39.0034    4.3271   -3.0464 C   0  0  2  0  0  0  0  0  0  0  0  0
   39.7425    3.6060   -4.0247 O   0  0  0  0  0  0  0  0  0  0  0  0
   37.5023    1.4460   -6.0307 C   0  0  0  0  0  0  0  0  0  0  0  0
   37.6628    1.2342   -4.6484 O   0  0  0  0  0  0  0  0  0  0  0  0
   43.0286   -1.3467   -6.1765 C   0  0  1  0  0  0  0  0  0  0  0  0
   41.7029   -0.6329   -6.3430 O   0  0  0  0  0  0  0  0  0  0  0  0
   44.0617    9.8562  -10.1793 C   0  0  0  0  0  0  0  0  0  0  0  0
   42.8440    2.6779   -3.2097 C   0  0  0  0  0  0  0  0  0  0  0  0
   43.4634    3.7986   -2.8183 O   0  0  0  0  0  0  0  0  0  0  0  0
   39.5871    5.7817   -2.7994 C   0  0  1  0  0  0  0  0  0  0  0  0
   39.4278    6.5581   -3.9411 O   0  0  0  0  0  0  0  0  0  0  0  0
   41.8832    3.9827   -8.5390 C   0  0  0  0  0  0  0  0  0  0  0  0
   42.9931   -2.4617   -5.0961 C   0  0  0  0  0  0  0  0  0  0  0  0
   42.8018   -1.8922   -3.7855 N   0  0  0  0  0  0  0  0  0  0  0  0
   41.7006    5.1941   -9.4590 C   0  0  0  0  0  0  0  0  0  0  0  0
   42.5411    6.3305   -8.9602 N   0  0  0  0  0  0  0  0  0  0  0  0
   42.6660    7.5446   -9.9197 C   0  0  0  0  0  0  0  0  0  0  0  0
  1  2  1  1  0  0  0
  1  9  1  0  0  0  0
  1 35  1  0  0  0  0
  3  4  1  1  0  0  0
  3 11  1  0  0  0  0
  3 45  1  0  0  0  0
  5  6  1  0  0  0  0
  5 12  1  0  0  0  0
  5 37  1  1  0  0  0
  6 30  1  0  0  0  0
  7 14  1  0  0  0  0
  7 41  1  0  0  0  0
  7 23  1  6  0  0  0
  8 16  2  0  0  0  0
  8 42  1  0  0  0  0
  9 10  1  1  0  0  0
  9 18  1  0  0  0  0
 11 20  1  0  0  0  0
 12 13  1  6  0  0  0
 12 22  1  0  0  0  0
 13 47  1  0  0  0  0
 14 15  1  1  0  0  0
 14 24  1  0  0  0  0
 16 17  1  0  0  0  0
 17 26  2  0  0  0  0
 18 19  1  1  0  0  0
 18 27  1  0  0  0  0
 20 21  1  1  0  0  0
 20 29  1  0  0  0  0
 22 23  1  6  0  0  0
 22 30  1  0  0  0  0
 24 25  1  1  0  0  0
 24 31  1  0  0  0  0
 26 33  1  0  0  0  0
 27 28  1  1  0  0  0
 27 34  1  0  0  0  0
 29  2  1  6  0  0  0
 29 36  1  0  0  0  0
 30 38  1  1  0  0  0
 31 32  1  6  0  0  0
 31 40  1  0  0  0  0
 33 42  2  0  0  0  0
 34 35  1  0  0  0  0
 34 43  1  6  0  0  0
 36 37  1  6  0  0  0
 36 45  1  0  0  0  0
 38 39  1  0  0  0  0
 40 41  1  0  0  0  0
 40 48  1  1  0  0  0
 43 44  1  0  0  0  0
 45 46  1  6  0  0  0
 47 50  1  0  0  0  0
 48 49  1  0  0  0  0
 50 51  1  0  0  0  0
 51 52  1  0  0  0  0
 52  8  1  0  0  0  0
M  END
>  <CHROM.1>
84.17148746,-71.15980709,-171.28614899,-176.83908202,175.56498688,66.59133586
-135.41111966,-57.91397505,-75.29672130,170.41409463,173.81479024,81.88653658
169.47326254,-176.93667869,-8.61866230,41.19672875,3.09104432,-4.97898234
2.51813998,-1.17024062,-3.03868705

>  <Name>
2be0_lig

>  <RI>
0

>  <Rbt.Current_Directory>
/home/itssahil/PROJECTS/Mol_Feturizer/New_Systems/rnas/2be0

>  <Rbt.Executable>
rbdock ($Id: //depot/dev/client3/rdock/2013.1/src/exe/rbdock.cxx#4 $)

>  <Rbt.Library>
libRbt.so (2013.1, Build901 2013/11/27)

>  <Rbt.Parameter_File>
/export/apps/rDock/src/rDock_2013.1_src/data/scripts/dock_solv.prm

>  <Rbt.Receptor>
prm/pocket_docking_6.prm

>  <SCORE>
-32.9809

>  <SCORE.INTER>
-17.4357

>  <SCORE.INTER.CONST>
1

>  <SCORE.INTER.POLAR>
-0.959166

>  <SCORE.INTER.ROT>
15

>  <SCORE.INTER.SOLV>
17.5125

>  <SCORE.INTER.VDW>
-27.8641

>  <SCORE.INTER.norm>
-0.335301

>  <SCORE.INTRA>
-15.5453

>  <SCORE.INTRA.DIHEDRAL>
-33.6161

>  <SCORE.INTRA.DIHEDRAL.0>
47.8724

>  <SCORE.INTRA.POLAR>
0

>  <SCORE.INTRA.POLAR.0>
0

>  <SCORE.INTRA.REPUL>
0.0780509

>  <SCORE.INTRA.REPUL.0>
0

>  <SCORE.INTRA.SOLV>
1.4377

>  <SCORE.INTRA.SOLV.lig_0>
-115.677

>  <SCORE.INTRA.VDW>
0.153632

>  <SCORE.INTRA.VDW.0>
-7.4833

>  <SCORE.INTRA.norm>
-0.298948

>  <SCORE.RESTR>
0

>  <SCORE.RESTR.CAVITY>
0

>  <SCORE.RESTR.norm>
0

>  <SCORE.SYSTEM>
0

>  <SCORE.SYSTEM.CONST>
0

>  <SCORE.SYSTEM.DIHEDRAL>
0

>  <SCORE.SYSTEM.SOLV>
0

>  <SCORE.SYSTEM.norm>
0

>  <SCORE.heavy>
52

>  <SCORE.norm>
-0.634249

>  <RMSD>
10.472

$$$$
2be0_lig
 OpenBabel11021811423D
libRbt.so/2013.1/901 2013/11/27
 52 56  0  0  0  0  0  0  0  0999 V2000
   41.2525    5.8054   -0.5358 C   0  0  2  0  0  0  0  0  0  0  0  0
   41.0659    7.1568   -0.8849 O   0  0  0  0  0  0  0  0  0  0  0  0
   43.1454   11.0125   -0.4608 C   0  0  2  0  0  0  0  0  0  0  0  0
   44.1749   12.0046   -0.0420 N   0  0  0  0  0  0  0  0  0  0  0  0
   43.1760    7.8892   -3.9968 C   0  0  2  0  0  0  0  0  0  0  0  0
   42.1683    7.0390   -4.5818 O   0  0  0  0  0  0  0  0  0  0  0  0
   46.5707    5.1509   -5.1811 C   0  0  1  0  0  0  0  0  0  0  0  0
   47.3077   11.2862   -8.7369 C   0  0  0  0  0  0  0  0  0  0  0  0
   40.1437    5.3183    0.4836 C   0  0  2  0  0  0  0  0  0  0  0  0
   38.8132    5.5864   -0.0662 N   0  0  0  0  0  0  0  0  0  0  0  0
   42.5484   10.2995    0.8367 C   0  0  0  0  0  0  0  0  0  0  0  0
   44.5244    7.4503   -4.5897 C   0  0  2  0  0  0  0  0  0  0  0  0
   44.6048    8.2102   -5.8756 O   0  0  0  0  0  0  0  0  0  0  0  0
   47.2383    6.2439   -6.1816 C   0  0  2  0  0  0  0  0  0  0  0  0
   46.9239    5.8567   -7.5947 N   0  0  0  0  0  0  0  0  0  0  0  0
   46.4938   12.4309   -8.4508 C   0  0  0  0  0  0  0  0  0  0  0  0
   46.9267   13.7207   -8.8559 N   0  0  0  0  0  0  0  0  0  0  0  0
   40.3621    6.0328    1.8970 C   0  0  1  0  0  0  0  0  0  0  0  0
   39.3549    5.5890    2.7929 O   0  0  0  0  0  0  0  0  0  0  0  0
   41.4229    9.1911    0.4188 C   0  0  2  0  0  0  0  0  0  0  0  0
   40.8761    8.5438    1.5778 N   0  0  0  0  0  0  0  0  0  0  0  0
   44.2872    5.9285   -4.6136 C   0  0  2  0  0  0  0  0  0  0  0  0
   45.1534    5.1534   -5.4294 O   0  0  0  0  0  0  0  0  0  0  0  0
   48.7769    6.2426   -5.9333 C   0  0  1  0  0  0  0  0  0  0  0  0
   48.9668    6.6497   -4.5313 O   0  0  0  0  0  0  0  0  0  0  0  0
   48.1527   13.9462   -9.5444 C   0  0  0  0  0  0  0  0  0  0  0  0
   41.7893    5.6861    2.4119 C   0  0  2  0  0  0  0  0  0  0  0  0
   42.0529    6.3264    3.7232 O   0  0  0  0  0  0  0  0  0  0  0  0
   42.0667    8.1070   -0.5403 C   0  0  2  0  0  0  0  0  0  0  0  0
   42.7924    5.8056   -4.9938 C   0  0  1  0  0  0  0  0  0  0  0  0
   49.3824    4.7568   -6.2012 C   0  0  2  0  0  0  0  0  0  0  0  0
   49.1958    4.3431   -7.6006 O   0  0  0  0  0  0  0  0  0  0  0  0
   48.9983   12.8530   -9.8557 C   0  0  0  0  0  0  0  0  0  0  0  0
   42.8791    6.1783    1.3835 C   0  0  2  0  0  0  0  0  0  0  0  0
   42.5656    5.5220    0.1242 O   0  0  0  0  0  0  0  0  0  0  0  0
   42.6457    8.8582   -1.7891 C   0  0  2  0  0  0  0  0  0  0  0  0
   43.1792    7.8000   -2.5757 O   0  0  0  0  0  0  0  0  0  0  0  0
   42.0901    4.6773   -4.2402 C   0  0  0  0  0  0  0  0  0  0  0  0
   42.8195    3.4788   -4.1272 O   0  0  0  0  0  0  0  0  0  0  0  0
   48.6651    3.7082   -5.2324 C   0  0  1  0  0  0  0  0  0  0  0  0
   47.1710    3.7760   -5.4729 O   0  0  0  0  0  0  0  0  0  0  0  0
   48.5919   11.4864   -9.4537 C   0  0  0  0  0  0  0  0  0  0  0  0
   44.2008    5.8049    1.9123 C   0  0  0  0  0  0  0  0  0  0  0  0
   45.1053    6.7186    1.5385 O   0  0  0  0  0  0  0  0  0  0  0  0
   43.7557    9.9035   -1.3502 C   0  0  1  0  0  0  0  0  0  0  0  0
   44.2511   10.5676   -2.4661 O   0  0  0  0  0  0  0  0  0  0  0  0
   43.7083    8.1213   -7.0523 C   0  0  0  0  0  0  0  0  0  0  0  0
   49.2727    2.3125   -5.5397 C   0  0  0  0  0  0  0  0  0  0  0  0
   48.5841    1.2850   -4.7989 N   0  0  0  0  0  0  0  0  0  0  0  0
   44.4415    8.7704   -8.2307 C   0  0  0  0  0  0  0  0  0  0  0  0
   45.3391    9.8577   -7.7219 N   0  0  0  0  0  0  0  0  0  0  0  0
   46.7922    9.8389   -8.2680 C   0  0  0  0  0  0  0  0  0  0  0  0
  1  2  1  1  0  0  0
  1  9  1  0  0  0  0
  1 35  1  0  0  0  0
  3  4  1  1  0  0  0
  3 11  1  0  0  0  0
  3 45  1  0  0  0  0
  5  6  1  0  0  0  0
  5 12  1  0  0  0  0
  5 37  1  1  0  0  0
  6 30  1  0  0  0  0
  7 14  1  0  0  0  0
  7 41  1  0  0  0  0
  7 23  1  6  0  0  0
  8 16  2  0  0  0  0
  8 42  1  0  0  0  0
  9 10  1  6  0  0  0
  9 18  1  0  0  0  0
 11 20  1  0  0  0  0
 12 13  1  6  0  0  0
 12 22  1  0  0  0  0
 13 47  1  0  0  0  0
 14 15  1  6  0  0  0
 14 24  1  0  0  0  0
 16 17  1  0  0  0  0
 17 26  2  0  0  0  0
 18 19  1  1  0  0  0
 18 27  1  0  0  0  0
 20 21  1  1  0  0  0
 20 29  1  0  0  0  0
 22 23  1  6  0  0  0
 22 30  1  0  0  0  0
 24 25  1  1  0  0  0
 24 31  1  0  0  0  0
 26 33  1  0  0  0  0
 27 28  1  1  0  0  0
 27 34  1  0  0  0  0
 29  2  1  6  0  0  0
 29 36  1  0  0  0  0
 30 38  1  1  0  0  0
 31 32  1  6  0  0  0
 31 40  1  0  0  0  0
 33 42  2  0  0  0  0
 34 35  1  0  0  0  0
 34 43  1  1  0  0  0
 36 37  1  6  0  0  0
 36 45  1  0  0  0  0
 38 39  1  0  0  0  0
 40 41  1  0  0  0  0
 40 48  1  6  0  0  0
 43 44  1  0  0  0  0
 45 46  1  6  0  0  0
 47 50  1  0  0  0  0
 48 49  1  0  0  0  0
 50 51  1  0  0  0  0
 51 52  1  0  0  0  0
 52  8  1  0  0  0  0
M  END
>  <CHROM.1>
116.70662551,-105.49331337,-96.09907182,-62.52964118,-163.47599752,60.34977952
-119.32761767,-158.58791045,-147.82394429,147.72320469,-174.29849962,-30.80479197
132.04452455,134.08626493,8.20264814,44.52592430,7.36291337,-3.49409822,-2.66985831
0.90040809,-0.34954191

>  <Name>
2be0_lig

>  <RI>
224

>  <Rbt.Current_Directory>
/home/itssahil/PROJECTS/Mol_Feturizer/New_Systems/rnas/2be0

>  <Rbt.Executable>
rbdock ($Id: //depot/dev/client3/rdock/2013.1/src/exe/rbdock.cxx#4 $)

>  <Rbt.Library>
libRbt.so (2013.1, Build901 2013/11/27)

>  <Rbt.Parameter_File>
/export/apps/rDock/src/rDock_2013.1_src/data/scripts/dock_solv.prm

>  <Rbt.Receptor>
prm/blind_docking_100.prm

>  <SCORE>
6.07319

>  <SCORE.INTER>
-12.5227

>  <SCORE.INTER.CONST>
1

>  <SCORE.INTER.POLAR>
-2.455

>  <SCORE.INTER.ROT>
15

>  <SCORE.INTER.SOLV>
24.0923

>  <SCORE.INTER.VDW>
-21.7959

>  <SCORE.INTER.norm>
-0.240821

>  <SCORE.INTRA>
0.714827

>  <SCORE.INTRA.DIHEDRAL>
-6.79752

>  <SCORE.INTRA.DIHEDRAL.0>
47.8724

>  <SCORE.INTRA.POLAR>
0

>  <SCORE.INTRA.POLAR.0>
0

>  <SCORE.INTRA.REPUL>
0

>  <SCORE.INTRA.REPUL.0>
0

>  <SCORE.INTRA.SOLV>
3.64696

>  <SCORE.INTRA.SOLV.lig_0>
-115.677

>  <SCORE.INTRA.VDW>
2.29011

>  <SCORE.INTRA.VDW.0>
-7.4833

>  <SCORE.INTRA.norm>
0.0137467

>  <SCORE.RESTR>
17.8811

>  <SCORE.RESTR.CAVITY>
17.8811

>  <SCORE.RESTR.norm>
0.343867

>  <SCORE.SYSTEM>
0

>  <SCORE.SYSTEM.CONST>
0

>  <SCORE.SYSTEM.DIHEDRAL>
0

>  <SCORE.SYSTEM.SOLV>
0

>  <SCORE.SYSTEM.norm>
0

>  <SCORE.heavy>
52

>  <SCORE.norm>
0.116792

>  <RMSD>
10.503

$$$$
2be0_lig
 OpenBabel11021811423D
libRbt.so/2013.1/901 2013/11/27
 52 56  0  0  0  0  0  0  0  0999 V2000
   39.6240    7.0735    4.4461 C   0  0  2  0  0  0  0  0  0  0  0  0
   40.2808    6.4614    3.3613 O   0  0  0  0  0  0  0  0  0  0  0  0
   39.1614    2.6100    1.5490 C   0  0  2  0  0  0  0  0  0  0  0  0
   38.3825    1.6089    0.7675 N   0  0  0  0  0  0  0  0  0  0  0  0
   41.6659    5.6968   -0.4880 C   0  0  2  0  0  0  0  0  0  0  0  0
   42.9686    5.1391   -0.2192 O   0  0  0  0  0  0  0  0  0  0  0  0
   43.4021    9.8704   -1.2068 C   0  0  1  0  0  0  0  0  0  0  0  0
   44.0922    7.9262   -8.0304 C   0  0  0  0  0  0  0  0  0  0  0  0
   39.9512    8.6207    4.5153 C   0  0  2  0  0  0  0  0  0  0  0  0
   39.6390    9.2511    3.2309 N   0  0  0  0  0  0  0  0  0  0  0  0
   38.2160    3.2542    2.6624 C   0  0  0  0  0  0  0  0  0  0  0  0
   41.8954    7.0071   -1.2580 C   0  0  2  0  0  0  0  0  0  0  0  0
   42.0168    6.5601   -2.6803 O   0  0  0  0  0  0  0  0  0  0  0  0
   43.9819   10.6784    0.0787 C   0  0  2  0  0  0  0  0  0  0  0  0
   43.5264    9.9856    1.3270 N   0  0  0  0  0  0  0  0  0  0  0  0
   44.7763    9.1430   -8.3562 C   0  0  0  0  0  0  0  0  0  0  0  0
   44.5569    9.7573   -9.6170 N   0  0  0  0  0  0  0  0  0  0  0  0
   41.4818    8.8284    4.9273 C   0  0  1  0  0  0  0  0  0  0  0  0
   41.7563   10.2200    4.9763 O   0  0  0  0  0  0  0  0  0  0  0  0
   39.0304    4.3705    3.5345 C   0  0  2  0  0  0  0  0  0  0  0  0
   38.1913    4.9562    4.5415 N   0  0  0  0  0  0  0  0  0  0  0  0
   43.1418    7.5082   -0.5042 C   0  0  2  0  0  0  0  0  0  0  0  0
   43.9088    8.5257   -1.1308 O   0  0  0  0  0  0  0  0  0  0  0  0
   43.4298   12.1345    0.0171 C   0  0  1  0  0  0  0  0  0  0  0  0
   43.9494   12.7181   -1.2306 O   0  0  0  0  0  0  0  0  0  0  0  0
   43.6768    9.2193  -10.5989 C   0  0  0  0  0  0  0  0  0  0  0  0
   41.7219    8.1418    6.3032 C   0  0  2  0  0  0  0  0  0  0  0  0
   43.1311    8.2979    6.7380 O   0  0  0  0  0  0  0  0  0  0  0  0
   39.5796    5.5054    2.5754 C   0  0  2  0  0  0  0  0  0  0  0  0
   43.9349    6.2099   -0.2220 C   0  0  1  0  0  0  0  0  0  0  0  0
   41.8033   12.1135    0.0235 C   0  0  2  0  0  0  0  0  0  0  0  0
   41.2767   11.5310    1.2677 O   0  0  0  0  0  0  0  0  0  0  0  0
   42.9723    8.0193  -10.3330 C   0  0  0  0  0  0  0  0  0  0  0  0
   41.3904    6.6024    6.2143 C   0  0  2  0  0  0  0  0  0  0  0  0
   40.0045    6.5163    5.7821 O   0  0  0  0  0  0  0  0  0  0  0  0
   40.4902    4.8206    1.4980 C   0  0  2  0  0  0  0  0  0  0  0  0
   40.9316    5.9204    0.7113 O   0  0  0  0  0  0  0  0  0  0  0  0
   44.5952    6.2181    1.1556 C   0  0  0  0  0  0  0  0  0  0  0  0
   45.1213    7.4569    1.5678 O   0  0  0  0  0  0  0  0  0  0  0  0
   41.2780   11.2696   -1.2274 C   0  0  1  0  0  0  0  0  0  0  0  0
   41.8748    9.8792   -1.1536 O   0  0  0  0  0  0  0  0  0  0  0  0
   43.1674    7.3388   -9.0318 C   0  0  0  0  0  0  0  0  0  0  0  0
   41.6147    6.0143    7.5446 C   0  0  0  0  0  0  0  0  0  0  0  0
   42.9301    5.9348    7.7814 O   0  0  0  0  0  0  0  0  0  0  0  0
   39.6610    3.7662    0.6507 C   0  0  1  0  0  0  0  0  0  0  0  0
   40.4837    3.1611   -0.2919 O   0  0  0  0  0  0  0  0  0  0  0  0
   42.2259    7.3912   -3.8894 C   0  0  0  0  0  0  0  0  0  0  0  0
   39.7264   11.2749   -1.1628 C   0  0  0  0  0  0  0  0  0  0  0  0
   39.2298    9.9750   -0.7854 N   0  0  0  0  0  0  0  0  0  0  0  0
   43.7386    7.5089   -4.1022 C   0  0  0  0  0  0  0  0  0  0  0  0
   44.0068    8.1913   -5.4096 N   0  0  0  0  0  0  0  0  0  0  0  0
   44.3587    7.2539   -6.5961 C   0  0  0  0  0  0  0  0  0  0  0  0
  1  2  1  6  0  0  0
  1  9  1  0  0  0  0
  1 35  1  0  0  0  0
  3  4  1  6  0  0  0
  3 11  1  0  0  0  0
  3 45  1  0  0  0  0
  5  6  1  0  0  0  0
  5 12  1  0  0  0  0
  5 37  1  1  0  0  0
  6 30  1  0  0  0  0
  7 14  1  0  0  0  0
  7 41  1  0  0  0  0
  7 23  1  1  0  0  0
  8 16  2  0  0  0  0
  8 42  1  0  0  0  0
  9 10  1  6  0  0  0
  9 18  1  0  0  0  0
 11 20  1  0  0  0  0
 12 13  1  6  0  0  0
 12 22  1  0  0  0  0
 13 47  1  0  0  0  0
 14 15  1  1  0  0  0
 14 24  1  0  0  0  0
 16 17  1  0  0  0  0
 17 26  2  0  0  0  0
 18 19  1  1  0  0  0
 18 27  1  0  0  0  0
 20 21  1  1  0  0  0
 20 29  1  0  0  0  0
 22 23  1  6  0  0  0
 22 30  1  0  0  0  0
 24 25  1  6  0  0  0
 24 31  1  0  0  0  0
 26 33  1  0  0  0  0
 27 28  1  6  0  0  0
 27 34  1  0  0  0  0
 29  2  1  1  0  0  0
 29 36  1  0  0  0  0
 30 38  1  1  0  0  0
 31 32  1  1  0  0  0
 31 40  1  0  0  0  0
 33 42  2  0  0  0  0
 34 35  1  0  0  0  0
 34 43  1  1  0  0  0
 36 37  1  6  0  0  0
 36 45  1  0  0  0  0
 38 39  1  0  0  0  0
 40 41  1  0  0  0  0
 40 48  1  1  0  0  0
 43 44  1  0  0  0  0
 45 46  1  6  0  0  0
 47 50  1  0  0  0  0
 48 49  1  0  0  0  0
 50 51  1  0  0  0  0
 51 52  1  0  0  0  0
 52  8  1  0  0  0  0
M  END
>  <CHROM.1>
-138.17153448,-67.41086361,93.51099542,178.93876978,90.45776370,72.22408793
-55.24552772,-154.25025805,-73.09502865,-172.43638640,-108.30347907,172.79486138
-99.45639588,158.19345380,58.78045903,41.89217105,7.60641894,0.10476814,2.22048532
1.17105566,1.14848095

>  <Name>
2be0_lig

>  <RI>
0

>  <Rbt.Current_Directory>
/home/itssahil/PROJECTS/Mol_Feturizer/New_Systems/rnas/2be0

>  <Rbt.Executable>
rbdock ($Id: //depot/dev/client3/rdock/2013.1/src/exe/rbdock.cxx#4 $)

>  <Rbt.Library>
libRbt.so (2013.1, Build901 2013/11/27)

>  <Rbt.Parameter_File>
/export/apps/rDock/src/rDock_2013.1_src/data/scripts/dock_solv.prm

>  <Rbt.Receptor>
prm/blind_docking_80.prm

>  <SCORE>
16.6508

>  <SCORE.INTER>
-13.5756

>  <SCORE.INTER.CONST>
1

>  <SCORE.INTER.POLAR>
-0.304813

>  <SCORE.INTER.ROT>
15

>  <SCORE.INTER.SOLV>
24.124

>  <SCORE.INTER.VDW>
-29.6757

>  <SCORE.INTER.norm>
-0.261069

>  <SCORE.INTRA>
-3.76452

>  <SCORE.INTRA.DIHEDRAL>
-22.7774

>  <SCORE.INTRA.DIHEDRAL.0>
47.8724

>  <SCORE.INTRA.POLAR>
0

>  <SCORE.INTRA.POLAR.0>
0

>  <SCORE.INTRA.REPUL>
0.447101

>  <SCORE.INTRA.REPUL.0>
0

>  <SCORE.INTRA.SOLV>
3.58795

>  <SCORE.INTRA.SOLV.lig_0>
-115.677

>  <SCORE.INTRA.VDW>
3.59471

>  <SCORE.INTRA.VDW.0>
-7.4833

>  <SCORE.INTRA.norm>
-0.0723946

>  <SCORE.RESTR>
33.9909

>  <SCORE.RESTR.CAVITY>
33.9909

>  <SCORE.RESTR.norm>
0.653671

>  <SCORE.SYSTEM>
0

>  <SCORE.SYSTEM.CONST>
0

>  <SCORE.SYSTEM.DIHEDRAL>
0

>  <SCORE.SYSTEM.SOLV>
0

>  <SCORE.SYSTEM.norm>
0

>  <SCORE.heavy>
52

>  <SCORE.norm>
0.320207

>  <RMSD>
10.511

$$$$
2be0_lig
 OpenBabel11021811423D
libRbt.so/2013.1/901 2013/11/27
 52 56  0  0  0  0  0  0  0  0999 V2000
   41.1624    5.1689   -0.2562 C   0  0  2  0  0  0  0  0  0  0  0  0
   40.8608    6.4286   -0.8085 O   0  0  0  0  0  0  0  0  0  0  0  0
   42.6395   10.4467   -1.0579 C   0  0  2  0  0  0  0  0  0  0  0  0
   43.6231   11.5513   -0.8798 N   0  0  0  0  0  0  0  0  0  0  0  0
   42.9046    7.1326   -4.2176 C   0  0  2  0  0  0  0  0  0  0  0  0
   42.9505    5.8374   -4.8506 O   0  0  0  0  0  0  0  0  0  0  0  0
   47.1438    5.5691   -5.5007 C   0  0  1  0  0  0  0  0  0  0  0  0
   46.4999   11.3135   -9.2547 C   0  0  0  0  0  0  0  0  0  0  0  0
   40.0886    4.7460    0.8272 C   0  0  2  0  0  0  0  0  0  0  0  0
   38.7465    4.8061    0.2444 N   0  0  0  0  0  0  0  0  0  0  0  0
   42.2643    9.8453    0.3725 C   0  0  0  0  0  0  0  0  0  0  0  0
   44.2385    7.8278   -4.5340 C   0  0  2  0  0  0  0  0  0  0  0  0
   43.9981    8.4534   -5.8712 O   0  0  0  0  0  0  0  0  0  0  0  0
   48.5379    5.4198   -4.6788 C   0  0  2  0  0  0  0  0  0  0  0  0
   49.3485    6.6644   -4.8777 N   0  0  0  0  0  0  0  0  0  0  0  0
   46.8502   12.5247   -8.5728 C   0  0  0  0  0  0  0  0  0  0  0  0
   48.1367   13.0930   -8.7648 N   0  0  0  0  0  0  0  0  0  0  0  0
   40.2247    5.6850    2.1138 C   0  0  1  0  0  0  0  0  0  0  0  0
   39.2497    5.2949    3.0685 O   0  0  0  0  0  0  0  0  0  0  0  0
   41.1958    8.6186    0.2197 C   0  0  2  0  0  0  0  0  0  0  0  0
   40.8482    8.0701    1.5002 N   0  0  0  0  0  0  0  0  0  0  0  0
   45.1731    6.6090   -4.4161 C   0  0  2  0  0  0  0  0  0  0  0  0
   46.4673    6.7309   -4.9876 O   0  0  0  0  0  0  0  0  0  0  0  0
   49.2889    4.1719   -5.2337 C   0  0  1  0  0  0  0  0  0  0  0  0
   48.4147    3.0167   -4.9717 O   0  0  0  0  0  0  0  0  0  0  0  0
   49.1215   12.5132   -9.6145 C   0  0  0  0  0  0  0  0  0  0  0  0
   41.6704    5.5509    2.6742 C   0  0  2  0  0  0  0  0  0  0  0  0
   41.8594    6.4055    3.8713 O   0  0  0  0  0  0  0  0  0  0  0  0
   41.8107    7.4813   -0.6956 C   0  0  2  0  0  0  0  0  0  0  0  0
   44.3319    5.4545   -5.0108 C   0  0  1  0  0  0  0  0  0  0  0  0
   49.5645    4.3512   -6.8267 C   0  0  2  0  0  0  0  0  0  0  0  0
   50.4374    5.5044   -7.0962 O   0  0  0  0  0  0  0  0  0  0  0  0
   48.8321   11.3166  -10.3155 C   0  0  0  0  0  0  0  0  0  0  0  0
   42.7250    5.9759    1.5811 C   0  0  2  0  0  0  0  0  0  0  0  0
   42.4871    5.1090    0.4379 O   0  0  0  0  0  0  0  0  0  0  0  0
   42.1705    8.1248   -2.0796 C   0  0  2  0  0  0  0  0  0  0  0  0
   42.6949    7.0248   -2.8134 O   0  0  0  0  0  0  0  0  0  0  0  0
   44.5221    4.1431   -4.2504 C   0  0  0  0  0  0  0  0  0  0  0  0
   44.6467    4.2654   -2.8538 O   0  0  0  0  0  0  0  0  0  0  0  0
   48.1731    4.5431   -7.5883 C   0  0  1  0  0  0  0  0  0  0  0  0
   47.4569    5.7350   -6.9874 O   0  0  0  0  0  0  0  0  0  0  0  0
   47.5035   10.6833  -10.1484 C   0  0  0  0  0  0  0  0  0  0  0  0
   44.0679    5.8080    2.1594 C   0  0  0  0  0  0  0  0  0  0  0  0
   44.9508    6.5248    1.4527 O   0  0  0  0  0  0  0  0  0  0  0  0
   43.2317    9.2902   -1.8976 C   0  0  1  0  0  0  0  0  0  0  0  0
   43.5321    9.8566   -3.1306 O   0  0  0  0  0  0  0  0  0  0  0  0
   43.5211    7.8053   -7.1157 C   0  0  0  0  0  0  0  0  0  0  0  0
   48.4983    4.7198   -9.0964 C   0  0  0  0  0  0  0  0  0  0  0  0
   47.3937    4.2750   -9.9092 N   0  0  0  0  0  0  0  0  0  0  0  0
   44.4110    8.3070   -8.2576 C   0  0  0  0  0  0  0  0  0  0  0  0
   44.9992    9.6344   -7.8854 N   0  0  0  0  0  0  0  0  0  0  0  0
   45.0367   10.6937   -9.0197 C   0  0  0  0  0  0  0  0  0  0  0  0
  1  2  1  1  0  0  0
  1  9  1  0  0  0  0
  1 35  1  0  0  0  0
  3  4  1  1  0  0  0
  3 11  1  0  0  0  0
  3 45  1  0  0  0  0
  5  6  1  0  0  0  0
  5 12  1  0  0  0  0
  5 37  1  1  0  0  0
  6 30  1  0  0  0  0
  7 14  1  0  0  0  0
  7 41  1  0  0  0  0
  7 23  1  1  0  0  0
  8 16  2  0  0  0  0
  8 42  1  0  0  0  0
  9 10  1  6  0  0  0
  9 18  1  0  0  0  0
 11 20  1  0  0  0  0
 12 13  1  6  0  0  0
 12 22  1  0  0  0  0
 13 47  1  0  0  0  0
 14 15  1  6  0  0  0
 14 24  1  0  0  0  0
 16 17  1  0  0  0  0
 17 26  2  0  0  0  0
 18 19  1  1  0  0  0
 18 27  1  0  0  0  0
 20 21  1  1  0  0  0
 20 29  1  0  0  0  0
 22 23  1  6  0  0  0
 22 30  1  0  0  0  0
 24 25  1  6  0  0  0
 24 31  1  0  0  0  0
 26 33  1  0  0  0  0
 27 28  1  1  0  0  0
 27 34  1  0  0  0  0
 29  2  1  6  0  0  0
 29 36  1  0  0  0  0
 30 38  1  1  0  0  0
 31 32  1  1  0  0  0
 31 40  1  0  0  0  0
 33 42  2  0  0  0  0
 34 35  1  0  0  0  0
 34 43  1  1  0  0  0
 36 37  1  6  0  0  0
 36 45  1  0  0  0  0
 38 39  1  0  0  0  0
 40 41  1  0  0  0  0
 40 48  1  6  0  0  0
 43 44  1  0  0  0  0
 45 46  1  6  0  0  0
 47 50  1  0  0  0  0
 48 49  1  0  0  0  0
 50 51  1  0  0  0  0
 51 52  1  0  0  0  0
 52  8  1  0  0  0  0
M  END
>  <CHROM.1>
121.05673129,-158.43161749,-120.66351306,-53.96315775,-134.61614311,-150.21969469
-114.53806403,-78.37337758,-161.04163795,167.88010646,152.75143786,-24.36848654
-138.63044650,-126.49256109,-93.33544344,44.60410747,7.17711245,-3.70581289
-2.55599783,0.84844163,-0.52919425

>  <Name>
2be0_lig

>  <RI>
224

>  <Rbt.Current_Directory>
/home/itssahil/PROJECTS/Mol_Feturizer/New_Systems/rnas/2be0

>  <Rbt.Executable>
rbdock ($Id: //depot/dev/client3/rdock/2013.1/src/exe/rbdock.cxx#4 $)

>  <Rbt.Library>
libRbt.so (2013.1, Build901 2013/11/27)

>  <Rbt.Parameter_File>
/export/apps/rDock/src/rDock_2013.1_src/data/scripts/dock_solv.prm

>  <Rbt.Receptor>
prm/blind_docking_100.prm

>  <SCORE>
13.7429

>  <SCORE.INTER>
-4.58218

>  <SCORE.INTER.CONST>
1

>  <SCORE.INTER.POLAR>
-1.34808

>  <SCORE.INTER.ROT>
15

>  <SCORE.INTER.SOLV>
32.7787

>  <SCORE.INTER.VDW>
-23.0874

>  <SCORE.INTER.norm>
-0.0881188

>  <SCORE.INTRA>
7.15589

>  <SCORE.INTRA.DIHEDRAL>
-2.37061

>  <SCORE.INTRA.DIHEDRAL.0>
47.8724

>  <SCORE.INTRA.POLAR>
0

>  <SCORE.INTRA.POLAR.0>
0

>  <SCORE.INTRA.REPUL>
0.218216

>  <SCORE.INTRA.REPUL.0>
0

>  <SCORE.INTRA.SOLV>
2.57347

>  <SCORE.INTRA.SOLV.lig_0>
-115.677

>  <SCORE.INTRA.VDW>
5.96338

>  <SCORE.INTRA.VDW.0>
-7.4833

>  <SCORE.INTRA.norm>
0.137613

>  <SCORE.RESTR>
11.1692

>  <SCORE.RESTR.CAVITY>
11.1692

>  <SCORE.RESTR.norm>
0.214792

>  <SCORE.SYSTEM>
0

>  <SCORE.SYSTEM.CONST>
0

>  <SCORE.SYSTEM.DIHEDRAL>
0

>  <SCORE.SYSTEM.SOLV>
0

>  <SCORE.SYSTEM.norm>
0

>  <SCORE.heavy>
52

>  <SCORE.norm>
0.264286

>  <RMSD>
10.525

$$$$
2be0_lig
 OpenBabel11021811423D
libRbt.so/2013.1/901 2013/11/27
 52 56  0  0  0  0  0  0  0  0999 V2000
   42.2064    5.7056    1.3217 C   0  0  2  0  0  0  0  0  0  0  0  0
   41.8259    6.7567    0.4655 O   0  0  0  0  0  0  0  0  0  0  0  0
   42.8687   10.9971   -0.0845 C   0  0  2  0  0  0  0  0  0  0  0  0
   43.6589   12.2589   -0.0288 N   0  0  0  0  0  0  0  0  0  0  0  0
   43.9695    7.8180   -2.9687 C   0  0  2  0  0  0  0  0  0  0  0  0
   43.1243    8.6664   -3.7727 O   0  0  0  0  0  0  0  0  0  0  0  0
   43.0887    5.9102   -6.7894 C   0  0  1  0  0  0  0  0  0  0  0  0
   46.6930    9.9370   -9.5118 C   0  0  0  0  0  0  0  0  0  0  0  0
   41.0668    4.6121    1.4284 C   0  0  2  0  0  0  0  0  0  0  0  0
   40.6962    4.1503    0.0890 N   0  0  0  0  0  0  0  0  0  0  0  0
   42.7036   10.4182    1.3940 C   0  0  0  0  0  0  0  0  0  0  0  0
   44.1945    6.5274   -3.7726 C   0  0  2  0  0  0  0  0  0  0  0  0
   45.3494    6.8658   -4.6609 O   0  0  0  0  0  0  0  0  0  0  0  0
   41.8371    5.7107   -7.8068 C   0  0  2  0  0  0  0  0  0  0  0  0
   41.4290    4.2689   -7.7895 N   0  0  0  0  0  0  0  0  0  0  0  0
   47.6911   10.5720  -10.3213 C   0  0  0  0  0  0  0  0  0  0  0  0
   47.4321   11.8493  -10.8839 N   0  0  0  0  0  0  0  0  0  0  0  0
   39.8160    5.2150    2.2208 C   0  0  1  0  0  0  0  0  0  0  0  0
   38.8041    4.2230    2.2987 O   0  0  0  0  0  0  0  0  0  0  0  0
   41.8527    9.0234    1.3751 C   0  0  2  0  0  0  0  0  0  0  0  0
   41.6951    8.4932    2.7000 N   0  0  0  0  0  0  0  0  0  0  0  0
   42.7847    6.3759   -4.3744 C   0  0  2  0  0  0  0  0  0  0  0  0
   42.6475    5.4990   -5.4829 O   0  0  0  0  0  0  0  0  0  0  0  0
   42.3049    6.1398   -9.2303 C   0  0  1  0  0  0  0  0  0  0  0  0
   42.6625    7.5645   -9.1328 O   0  0  0  0  0  0  0  0  0  0  0  0
   46.2081   12.5499  -10.6861 C   0  0  0  0  0  0  0  0  0  0  0  0
   40.2942    5.6669    3.6312 C   0  0  2  0  0  0  0  0  0  0  0  0
   39.1739    6.2409    4.4151 O   0  0  0  0  0  0  0  0  0  0  0  0
   42.5873    7.9582    0.4611 C   0  0  2  0  0  0  0  0  0  0  0  0
   42.3652    7.8347   -4.6741 C   0  0  1  0  0  0  0  0  0  0  0  0
   43.5819    5.2432   -9.6900 C   0  0  2  0  0  0  0  0  0  0  0  0
   43.2319    3.8177   -9.7892 O   0  0  0  0  0  0  0  0  0  0  0  0
   45.1849   11.9726   -9.8944 C   0  0  0  0  0  0  0  0  0  0  0  0
   41.4289    6.7550    3.5041 C   0  0  2  0  0  0  0  0  0  0  0  0
   42.4908    6.1363    2.7266 O   0  0  0  0  0  0  0  0  0  0  0  0
   42.7334    8.5785   -0.9717 C   0  0  2  0  0  0  0  0  0  0  0  0
   43.3853    7.5446   -1.6993 O   0  0  0  0  0  0  0  0  0  0  0  0
   40.8881    8.0889   -4.3780 C   0  0  0  0  0  0  0  0  0  0  0  0
   40.5574    8.2215   -3.0163 O   0  0  0  0  0  0  0  0  0  0  0  0
   44.7694    5.4313   -8.6377 C   0  0  1  0  0  0  0  0  0  0  0  0
   44.2588    5.0490   -7.2637 O   0  0  0  0  0  0  0  0  0  0  0  0
   45.4057   10.6404   -9.2855 C   0  0  0  0  0  0  0  0  0  0  0  0
   41.8537    7.1257    4.8635 C   0  0  0  0  0  0  0  0  0  0  0  0
   42.8391    6.3109    5.2608 O   0  0  0  0  0  0  0  0  0  0  0  0
   43.5896    9.9133   -0.9206 C   0  0  1  0  0  0  0  0  0  0  0  0
   43.7011   10.4558   -2.1953 O   0  0  0  0  0  0  0  0  0  0  0  0
   45.3222    7.4903   -6.0046 C   0  0  0  0  0  0  0  0  0  0  0  0
   45.9515    4.5473   -9.1201 C   0  0  0  0  0  0  0  0  0  0  0  0
   47.0817    4.6845   -8.2354 N   0  0  0  0  0  0  0  0  0  0  0  0
   46.6984    7.2625   -6.6382 C   0  0  0  0  0  0  0  0  0  0  0  0
   47.1378    8.5122   -7.3395 N   0  0  0  0  0  0  0  0  0  0  0  0
   47.0139    8.4924   -8.8869 C   0  0  0  0  0  0  0  0  0  0  0  0
  1  2  1  6  0  0  0
  1  9  1  0  0  0  0
  1 35  1  0  0  0  0
  3  4  1  1  0  0  0
  3 11  1  0  0  0  0
  3 45  1  0  0  0  0
  5  6  1  0  0  0  0
  5 12  1  0  0  0  0
  5 37  1  1  0  0  0
  6 30  1  0  0  0  0
  7 14  1  0  0  0  0
  7 41  1  0  0  0  0
  7 23  1  1  0  0  0
  8 16  2  0  0  0  0
  8 42  1  0  0  0  0
  9 10  1  6  0  0  0
  9 18  1  0  0  0  0
 11 20  1  0  0  0  0
 12 13  1  6  0  0  0
 12 22  1  0  0  0  0
 13 47  1  0  0  0  0
 14 15  1  6  0  0  0
 14 24  1  0  0  0  0
 16 17  1  0  0  0  0
 17 26  2  0  0  0  0
 18 19  1  1  0  0  0
 18 27  1  0  0  0  0
 20 21  1  1  0  0  0
 20 29  1  0  0  0  0
 22 23  1  6  0  0  0
 22 30  1  0  0  0  0
 24 25  1  1  0  0  0
 24 31  1  0  0  0  0
 26 33  1  0  0  0  0
 27 28  1  1  0  0  0
 27 34  1  0  0  0  0
 29  2  1  6  0  0  0
 29 36  1  0  0  0  0
 30 38  1  1  0  0  0
 31 32  1  1  0  0  0
 31 40  1  0  0  0  0
 33 42  2  0  0  0  0
 34 35  1  0  0  0  0
 34 43  1  1  0  0  0
 36 37  1  6  0  0  0
 36 45  1  0  0  0  0
 38 39  1  0  0  0  0
 40 41  1  0  0  0  0
 40 48  1  6  0  0  0
 43 44  1  0  0  0  0
 45 46  1  6  0  0  0
 47 50  1  0  0  0  0
 48 49  1  0  0  0  0
 50 51  1  0  0  0  0
 51 52  1  0  0  0  0
 52  8  1  0  0  0  0
M  END
>  <CHROM.1>
166.85915432,-41.88095704,-126.37120434,-87.96327229,-164.41631207,-76.30708826
-98.42890191,-40.05788022,88.93297847,-165.92382473,178.70015295,-138.22162687
-103.50169549,148.03893057,112.86783626,43.27362178,7.41866799,-3.54003866
2.32048843,1.07688941,0.98400520

>  <Name>
2be0_lig

>  <RI>
0

>  <Rbt.Current_Directory>
/home/itssahil/PROJECTS/Mol_Feturizer/New_Systems/rnas/2be0

>  <Rbt.Executable>
rbdock ($Id: //depot/dev/client3/rdock/2013.1/src/exe/rbdock.cxx#4 $)

>  <Rbt.Library>
libRbt.so (2013.1, Build901 2013/11/27)

>  <Rbt.Parameter_File>
/export/apps/rDock/src/rDock_2013.1_src/data/scripts/dock_solv.prm

>  <Rbt.Receptor>
prm/blind_docking_80.prm

>  <SCORE>
42.3802

>  <SCORE.INTER>
-2.26076

>  <SCORE.INTER.CONST>
1

>  <SCORE.INTER.POLAR>
-1.19525

>  <SCORE.INTER.ROT>
15

>  <SCORE.INTER.SOLV>
23.711

>  <SCORE.INTER.VDW>
-19.0267

>  <SCORE.INTER.norm>
-0.0434761

>  <SCORE.INTRA>
14.9667

>  <SCORE.INTRA.DIHEDRAL>
-16.2904

>  <SCORE.INTRA.DIHEDRAL.0>
47.8724

>  <SCORE.INTRA.POLAR>
0

>  <SCORE.INTRA.POLAR.0>
0

>  <SCORE.INTRA.REPUL>
0.163185

>  <SCORE.INTRA.REPUL.0>
0

>  <SCORE.INTRA.SOLV>
5.8764

>  <SCORE.INTRA.SOLV.lig_0>
-115.677

>  <SCORE.INTRA.VDW>
19.3577

>  <SCORE.INTRA.VDW.0>
-7.4833

>  <SCORE.INTRA.norm>
0.28782

>  <SCORE.RESTR>
29.6743

>  <SCORE.RESTR.CAVITY>
29.6743

>  <SCORE.RESTR.norm>
0.570659

>  <SCORE.SYSTEM>
0

>  <SCORE.SYSTEM.CONST>
0

>  <SCORE.SYSTEM.DIHEDRAL>
0

>  <SCORE.SYSTEM.SOLV>
0

>  <SCORE.SYSTEM.norm>
0

>  <SCORE.heavy>
52

>  <SCORE.norm>
0.815003

>  <RMSD>
10.539

$$$$
2be0_lig
 OpenBabel11021811423D
libRbt.so/2013.1/901 2013/11/27
 52 56  0  0  0  0  0  0  0  0999 V2000
   42.8890    6.0540    0.6564 C   0  0  2  0  0  0  0  0  0  0  0  0
   42.1163    6.6762   -0.3429 O   0  0  0  0  0  0  0  0  0  0  0  0
   41.2052   10.9001   -1.1794 C   0  0  2  0  0  0  0  0  0  0  0  0
   41.4212   12.3577   -1.3990 N   0  0  0  0  0  0  0  0  0  0  0  0
   42.4486    8.0372   -4.2968 C   0  0  2  0  0  0  0  0  0  0  0  0
   41.3690    7.4209   -5.0281 O   0  0  0  0  0  0  0  0  0  0  0  0
   45.5328    5.1175   -5.9169 C   0  0  1  0  0  0  0  0  0  0  0  0
   46.1294   11.1798  -10.1020 C   0  0  0  0  0  0  0  0  0  0  0  0
   42.7225    4.4804    0.6132 C   0  0  2  0  0  0  0  0  0  0  0  0
   43.0258    3.9868   -0.7318 N   0  0  0  0  0  0  0  0  0  0  0  0
   41.7894   10.4946    0.2498 C   0  0  0  0  0  0  0  0  0  0  0  0
   43.7549    7.5737   -4.9612 C   0  0  2  0  0  0  0  0  0  0  0  0
   43.9389    8.5439   -6.0847 O   0  0  0  0  0  0  0  0  0  0  0  0
   46.2145    6.4826   -5.3572 C   0  0  2  0  0  0  0  0  0  0  0  0
   46.0911    7.5461   -6.4058 N   0  0  0  0  0  0  0  0  0  0  0  0
   47.4454   10.8528  -10.5669 C   0  0  0  0  0  0  0  0  0  0  0  0
   48.5629   11.5847  -10.0867 N   0  0  0  0  0  0  0  0  0  0  0  0
   41.2449    4.0835    1.0770 C   0  0  1  0  0  0  0  0  0  0  0  0
   41.1141    2.6713    1.0239 O   0  0  0  0  0  0  0  0  0  0  0  0
   41.5846    8.8969    0.5240 C   0  0  2  0  0  0  0  0  0  0  0  0
   42.1042    8.5196    1.8082 N   0  0  0  0  0  0  0  0  0  0  0  0
   43.3603    6.1162   -5.2654 C   0  0  2  0  0  0  0  0  0  0  0  0
   44.1561    5.4163   -6.2106 O   0  0  0  0  0  0  0  0  0  0  0  0
   47.7112    6.1774   -5.0473 C   0  0  1  0  0  0  0  0  0  0  0  0
   47.7108    5.1404   -4.0024 O   0  0  0  0  0  0  0  0  0  0  0  0
   48.4469   12.6505   -9.1493 C   0  0  0  0  0  0  0  0  0  0  0  0
   41.0125    4.6333    2.5143 C   0  0  2  0  0  0  0  0  0  0  0  0
   39.6517    4.2984    2.9993 O   0  0  0  0  0  0  0  0  0  0  0  0
   42.3100    8.0601   -0.6087 C   0  0  2  0  0  0  0  0  0  0  0  0
   41.8684    6.2248   -5.6610 C   0  0  1  0  0  0  0  0  0  0  0  0
   48.4628    5.6563   -6.3925 C   0  0  2  0  0  0  0  0  0  0  0  0
   48.4667    6.6877   -7.4416 O   0  0  0  0  0  0  0  0  0  0  0  0
   47.1718   13.0181   -8.6534 C   0  0  0  0  0  0  0  0  0  0  0  0
   41.1831    6.2011    2.5370 C   0  0  2  0  0  0  0  0  0  0  0  0
   42.5279    6.4639    2.0499 O   0  0  0  0  0  0  0  0  0  0  0  0
   41.7093    8.5027   -1.9879 C   0  0  2  0  0  0  0  0  0  0  0  0
   42.4153    7.6888   -2.9166 O   0  0  0  0  0  0  0  0  0  0  0  0
   41.0377    5.0585   -5.1282 C   0  0  0  0  0  0  0  0  0  0  0  0
   41.4126    3.7847   -5.5952 O   0  0  0  0  0  0  0  0  0  0  0  0
   47.7315    4.3433   -6.9348 C   0  0  1  0  0  0  0  0  0  0  0  0
   46.2727    4.6713   -7.1775 O   0  0  0  0  0  0  0  0  0  0  0  0
   45.9735   12.2855   -9.1243 C   0  0  0  0  0  0  0  0  0  0  0  0
   40.9739    6.6584    3.9202 C   0  0  0  0  0  0  0  0  0  0  0  0
   39.6620    6.6895    4.1862 O   0  0  0  0  0  0  0  0  0  0  0  0
   41.9525   10.0511   -2.2349 C   0  0  1  0  0  0  0  0  0  0  0  0
   41.4058   10.4295   -3.4553 O   0  0  0  0  0  0  0  0  0  0  0  0
   43.7474    8.3148   -7.5363 C   0  0  0  0  0  0  0  0  0  0  0  0
   48.4823    3.9001   -8.2199 C   0  0  0  0  0  0  0  0  0  0  0  0
   48.4467    4.9441   -9.2137 N   0  0  0  0  0  0  0  0  0  0  0  0
   44.4958    9.4300   -8.2737 C   0  0  0  0  0  0  0  0  0  0  0  0
   44.4959    9.1425   -9.7448 N   0  0  0  0  0  0  0  0  0  0  0  0
   44.8836   10.3340  -10.6614 C   0  0  0  0  0  0  0  0  0  0  0  0
  1  2  1  6  0  0  0
  1  9  1  0  0  0  0
  1 35  1  0  0  0  0
  3  4  1  6  0  0  0
  3 11  1  0  0  0  0
  3 45  1  0  0  0  0
  5  6  1  0  0  0  0
  5 12  1  0  0  0  0
  5 37  1  1  0  0  0
  6 30  1  0  0  0  0
  7 14  1  0  0  0  0
  7 41  1  0  0  0  0
  7 23  1  6  0  0  0
  8 16  2  0  0  0  0
  8 42  1  0  0  0  0
  9 10  1  6  0  0  0
  9 18  1  0  0  0  0
 11 20  1  0  0  0  0
 12 13  1  6  0  0  0
 12 22  1  0  0  0  0
 13 47  1  0  0  0  0
 14 15  1  6  0  0  0
 14 24  1  0  0  0  0
 16 17  1  0  0  0  0
 17 26  2  0  0  0  0
 18 19  1  1  0  0  0
 18 27  1  0  0  0  0
 20 21  1  1  0  0  0
 20 29  1  0  0  0  0
 22 23  1  6  0  0  0
 22 30  1  0  0  0  0
 24 25  1  1  0  0  0
 24 31  1  0  0  0  0
 26 33  1  0  0  0  0
 27 28  1  6  0  0  0
 27 34  1  0  0  0  0
 29  2  1  1  0  0  0
 29 36  1  0  0  0  0
 30 38  1  1  0  0  0
 31 32  1  6  0  0  0
 31 40  1  0  0  0  0
 33 42  2  0  0  0  0
 34 35  1  0  0  0  0
 34 43  1  1  0  0  0
 36 37  1  6  0  0  0
 36 45  1  0  0  0  0
 38 39  1  0  0  0  0
 40 41  1  0  0  0  0
 40 48  1  6  0  0  0
 43 44  1  0  0  0  0
 45 46  1  6  0  0  0
 47 50  1  0  0  0  0
 48 49  1  0  0  0  0
 50 51  1  0  0  0  0
 51 52  1  0  0  0  0
 52  8  1  0  0  0  0
M  END
>  <CHROM.1>
-169.35724645,-91.25286910,-47.52016480,-106.39053288,-161.34599267,65.67600653
-77.59098155,-177.63762804,-78.27484885,-161.95758210,-59.55364486,172.21718945
164.87960305,42.43686577,94.10610293,43.83611620,7.36630232,-3.88477506,-2.56199722
0.97553220,-0.42467451

>  <Name>
2be0_lig

>  <RI>
224

>  <Rbt.Current_Directory>
/home/itssahil/PROJECTS/Mol_Feturizer/New_Systems/rnas/2be0

>  <Rbt.Executable>
rbdock ($Id: //depot/dev/client3/rdock/2013.1/src/exe/rbdock.cxx#4 $)

>  <Rbt.Library>
libRbt.so (2013.1, Build901 2013/11/27)

>  <Rbt.Parameter_File>
/export/apps/rDock/src/rDock_2013.1_src/data/scripts/dock_solv.prm

>  <Rbt.Receptor>
prm/blind_docking_100.prm

>  <SCORE>
23.1955

>  <SCORE.INTER>
0.675247

>  <SCORE.INTER.CONST>
1

>  <SCORE.INTER.POLAR>
-1.17598

>  <SCORE.INTER.ROT>
15

>  <SCORE.INTER.SOLV>
26.5374

>  <SCORE.INTER.VDW>
-18.0757

>  <SCORE.INTER.norm>
0.0129855

>  <SCORE.INTRA>
5.60786

>  <SCORE.INTRA.DIHEDRAL>
-29.5086

>  <SCORE.INTRA.DIHEDRAL.0>
47.8724

>  <SCORE.INTRA.POLAR>
0

>  <SCORE.INTRA.POLAR.0>
0

>  <SCORE.INTRA.REPUL>
0

>  <SCORE.INTRA.REPUL.0>
0

>  <SCORE.INTRA.SOLV>
6.51532

>  <SCORE.INTRA.SOLV.lig_0>
-115.677

>  <SCORE.INTRA.VDW>
17.1045

>  <SCORE.INTRA.VDW.0>
-7.4833

>  <SCORE.INTRA.norm>
0.107844

>  <SCORE.RESTR>
16.9124

>  <SCORE.RESTR.CAVITY>
16.9124

>  <SCORE.RESTR.norm>
0.325238

>  <SCORE.SYSTEM>
0

>  <SCORE.SYSTEM.CONST>
0

>  <SCORE.SYSTEM.DIHEDRAL>
0

>  <SCORE.SYSTEM.SOLV>
0

>  <SCORE.SYSTEM.norm>
0

>  <SCORE.heavy>
52

>  <SCORE.norm>
0.446067

>  <RMSD>
10.581

$$$$
2be0_lig
 OpenBabel11021811423D
libRbt.so/2013.1/901 2013/11/27
 52 56  0  0  0  0  0  0  0  0999 V2000
   42.5408   -1.4072   -3.9382 C   0  0  2  0  0  0  0  0  0  0  0  0
   41.6739   -0.3164   -3.7346 O   0  0  0  0  0  0  0  0  0  0  0  0
   40.9858    2.8714   -0.7790 C   0  0  2  0  0  0  0  0  0  0  0  0
   41.1260    3.6703    0.4706 N   0  0  0  0  0  0  0  0  0  0  0  0
   43.8823    3.0631   -4.2899 C   0  0  2  0  0  0  0  0  0  0  0  0
   44.2047    2.8139   -5.6735 O   0  0  0  0  0  0  0  0  0  0  0  0
   48.5104    2.2051   -5.0453 C   0  0  1  0  0  0  0  0  0  0  0  0
   45.1076    8.2438   -8.7745 C   0  0  0  0  0  0  0  0  0  0  0  0
   42.2548   -2.1157   -5.3245 C   0  0  2  0  0  0  0  0  0  0  0  0
   42.3149   -1.1305   -6.4063 N   0  0  0  0  0  0  0  0  0  0  0  0
   40.6326    1.3621   -0.3974 C   0  0  0  0  0  0  0  0  0  0  0  0
   45.1805    3.5245   -3.6086 C   0  0  2  0  0  0  0  0  0  0  0  0
   45.2161    4.9944   -3.8833 O   0  0  0  0  0  0  0  0  0  0  0  0
   48.4712    0.6560   -4.5553 C   0  0  2  0  0  0  0  0  0  0  0  0
   48.8017    0.6058   -3.0945 N   0  0  0  0  0  0  0  0  0  0  0  0
   45.8147    9.2204   -9.5497 C   0  0  0  0  0  0  0  0  0  0  0  0
   45.2216    9.7480  -10.7265 N   0  0  0  0  0  0  0  0  0  0  0  0
   40.8391   -2.8561   -5.2677 C   0  0  1  0  0  0  0  0  0  0  0  0
   40.5987   -3.4776   -6.5207 O   0  0  0  0  0  0  0  0  0  0  0  0
   40.4839    0.4470   -1.7429 C   0  0  2  0  0  0  0  0  0  0  0  0
   40.1639   -0.9132   -1.4133 N   0  0  0  0  0  0  0  0  0  0  0  0
   46.1696    2.5874   -4.3273 C   0  0  2  0  0  0  0  0  0  0  0  0
   47.5466    2.9272   -4.2579 O   0  0  0  0  0  0  0  0  0  0  0  0
   49.5211   -0.1367   -5.3911 C   0  0  1  0  0  0  0  0  0  0  0  0
   49.0907   -0.0335   -6.7951 O   0  0  0  0  0  0  0  0  0  0  0  0
   43.9354    9.3510  -11.1914 C   0  0  0  0  0  0  0  0  0  0  0  0
   40.8669   -3.8895   -4.1042 C   0  0  2  0  0  0  0  0  0  0  0  0
   39.5741   -4.6081   -3.9987 O   0  0  0  0  0  0  0  0  0  0  0  0
   41.8327    0.4888   -2.5728 C   0  0  2  0  0  0  0  0  0  0  0  0
   45.6133    2.5187   -5.7696 C   0  0  1  0  0  0  0  0  0  0  0  0
   51.0002    0.5068   -5.1809 C   0  0  2  0  0  0  0  0  0  0  0  0
   51.4369    0.4076   -3.7795 O   0  0  0  0  0  0  0  0  0  0  0  0
   43.1888    8.3901  -10.4660 C   0  0  0  0  0  0  0  0  0  0  0  0
   41.1534   -3.1652   -2.7328 C   0  0  2  0  0  0  0  0  0  0  0  0
   42.4250   -2.4797   -2.9007 O   0  0  0  0  0  0  0  0  0  0  0  0
   42.1385    1.9890   -2.9115 C   0  0  2  0  0  0  0  0  0  0  0  0
   43.3466    1.9052   -3.6577 O   0  0  0  0  0  0  0  0  0  0  0  0
   45.7356    1.1216   -6.3755 C   0  0  0  0  0  0  0  0  0  0  0  0
   45.1677    0.0807   -5.6171 O   0  0  0  0  0  0  0  0  0  0  0  0
   50.9808    2.0404   -5.6286 C   0  0  1  0  0  0  0  0  0  0  0  0
   49.9170    2.7616   -4.8269 O   0  0  0  0  0  0  0  0  0  0  0  0
   43.7641    7.8084   -9.2312 C   0  0  0  0  0  0  0  0  0  0  0  0
   41.1891   -4.1915   -1.6785 C   0  0  0  0  0  0  0  0  0  0  0  0
   41.4021   -3.6063   -0.4932 O   0  0  0  0  0  0  0  0  0  0  0  0
   42.3067    2.8410   -1.5837 C   0  0  1  0  0  0  0  0  0  0  0  0
   42.5668    4.1690   -1.9005 O   0  0  0  0  0  0  0  0  0  0  0  0
   45.0578    5.6899   -5.1823 C   0  0  0  0  0  0  0  0  0  0  0  0
   52.4098    2.6023   -5.3961 C   0  0  0  0  0  0  0  0  0  0  0  0
   52.6539    2.8015   -3.9892 N   0  0  0  0  0  0  0  0  0  0  0  0
   45.3836    7.1685   -4.9474 C   0  0  0  0  0  0  0  0  0  0  0  0
   44.9925    7.9636   -6.1563 N   0  0  0  0  0  0  0  0  0  0  0  0
   45.8024    7.6652   -7.4467 C   0  0  0  0  0  0  0  0  0  0  0  0
  1  2  1  1  0  0  0
  1  9  1  0  0  0  0
  1 35  1  0  0  0  0
  3  4  1  1  0  0  0
  3 11  1  0  0  0  0
  3 45  1  0  0  0  0
  5  6  1  0  0  0  0
  5 12  1  0  0  0  0
  5 37  1  1  0  0  0
  6 30  1  0  0  0  0
  7 14  1  0  0  0  0
  7 41  1  0  0  0  0
  7 23  1  1  0  0  0
  8 16  2  0  0  0  0
  8 42  1  0  0  0  0
  9 10  1  6  0  0  0
  9 18  1  0  0  0  0
 11 20  1  0  0  0  0
 12 13  1  6  0  0  0
 12 22  1  0  0  0  0
 13 47  1  0  0  0  0
 14 15  1  1  0  0  0
 14 24  1  0  0  0  0
 16 17  1  0  0  0  0
 17 26  2  0  0  0  0
 18 19  1  6  0  0  0
 18 27  1  0  0  0  0
 20 21  1  1  0  0  0
 20 29  1  0  0  0  0
 22 23  1  6  0  0  0
 22 30  1  0  0  0  0
 24 25  1  6  0  0  0
 24 31  1  0  0  0  0
 26 33  1  0  0  0  0
 27 28  1  1  0  0  0
 27 34  1  0  0  0  0
 29  2  1  6  0  0  0
 29 36  1  0  0  0  0
 30 38  1  1  0  0  0
 31 32  1  1  0  0  0
 31 40  1  0  0  0  0
 33 42  2  0  0  0  0
 34 35  1  0  0  0  0
 34 43  1  1  0  0  0
 36 37  1  1  0  0  0
 36 45  1  0  0  0  0
 38 39  1  0  0  0  0
 40 41  1  0  0  0  0
 40 48  1  1  0  0  0
 43 44  1  0  0  0  0
 45 46  1  6  0  0  0
 47 50  1  0  0  0  0
 48 49  1  0  0  0  0
 50 51  1  0  0  0  0
 51 52  1  0  0  0  0
 52  8  1  0  0  0  0
M  END
>  <CHROM.1>
-176.54277350,-130.10898815,-62.10797414,-50.77166983,-171.72069062,-171.84625632
-120.84733215,-62.09118271,-178.66986759,172.75064812,-74.01341156,-169.37508892
-65.99809305,164.94924784,118.72322029,44.66131633,1.93764063,-4.66474627
-2.12572055,0.10048584,-0.44131675

>  <Name>
2be0_lig

>  <RI>
2.75444e+07

>  <Rbt.Current_Directory>
/home/itssahil/PROJECTS/Mol_Feturizer/New_Systems/rnas/2be0

>  <Rbt.Executable>
rbdock ($Id: //depot/dev/client3/rdock/2013.1/src/exe/rbdock.cxx#4 $)

>  <Rbt.Library>
libRbt.so (2013.1, Build901 2013/11/27)

>  <Rbt.Parameter_File>
/export/apps/rDock/src/rDock_2013.1_src/data/scripts/dock_solv.prm

>  <Rbt.Receptor>
prm/pocket_docking_5.prm

>  <SCORE>
-27.2076

>  <SCORE.INTER>
-15.7005

>  <SCORE.INTER.CONST>
1

>  <SCORE.INTER.POLAR>
-2.20999

>  <SCORE.INTER.ROT>
15

>  <SCORE.INTER.SOLV>
18.2972

>  <SCORE.INTER.VDW>
-22.7994

>  <SCORE.INTER.norm>
-0.301932

>  <SCORE.INTRA>
-11.556

>  <SCORE.INTRA.DIHEDRAL>
-30.0923

>  <SCORE.INTRA.DIHEDRAL.0>
47.8724

>  <SCORE.INTRA.POLAR>
0

>  <SCORE.INTRA.POLAR.0>
0

>  <SCORE.INTRA.REPUL>
0

>  <SCORE.INTRA.REPUL.0>
0

>  <SCORE.INTRA.SOLV>
3.28543

>  <SCORE.INTRA.SOLV.lig_0>
-115.677

>  <SCORE.INTRA.VDW>
1.84742

>  <SCORE.INTRA.VDW.0>
-7.4833

>  <SCORE.INTRA.norm>
-0.222231

>  <SCORE.RESTR>
0.0489106

>  <SCORE.RESTR.CAVITY>
0.0489106

>  <SCORE.RESTR.norm>
0.000940589

>  <SCORE.SYSTEM>
0

>  <SCORE.SYSTEM.CONST>
0

>  <SCORE.SYSTEM.DIHEDRAL>
0

>  <SCORE.SYSTEM.SOLV>
0

>  <SCORE.SYSTEM.norm>
0

>  <SCORE.heavy>
52

>  <SCORE.norm>
-0.523223

>  <RMSD>
10.631

$$$$
2be0_lig
 OpenBabel11021811423D
libRbt.so/2013.1/901 2013/11/27
 52 56  0  0  0  0  0  0  0  0999 V2000
   42.3016    7.7665   -2.4946 C   0  0  2  0  0  0  0  0  0  0  0  0
   43.3529    7.7297   -3.4308 O   0  0  0  0  0  0  0  0  0  0  0  0
   44.8037    4.0553   -5.3711 C   0  0  2  0  0  0  0  0  0  0  0  0
   44.8434    2.8860   -6.2934 N   0  0  0  0  0  0  0  0  0  0  0  0
   44.3631    7.9320   -7.2064 C   0  0  2  0  0  0  0  0  0  0  0  0
   45.3424    7.3038   -8.0590 O   0  0  0  0  0  0  0  0  0  0  0  0
   46.9264   10.6883   -9.9111 C   0  0  1  0  0  0  0  0  0  0  0  0
   43.6097   11.8850  -13.1064 C   0  0  0  0  0  0  0  0  0  0  0  0
   41.9112    9.2565   -2.1295 C   0  0  2  0  0  0  0  0  0  0  0  0
   41.6116   10.0042   -3.3525 N   0  0  0  0  0  0  0  0  0  0  0  0
   43.4472    4.0122   -4.5307 C   0  0  0  0  0  0  0  0  0  0  0  0
   44.2235    9.3849   -7.6881 C   0  0  2  0  0  0  0  0  0  0  0  0
   43.2237    9.2911   -8.7967 O   0  0  0  0  0  0  0  0  0  0  0  0
   48.3873   11.0649   -9.3065 C   0  0  2  0  0  0  0  0  0  0  0  0
   48.3334   12.4558   -8.7515 N   0  0  0  0  0  0  0  0  0  0  0  0
   42.8334   10.7559  -13.5273 C   0  0  0  0  0  0  0  0  0  0  0  0
   42.3127   10.7132  -14.8472 N   0  0  0  0  0  0  0  0  0  0  0  0
   43.0926    9.9313   -1.2900 C   0  0  1  0  0  0  0  0  0  0  0  0
   42.7265   11.2669   -0.9796 O   0  0  0  0  0  0  0  0  0  0  0  0
   43.3579    5.2887   -3.5145 C   0  0  2  0  0  0  0  0  0  0  0  0
   42.1427    5.2604   -2.7506 N   0  0  0  0  0  0  0  0  0  0  0  0
   45.7022    9.6686   -8.0129 C   0  0  2  0  0  0  0  0  0  0  0  0
   45.9778   10.7938   -8.8343 O   0  0  0  0  0  0  0  0  0  0  0  0
   49.4242   10.9681  -10.4661 C   0  0  1  0  0  0  0  0  0  0  0  0
   49.4038    9.5674  -10.9190 O   0  0  0  0  0  0  0  0  0  0  0  0
   42.5214   11.7535  -15.7971 C   0  0  0  0  0  0  0  0  0  0  0  0
   43.3352    9.0840   -0.0072 C   0  0  2  0  0  0  0  0  0  0  0  0
   44.4273    9.6608    0.8137 O   0  0  0  0  0  0  0  0  0  0  0  0
   43.4347    6.6387   -4.3398 C   0  0  2  0  0  0  0  0  0  0  0  0
   46.2032    8.3273   -8.5995 C   0  0  1  0  0  0  0  0  0  0  0  0
   49.0094   11.9811  -11.6693 C   0  0  2  0  0  0  0  0  0  0  0  0
   49.0272   13.3830  -11.2237 O   0  0  0  0  0  0  0  0  0  0  0  0
   43.2816   12.8939  -15.4385 C   0  0  0  0  0  0  0  0  0  0  0  0
   43.7222    7.6041   -0.3913 C   0  0  2  0  0  0  0  0  0  0  0  0
   42.6200    7.0982   -1.1939 O   0  0  0  0  0  0  0  0  0  0  0  0
   44.7756    6.6257   -5.1527 C   0  0  2  0  0  0  0  0  0  0  0  0
   44.7439    7.8730   -5.8356 O   0  0  0  0  0  0  0  0  0  0  0  0
   47.6264    7.9926   -8.1561 C   0  0  0  0  0  0  0  0  0  0  0  0
   47.7355    6.9836   -7.1808 O   0  0  0  0  0  0  0  0  0  0  0  0
   47.5498   11.6061  -12.2000 C   0  0  1  0  0  0  0  0  0  0  0  0
   46.5844   11.6667  -11.0342 O   0  0  0  0  0  0  0  0  0  0  0  0
   43.8464   12.9868  -14.0723 C   0  0  0  0  0  0  0  0  0  0  0  0
   43.9172    6.8495    0.8571 C   0  0  0  0  0  0  0  0  0  0  0  0
   43.7347    5.5440    0.6225 O   0  0  0  0  0  0  0  0  0  0  0  0
   44.8153    5.3921   -6.1498 C   0  0  1  0  0  0  0  0  0  0  0  0
   46.0130    5.3888   -6.8547 O   0  0  0  0  0  0  0  0  0  0  0  0
   43.3040    8.4886  -10.0401 C   0  0  0  0  0  0  0  0  0  0  0  0
   47.2047   12.6088  -13.3345 C   0  0  0  0  0  0  0  0  0  0  0  0
   47.1893   13.9595  -12.8305 N   0  0  0  0  0  0  0  0  0  0  0  0
   43.4184    9.4732  -11.2083 C   0  0  0  0  0  0  0  0  0  0  0  0
   43.5002   10.8719  -10.6757 N   0  0  0  0  0  0  0  0  0  0  0  0
   44.1876   11.9058  -11.6077 C   0  0  0  0  0  0  0  0  0  0  0  0
  1  2  1  6  0  0  0
  1  9  1  0  0  0  0
  1 35  1  0  0  0  0
  3  4  1  6  0  0  0
  3 11  1  0  0  0  0
  3 45  1  0  0  0  0
  5  6  1  0  0  0  0
  5 12  1  0  0  0  0
  5 37  1  1  0  0  0
  6 30  1  0  0  0  0
  7 14  1  0  0  0  0
  7 41  1  0  0  0  0
  7 23  1  1  0  0  0
  8 16  2  0  0  0  0
  8 42  1  0  0  0  0
  9 10  1  6  0  0  0
  9 18  1  0  0  0  0
 11 20  1  0  0  0  0
 12 13  1  6  0  0  0
 12 22  1  0  0  0  0
 13 47  1  0  0  0  0
 14 15  1  6  0  0  0
 14 24  1  0  0  0  0
 16 17  1  0  0  0  0
 17 26  2  0  0  0  0
 18 19  1  1  0  0  0
 18 27  1  0  0  0  0
 20 21  1  6  0  0  0
 20 29  1  0  0  0  0
 22 23  1  6  0  0  0
 22 30  1  0  0  0  0
 24 25  1  6  0  0  0
 24 31  1  0  0  0  0
 26 33  1  0  0  0  0
 27 28  1  6  0  0  0
 27 34  1  0  0  0  0
 29  2  1  1  0  0  0
 29 36  1  0  0  0  0
 30 38  1  1  0  0  0
 31 32  1  1  0  0  0
 31 40  1  0  0  0  0
 33 42  2  0  0  0  0
 34 35  1  0  0  0  0
 34 43  1  1  0  0  0
 36 37  1  6  0  0  0
 36 45  1  0  0  0  0
 38 39  1  0  0  0  0
 40 41  1  0  0  0  0
 40 48  1  6  0  0  0
 43 44  1  0  0  0  0
 45 46  1  1  0  0  0
 47 50  1  0  0  0  0
 48 49  1  0  0  0  0
 50 51  1  0  0  0  0
 51 52  1  0  0  0  0
 52  8  1  0  0  0  0
M  END
>  <CHROM.1>
-150.31204936,-68.06768545,-89.54788611,-58.50872666,-112.89471169,-135.45320367
-51.49307376,-10.99150177,156.33060048,-100.80762221,-61.28881141,3.74461362
155.68964105,50.03797312,-16.07136844,44.85917373,9.10493550,-7.38853653
1.92540028,0.97446503,1.67873742

>  <Name>
2be0_lig

>  <RI>
0

>  <Rbt.Current_Directory>
/home/itssahil/PROJECTS/Mol_Feturizer/New_Systems/rnas/2be0

>  <Rbt.Executable>
rbdock ($Id: //depot/dev/client3/rdock/2013.1/src/exe/rbdock.cxx#4 $)

>  <Rbt.Library>
libRbt.so (2013.1, Build901 2013/11/27)

>  <Rbt.Parameter_File>
/export/apps/rDock/src/rDock_2013.1_src/data/scripts/dock_solv.prm

>  <Rbt.Receptor>
prm/blind_docking_80.prm

>  <SCORE>
63.1487

>  <SCORE.INTER>
5.29694

>  <SCORE.INTER.CONST>
1

>  <SCORE.INTER.POLAR>
-0.981904

>  <SCORE.INTER.ROT>
15

>  <SCORE.INTER.SOLV>
26.0466

>  <SCORE.INTER.VDW>
-15.4779

>  <SCORE.INTER.norm>
0.101864

>  <SCORE.INTRA>
15.8517

>  <SCORE.INTRA.DIHEDRAL>
-7.81049

>  <SCORE.INTRA.DIHEDRAL.0>
47.8724

>  <SCORE.INTRA.POLAR>
0

>  <SCORE.INTRA.POLAR.0>
0

>  <SCORE.INTRA.REPUL>
0.0221957

>  <SCORE.INTRA.REPUL.0>
0

>  <SCORE.INTRA.SOLV>
6.84237

>  <SCORE.INTRA.SOLV.lig_0>
-115.677

>  <SCORE.INTRA.VDW>
16.2248

>  <SCORE.INTRA.VDW.0>
-7.4833

>  <SCORE.INTRA.norm>
0.30484

>  <SCORE.RESTR>
42

>  <SCORE.RESTR.CAVITY>
42

>  <SCORE.RESTR.norm>
0.807693

>  <SCORE.SYSTEM>
0

>  <SCORE.SYSTEM.CONST>
0

>  <SCORE.SYSTEM.DIHEDRAL>
0

>  <SCORE.SYSTEM.SOLV>
0

>  <SCORE.SYSTEM.norm>
0

>  <SCORE.heavy>
52

>  <SCORE.norm>
1.2144

>  <RMSD>
10.633

$$$$
2be0_lig
 OpenBabel11021811423D
libRbt.so/2013.1/901 2013/11/27
 52 56  0  0  0  0  0  0  0  0999 V2000
   39.7128   -2.7221   -5.3009 C   0  0  2  0  0  0  0  0  0  0  0  0
   40.1358   -1.3803   -5.3602 O   0  0  0  0  0  0  0  0  0  0  0  0
   39.2011   -0.1454   -1.2405 C   0  0  2  0  0  0  0  0  0  0  0  0
   39.1127    0.7143   -0.0270 N   0  0  0  0  0  0  0  0  0  0  0  0
   38.0242    1.4398   -5.1934 C   0  0  2  0  0  0  0  0  0  0  0  0
   37.0677    1.8678   -6.1845 O   0  0  0  0  0  0  0  0  0  0  0  0
   40.6574    2.9393   -8.1880 C   0  0  1  0  0  0  0  0  0  0  0  0
   41.6597    8.1026   -2.4115 C   0  0  0  0  0  0  0  0  0  0  0  0
   40.1295   -3.5128   -6.6074 C   0  0  2  0  0  0  0  0  0  0  0  0
   41.5708   -3.3789   -6.8291 N   0  0  0  0  0  0  0  0  0  0  0  0
   40.7268   -0.2470   -1.6990 C   0  0  0  0  0  0  0  0  0  0  0  0
   39.4193    1.6621   -5.7990 C   0  0  2  0  0  0  0  0  0  0  0  0
   39.7113    3.0956   -5.4872 O   0  0  0  0  0  0  0  0  0  0  0  0
   41.0432    3.3583   -9.7102 C   0  0  2  0  0  0  0  0  0  0  0  0
   41.9834    2.3328  -10.2671 N   0  0  0  0  0  0  0  0  0  0  0  0
   42.8364    7.2970   -2.2662 C   0  0  0  0  0  0  0  0  0  0  0  0
   43.9869    7.8399   -1.6363 N   0  0  0  0  0  0  0  0  0  0  0  0
   39.2805   -2.9789   -7.8524 C   0  0  1  0  0  0  0  0  0  0  0  0
   39.6740   -3.6942   -9.0132 O   0  0  0  0  0  0  0  0  0  0  0  0
   40.8657   -1.1721   -3.0387 C   0  0  2  0  0  0  0  0  0  0  0  0
   42.2344   -1.2733   -3.4604 N   0  0  0  0  0  0  0  0  0  0  0  0
   39.1163    1.2407   -7.2494 C   0  0  2  0  0  0  0  0  0  0  0  0
   40.0491    1.6365   -8.2442 O   0  0  0  0  0  0  0  0  0  0  0  0
   41.7162    4.7633   -9.6635 C   0  0  1  0  0  0  0  0  0  0  0  0
   40.7049    5.6850   -9.1202 O   0  0  0  0  0  0  0  0  0  0  0  0
   44.0391    9.1703   -1.1310 C   0  0  0  0  0  0  0  0  0  0  0  0
   37.7681   -3.1699   -7.5390 C   0  0  2  0  0  0  0  0  0  0  0  0
   36.9264   -2.6870   -8.6604 O   0  0  0  0  0  0  0  0  0  0  0  0
   39.9938   -0.5565   -4.2094 C   0  0  2  0  0  0  0  0  0  0  0  0
   37.6839    1.7760   -7.4855 C   0  0  1  0  0  0  0  0  0  0  0  0
   43.0377    4.7159   -8.7163 C   0  0  2  0  0  0  0  0  0  0  0  0
   44.0529    3.7963   -9.2530 O   0  0  0  0  0  0  0  0  0  0  0  0
   42.9061   10.0131   -1.2450 C   0  0  0  0  0  0  0  0  0  0  0  0
   37.3727   -2.3758   -6.2349 C   0  0  2  0  0  0  0  0  0  0  0  0
   38.2305   -2.8892   -5.1787 O   0  0  0  0  0  0  0  0  0  0  0  0
   38.5116   -0.4687   -3.7052 C   0  0  2  0  0  0  0  0  0  0  0  0
   37.8278    0.0781   -4.8263 O   0  0  0  0  0  0  0  0  0  0  0  0
   36.8325    0.8164   -8.3152 C   0  0  0  0  0  0  0  0  0  0  0  0
   35.4779    1.1731   -8.4529 O   0  0  0  0  0  0  0  0  0  0  0  0
   42.6204    4.2536   -7.2449 C   0  0  1  0  0  0  0  0  0  0  0  0
   41.9296    2.9090   -7.3417 O   0  0  0  0  0  0  0  0  0  0  0  0
   41.6806    9.4940   -1.8953 C   0  0  0  0  0  0  0  0  0  0  0  0
   35.9427   -2.6112   -5.9786 C   0  0  0  0  0  0  0  0  0  0  0  0
   35.7468   -3.9057   -5.6984 O   0  0  0  0  0  0  0  0  0  0  0  0
   38.4090    0.4605   -2.4232 C   0  0  1  0  0  0  0  0  0  0  0  0
   37.0921    0.5196   -1.9830 O   0  0  0  0  0  0  0  0  0  0  0  0
   39.8691    3.7325   -4.1583 C   0  0  0  0  0  0  0  0  0  0  0  0
   43.9180    4.2162   -6.3926 C   0  0  0  0  0  0  0  0  0  0  0  0
   43.6434    3.7056   -5.0725 N   0  0  0  0  0  0  0  0  0  0  0  0
   40.0595    5.2341   -4.3953 C   0  0  0  0  0  0  0  0  0  0  0  0
   40.3659    5.9098   -3.0929 N   0  0  0  0  0  0  0  0  0  0  0  0
   40.3721    7.4619   -3.1271 C   0  0  0  0  0  0  0  0  0  0  0  0
  1  2  1  6  0  0  0
  1  9  1  0  0  0  0
  1 35  1  0  0  0  0
  3  4  1  1  0  0  0
  3 11  1  0  0  0  0
  3 45  1  0  0  0  0
  5  6  1  0  0  0  0
  5 12  1  0  0  0  0
  5 37  1  6  0  0  0
  6 30  1  0  0  0  0
  7 14  1  0  0  0  0
  7 41  1  0  0  0  0
  7 23  1  6  0  0  0
  8 16  2  0  0  0  0
  8 42  1  0  0  0  0
  9 10  1  6  0  0  0
  9 18  1  0  0  0  0
 11 20  1  0  0  0  0
 12 13  1  6  0  0  0
 12 22  1  0  0  0  0
 13 47  1  0  0  0  0
 14 15  1  1  0  0  0
 14 24  1  0  0  0  0
 16 17  1  0  0  0  0
 17 26  2  0  0  0  0
 18 19  1  6  0  0  0
 18 27  1  0  0  0  0
 20 21  1  6  0  0  0
 20 29  1  0  0  0  0
 22 23  1  6  0  0  0
 22 30  1  0  0  0  0
 24 25  1  1  0  0  0
 24 31  1  0  0  0  0
 26 33  1  0  0  0  0
 27 28  1  6  0  0  0
 27 34  1  0  0  0  0
 29  2  1  6  0  0  0
 29 36  1  0  0  0  0
 30 38  1  6  0  0  0
 31 32  1  6  0  0  0
 31 40  1  0  0  0  0
 33 42  2  0  0  0  0
 34 35  1  0  0  0  0
 34 43  1  1  0  0  0
 36 37  1  6  0  0  0
 36 45  1  0  0  0  0
 38 39  1  0  0  0  0
 40 41  1  0  0  0  0
 40 48  1  1  0  0  0
 43 44  1  0  0  0  0
 45 46  1  1  0  0  0
 47 50  1  0  0  0  0
 48 49  1  0  0  0  0
 50 51  1  0  0  0  0
 51 52  1  0  0  0  0
 52  8  1  0  0  0  0
M  END
>  <CHROM.1>
-172.47304586,-169.16566796,-152.86263291,63.60568726,-176.07249166,-39.30992057
61.79184098,57.44859901,64.98559197,-71.15000377,-175.50525444,-174.18442081
-171.02224522,-132.57248298,22.01389238,40.00150268,1.73800714,-5.55272349
2.60758456,-1.08888308,-1.86394522

>  <Name>
2be0_lig

>  <RI>
3.37048e+07

>  <Rbt.Current_Directory>
/home/itssahil/PROJECTS/Mol_Feturizer/New_Systems/rnas/2be0

>  <Rbt.Executable>
rbdock ($Id: //depot/dev/client3/rdock/2013.1/src/exe/rbdock.cxx#4 $)

>  <Rbt.Library>
libRbt.so (2013.1, Build901 2013/11/27)

>  <Rbt.Parameter_File>
/export/apps/rDock/src/rDock_2013.1_src/data/scripts/dock_solv.prm

>  <Rbt.Receptor>
prm/pocket_docking_8.prm

>  <SCORE>
-21.253

>  <SCORE.INTER>
-2.91484

>  <SCORE.INTER.CONST>
1

>  <SCORE.INTER.POLAR>
-0.755639

>  <SCORE.INTER.ROT>
15

>  <SCORE.INTER.SOLV>
7.51563

>  <SCORE.INTER.VDW>
-15.5296

>  <SCORE.INTER.norm>
-0.0560547

>  <SCORE.INTRA>
-18.3381

>  <SCORE.INTRA.DIHEDRAL>
-38.6646

>  <SCORE.INTRA.DIHEDRAL.0>
47.8724

>  <SCORE.INTRA.POLAR>
0

>  <SCORE.INTRA.POLAR.0>
0

>  <SCORE.INTRA.REPUL>
0

>  <SCORE.INTRA.REPUL.0>
0

>  <SCORE.INTRA.SOLV>
-1.55686

>  <SCORE.INTRA.SOLV.lig_0>
-115.677

>  <SCORE.INTRA.VDW>
1.7726

>  <SCORE.INTRA.VDW.0>
-7.4833

>  <SCORE.INTRA.norm>
-0.352657

>  <SCORE.RESTR>
0

>  <SCORE.RESTR.CAVITY>
0

>  <SCORE.RESTR.norm>
0

>  <SCORE.SYSTEM>
0

>  <SCORE.SYSTEM.CONST>
0

>  <SCORE.SYSTEM.DIHEDRAL>
0

>  <SCORE.SYSTEM.SOLV>
0

>  <SCORE.SYSTEM.norm>
0

>  <SCORE.heavy>
52

>  <SCORE.norm>
-0.408711

>  <RMSD>
10.737

$$$$
2be0_lig
 OpenBabel11021811423D
libRbt.so/2013.1/901 2013/11/27
 52 56  0  0  0  0  0  0  0  0999 V2000
   40.5050    0.7628   -3.7541 C   0  0  2  0  0  0  0  0  0  0  0  0
   39.8447    0.7664   -2.5104 O   0  0  0  0  0  0  0  0  0  0  0  0
   39.0563    4.0983    0.2551 C   0  0  2  0  0  0  0  0  0  0  0  0
   39.3132    5.1791    1.2478 N   0  0  0  0  0  0  0  0  0  0  0  0
   39.7976    4.4036   -4.2609 C   0  0  2  0  0  0  0  0  0  0  0  0
   38.5829    4.0356   -4.9460 O   0  0  0  0  0  0  0  0  0  0  0  0
   40.6752    2.5665   -8.5933 C   0  0  1  0  0  0  0  0  0  0  0  0
   43.3953    9.2397   -1.0089 C   0  0  0  0  0  0  0  0  0  0  0  0
   40.1892   -0.5583   -4.5669 C   0  0  2  0  0  0  0  0  0  0  0  0
   38.7401   -0.7295   -4.6905 N   0  0  0  0  0  0  0  0  0  0  0  0
   39.6065    2.7159    0.8335 C   0  0  0  0  0  0  0  0  0  0  0  0
   40.8602    4.6487   -5.3441 C   0  0  2  0  0  0  0  0  0  0  0  0
   40.6323    6.0727   -5.7414 O   0  0  0  0  0  0  0  0  0  0  0  0
   41.3175    1.1819   -8.0350 C   0  0  2  0  0  0  0  0  0  0  0  0
   42.7961    1.3676   -7.8771 N   0  0  0  0  0  0  0  0  0  0  0  0
   42.5568    8.9046    0.1044 C   0  0  0  0  0  0  0  0  0  0  0  0
   42.4838    9.7811    1.2187 N   0  0  0  0  0  0  0  0  0  0  0  0
   40.8803   -1.8087   -3.8496 C   0  0  1  0  0  0  0  0  0  0  0  0
   40.5792   -2.9823   -4.5886 O   0  0  0  0  0  0  0  0  0  0  0  0
   39.3563    1.5042   -0.2338 C   0  0  2  0  0  0  0  0  0  0  0  0
   39.8450    0.2541    0.2757 N   0  0  0  0  0  0  0  0  0  0  0  0
   40.4765    3.5133   -6.3117 C   0  0  2  0  0  0  0  0  0  0  0  0
   40.9817    3.5964   -7.6363 O   0  0  0  0  0  0  0  0  0  0  0  0
   41.0049    0.0586   -9.0692 C   0  0  1  0  0  0  0  0  0  0  0  0
   39.5378   -0.0465   -9.1302 O   0  0  0  0  0  0  0  0  0  0  0  0
   43.2148   11.0009    1.2948 C   0  0  0  0  0  0  0  0  0  0  0  0
   42.4131   -1.5503   -3.7720 C   0  0  2  0  0  0  0  0  0  0  0  0
   43.1110   -2.6789   -3.1100 O   0  0  0  0  0  0  0  0  0  0  0  0
   40.0782    1.8375   -1.6039 C   0  0  2  0  0  0  0  0  0  0  0  0
   38.9317    3.4818   -6.2314 C   0  0  1  0  0  0  0  0  0  0  0  0
   41.6272    0.4495  -10.5204 C   0  0  2  0  0  0  0  0  0  0  0  0
   43.0935    0.5566  -10.4669 O   0  0  0  0  0  0  0  0  0  0  0  0
   44.0591   11.3852    0.2241 C   0  0  0  0  0  0  0  0  0  0  0  0
   42.7073   -0.2308   -2.9596 C   0  0  2  0  0  0  0  0  0  0  0  0
   41.9967    0.8321   -3.6526 O   0  0  0  0  0  0  0  0  0  0  0  0
   39.5116    3.2049   -2.1218 C   0  0  2  0  0  0  0  0  0  0  0  0
   40.2116    3.3945   -3.3455 O   0  0  0  0  0  0  0  0  0  0  0  0
   38.3749    2.0596   -6.2699 C   0  0  0  0  0  0  0  0  0  0  0  0
   36.9930    1.9566   -6.5169 O   0  0  0  0  0  0  0  0  0  0  0  0
   41.0060    1.8385  -11.0080 C   0  0  1  0  0  0  0  0  0  0  0  0
   41.2914    2.8887   -9.9543 O   0  0  0  0  0  0  0  0  0  0  0  0
   44.1706   10.5044   -0.9616 C   0  0  0  0  0  0  0  0  0  0  0  0
   44.1649   -0.0284   -2.9389 C   0  0  0  0  0  0  0  0  0  0  0  0
   44.4551    1.0502   -2.2006 O   0  0  0  0  0  0  0  0  0  0  0  0
   39.7986    4.3633   -1.0761 C   0  0  1  0  0  0  0  0  0  0  0  0
   39.2818    5.5654   -1.5444 O   0  0  0  0  0  0  0  0  0  0  0  0
   40.7432    7.2891   -4.9022 C   0  0  0  0  0  0  0  0  0  0  0  0
   41.6423    2.1645  -12.3865 C   0  0  0  0  0  0  0  0  0  0  0  0
   41.3517    1.1217  -13.3388 N   0  0  0  0  0  0  0  0  0  0  0  0
   42.1297    7.2654   -4.2507 C   0  0  0  0  0  0  0  0  0  0  0  0
   42.1651    8.2454   -3.1171 N   0  0  0  0  0  0  0  0  0  0  0  0
   43.4572    8.2300   -2.2568 C   0  0  0  0  0  0  0  0  0  0  0  0
  1  2  1  1  0  0  0
  1  9  1  0  0  0  0
  1 35  1  0  0  0  0
  3  4  1  1  0  0  0
  3 11  1  0  0  0  0
  3 45  1  0  0  0  0
  5  6  1  0  0  0  0
  5 12  1  0  0  0  0
  5 37  1  1  0  0  0
  6 30  1  0  0  0  0
  7 14  1  0  0  0  0
  7 41  1  0  0  0  0
  7 23  1  1  0  0  0
  8 16  2  0  0  0  0
  8 42  1  0  0  0  0
  9 10  1  1  0  0  0
  9 18  1  0  0  0  0
 11 20  1  0  0  0  0
 12 13  1  6  0  0  0
 12 22  1  0  0  0  0
 13 47  1  0  0  0  0
 14 15  1  6  0  0  0
 14 24  1  0  0  0  0
 16 17  1  0  0  0  0
 17 26  2  0  0  0  0
 18 19  1  6  0  0  0
 18 27  1  0  0  0  0
 20 21  1  1  0  0  0
 20 29  1  0  0  0  0
 22 23  1  6  0  0  0
 22 30  1  0  0  0  0
 24 25  1  6  0  0  0
 24 31  1  0  0  0  0
 26 33  1  0  0  0  0
 27 28  1  1  0  0  0
 27 34  1  0  0  0  0
 29  2  1  6  0  0  0
 29 36  1  0  0  0  0
 30 38  1  1  0  0  0
 31 32  1  1  0  0  0
 31 40  1  0  0  0  0
 33 42  2  0  0  0  0
 34 35  1  0  0  0  0
 34 43  1  6  0  0  0
 36 37  1  6  0  0  0
 36 45  1  0  0  0  0
 38 39  1  0  0  0  0
 40 41  1  0  0  0  0
 40 48  1  6  0  0  0
 43 44  1  0  0  0  0
 45 46  1  6  0  0  0
 47 50  1  0  0  0  0
 48 49  1  0  0  0  0
 50 51  1  0  0  0  0
 51 52  1  0  0  0  0
 52  8  1  0  0  0  0
M  END
>  <CHROM.1>
176.01689923,-73.62573477,-62.66033778,61.75696385,53.22619963,179.45580804
-173.28691217,78.07146104,-177.01726064,167.88129952,59.62788066,-164.54875811
173.67842128,-176.55996877,72.56299026,41.04000615,3.09506474,-4.42799957
2.08504048,-1.39412955,-1.80311198

>  <Name>
2be0_lig

>  <RI>
0

>  <Rbt.Current_Directory>
/home/itssahil/PROJECTS/Mol_Feturizer/New_Systems/rnas/2be0

>  <Rbt.Executable>
rbdock ($Id: //depot/dev/client3/rdock/2013.1/src/exe/rbdock.cxx#4 $)

>  <Rbt.Library>
libRbt.so (2013.1, Build901 2013/11/27)

>  <Rbt.Parameter_File>
/export/apps/rDock/src/rDock_2013.1_src/data/scripts/dock_solv.prm

>  <Rbt.Receptor>
prm/pocket_docking_7.prm

>  <SCORE>
-26.0925

>  <SCORE.INTER>
-4.87045

>  <SCORE.INTER.CONST>
1

>  <SCORE.INTER.POLAR>
0

>  <SCORE.INTER.ROT>
15

>  <SCORE.INTER.SOLV>
10.0051

>  <SCORE.INTER.VDW>
-20.182

>  <SCORE.INTER.norm>
-0.0936624

>  <SCORE.INTRA>
-21.2221

>  <SCORE.INTRA.DIHEDRAL>
-42.4877

>  <SCORE.INTRA.DIHEDRAL.0>
47.8724

>  <SCORE.INTRA.POLAR>
0

>  <SCORE.INTRA.POLAR.0>
0

>  <SCORE.INTRA.REPUL>
0

>  <SCORE.INTRA.REPUL.0>
0

>  <SCORE.INTRA.SOLV>
-2.52069

>  <SCORE.INTRA.SOLV.lig_0>
-115.677

>  <SCORE.INTRA.VDW>
1.28213

>  <SCORE.INTRA.VDW.0>
-7.4833

>  <SCORE.INTRA.norm>
-0.408117

>  <SCORE.RESTR>
0

>  <SCORE.RESTR.CAVITY>
0

>  <SCORE.RESTR.norm>
0

>  <SCORE.SYSTEM>
0

>  <SCORE.SYSTEM.CONST>
0

>  <SCORE.SYSTEM.DIHEDRAL>
0

>  <SCORE.SYSTEM.SOLV>
0

>  <SCORE.SYSTEM.norm>
0

>  <SCORE.heavy>
52

>  <SCORE.norm>
-0.501779

>  <RMSD>
10.805

$$$$
2be0_lig
 OpenBabel11021811423D
libRbt.so/2013.1/901 2013/11/27
 52 56  0  0  0  0  0  0  0  0999 V2000
   40.3010    2.0303   -5.6654 C   0  0  2  0  0  0  0  0  0  0  0  0
   40.3182    2.8720   -4.5366 O   0  0  0  0  0  0  0  0  0  0  0  0
   42.9313    6.1313   -3.1512 C   0  0  2  0  0  0  0  0  0  0  0  0
   44.1769    6.8622   -2.7855 N   0  0  0  0  0  0  0  0  0  0  0  0
   41.6567    5.4993   -7.4261 C   0  0  2  0  0  0  0  0  0  0  0  0
   40.7840    5.1671   -8.5254 O   0  0  0  0  0  0  0  0  0  0  0  0
   45.3292    3.8980   -9.6773 C   0  0  1  0  0  0  0  0  0  0  0  0
   47.2165   11.1939   -9.6496 C   0  0  0  0  0  0  0  0  0  0  0  0
   38.8825    1.3538   -5.8546 C   0  0  2  0  0  0  0  0  0  0  0  0
   37.8434    2.3850   -5.8967 N   0  0  0  0  0  0  0  0  0  0  0  0
   42.8498    4.7809   -2.3038 C   0  0  0  0  0  0  0  0  0  0  0  0
   43.0807    5.5779   -7.9992 C   0  0  2  0  0  0  0  0  0  0  0  0
   43.1720    6.9780   -8.5176 O   0  0  0  0  0  0  0  0  0  0  0  0
   46.1290    3.7141  -11.0801 C   0  0  2  0  0  0  0  0  0  0  0  0
   45.4018    2.7079  -11.9194 N   0  0  0  0  0  0  0  0  0  0  0  0
   47.4171   11.1917  -11.0690 C   0  0  0  0  0  0  0  0  0  0  0  0
   48.6013   11.7548  -11.6128 N   0  0  0  0  0  0  0  0  0  0  0  0
   38.6300    0.2978   -4.6812 C   0  0  1  0  0  0  0  0  0  0  0  0
   37.3518   -0.2910   -4.8647 O   0  0  0  0  0  0  0  0  0  0  0  0
   41.5016    3.9408   -2.6865 C   0  0  2  0  0  0  0  0  0  0  0  0
   41.4152    2.7242   -1.9290 N   0  0  0  0  0  0  0  0  0  0  0  0
   43.0022    4.3993   -8.9878 C   0  0  2  0  0  0  0  0  0  0  0  0
   43.9975    4.3382   -9.9989 O   0  0  0  0  0  0  0  0  0  0  0  0
   47.5707    3.2240  -10.7478 C   0  0  1  0  0  0  0  0  0  0  0  0
   48.1906    4.2885   -9.9416 O   0  0  0  0  0  0  0  0  0  0  0  0
   49.6231   12.3364  -10.8092 C   0  0  0  0  0  0  0  0  0  0  0  0
   39.7675   -0.7638   -4.7171 C   0  0  2  0  0  0  0  0  0  0  0  0
   39.5890   -1.7725   -3.6448 O   0  0  0  0  0  0  0  0  0  0  0  0
   41.5001    3.6034   -4.2343 C   0  0  2  0  0  0  0  0  0  0  0  0
   41.5577    4.4874   -9.5354 C   0  0  1  0  0  0  0  0  0  0  0  0
   47.5059    1.8237   -9.9227 C   0  0  2  0  0  0  0  0  0  0  0  0
   46.8871    0.7550  -10.7224 O   0  0  0  0  0  0  0  0  0  0  0  0
   49.4809   12.3664   -9.4000 C   0  0  0  0  0  0  0  0  0  0  0  0
   41.1717   -0.0711   -4.5277 C   0  0  2  0  0  0  0  0  0  0  0  0
   41.2844    0.9039   -5.6009 O   0  0  0  0  0  0  0  0  0  0  0  0
   41.5922    4.9584   -5.0183 C   0  0  2  0  0  0  0  0  0  0  0  0
   41.5705    4.5398   -6.3776 O   0  0  0  0  0  0  0  0  0  0  0  0
   40.9238    3.1113   -9.7315 C   0  0  0  0  0  0  0  0  0  0  0  0
   41.5530    2.2844  -10.6811 O   0  0  0  0  0  0  0  0  0  0  0  0
   46.6710    2.0380   -8.5774 C   0  0  1  0  0  0  0  0  0  0  0  0
   45.2961    2.5581   -8.9430 O   0  0  0  0  0  0  0  0  0  0  0  0
   48.2626   11.7922   -8.7833 C   0  0  0  0  0  0  0  0  0  0  0  0
   42.2043   -1.1178   -4.5921 C   0  0  0  0  0  0  0  0  0  0  0  0
   42.1359   -1.8802   -3.4935 O   0  0  0  0  0  0  0  0  0  0  0  0
   42.9261    5.7326   -4.6460 C   0  0  1  0  0  0  0  0  0  0  0  0
   42.9878    6.9348   -5.3404 O   0  0  0  0  0  0  0  0  0  0  0  0
   44.3350    7.6521   -9.1416 C   0  0  0  0  0  0  0  0  0  0  0  0
   46.6335    0.6715   -7.8405 C   0  0  0  0  0  0  0  0  0  0  0  0
   45.9247    0.7885   -6.5904 N   0  0  0  0  0  0  0  0  0  0  0  0
   43.8581    9.0267   -9.6218 C   0  0  0  0  0  0  0  0  0  0  0  0
   45.0283    9.8084  -10.1379 N   0  0  0  0  0  0  0  0  0  0  0  0
   45.8679   10.5486   -9.0621 C   0  0  0  0  0  0  0  0  0  0  0  0
  1  2  1  1  0  0  0
  1  9  1  0  0  0  0
  1 35  1  0  0  0  0
  3  4  1  1  0  0  0
  3 11  1  0  0  0  0
  3 45  1  0  0  0  0
  5  6  1  0  0  0  0
  5 12  1  0  0  0  0
  5 37  1  1  0  0  0
  6 30  1  0  0  0  0
  7 14  1  0  0  0  0
  7 41  1  0  0  0  0
  7 23  1  6  0  0  0
  8 16  2  0  0  0  0
  8 42  1  0  0  0  0
  9 10  1  1  0  0  0
  9 18  1  0  0  0  0
 11 20  1  0  0  0  0
 12 13  1  6  0  0  0
 12 22  1  0  0  0  0
 13 47  1  0  0  0  0
 14 15  1  6  0  0  0
 14 24  1  0  0  0  0
 16 17  1  0  0  0  0
 17 26  2  0  0  0  0
 18 19  1  6  0  0  0
 18 27  1  0  0  0  0
 20 21  1  1  0  0  0
 20 29  1  0  0  0  0
 22 23  1  6  0  0  0
 22 30  1  0  0  0  0
 24 25  1  1  0  0  0
 24 31  1  0  0  0  0
 26 33  1  0  0  0  0
 27 28  1  1  0  0  0
 27 34  1  0  0  0  0
 29  2  1  6  0  0  0
 29 36  1  0  0  0  0
 30 38  1  1  0  0  0
 31 32  1  6  0  0  0
 31 40  1  0  0  0  0
 33 42  2  0  0  0  0
 34 35  1  0  0  0  0
 34 43  1  6  0  0  0
 36 37  1  6  0  0  0
 36 45  1  0  0  0  0
 38 39  1  0  0  0  0
 40 41  1  0  0  0  0
 40 48  1  6  0  0  0
 43 44  1  0  0  0  0
 45 46  1  6  0  0  0
 47 50  1  0  0  0  0
 48 49  1  0  0  0  0
 50 51  1  0  0  0  0
 51 52  1  0  0  0  0
 52  8  1  0  0  0  0
M  END
>  <CHROM.1>
-177.84480038,-140.48026307,170.86559177,177.61112461,174.32521261,76.11213692
-155.88696997,-179.46201168,-70.51164414,-179.12103634,178.43942645,174.32626964
-83.14025922,171.95201391,8.31252663,43.48018159,4.33069214,-7.35804889,2.51385912
-0.81778808,-2.91143254

>  <Name>
2be0_lig

>  <RI>
3.37048e+07

>  <Rbt.Current_Directory>
/home/itssahil/PROJECTS/Mol_Feturizer/New_Systems/rnas/2be0

>  <Rbt.Executable>
rbdock ($Id: //depot/dev/client3/rdock/2013.1/src/exe/rbdock.cxx#4 $)

>  <Rbt.Library>
libRbt.so (2013.1, Build901 2013/11/27)

>  <Rbt.Parameter_File>
/export/apps/rDock/src/rDock_2013.1_src/data/scripts/dock_solv.prm

>  <Rbt.Receptor>
prm/pocket_docking_8.prm

>  <SCORE>
-27.4913

>  <SCORE.INTER>
-9.6167

>  <SCORE.INTER.CONST>
1

>  <SCORE.INTER.POLAR>
-0.894427

>  <SCORE.INTER.ROT>
15

>  <SCORE.INTER.SOLV>
13.2646

>  <SCORE.INTER.VDW>
-21.4512

>  <SCORE.INTER.norm>
-0.184937

>  <SCORE.INTRA>
-17.8746

>  <SCORE.INTRA.DIHEDRAL>
-36.0505

>  <SCORE.INTRA.DIHEDRAL.0>
47.8724

>  <SCORE.INTRA.POLAR>
0

>  <SCORE.INTRA.POLAR.0>
0

>  <SCORE.INTRA.REPUL>
0

>  <SCORE.INTRA.REPUL.0>
0

>  <SCORE.INTRA.SOLV>
-4.10286

>  <SCORE.INTRA.SOLV.lig_0>
-115.677

>  <SCORE.INTRA.VDW>
2.20211

>  <SCORE.INTRA.VDW.0>
-7.4833

>  <SCORE.INTRA.norm>
-0.343742

>  <SCORE.RESTR>
0

>  <SCORE.RESTR.CAVITY>
0

>  <SCORE.RESTR.norm>
0

>  <SCORE.SYSTEM>
0

>  <SCORE.SYSTEM.CONST>
0

>  <SCORE.SYSTEM.DIHEDRAL>
0

>  <SCORE.SYSTEM.SOLV>
0

>  <SCORE.SYSTEM.norm>
0

>  <SCORE.heavy>
52

>  <SCORE.norm>
-0.528678

>  <RMSD>
10.815

$$$$
2be0_lig
 OpenBabel11021811423D
libRbt.so/2013.1/901 2013/11/27
 52 56  0  0  0  0  0  0  0  0999 V2000
   35.7827   -1.2120   -6.5617 C   0  0  2  0  0  0  0  0  0  0  0  0
   36.0225    0.1698   -6.6880 O   0  0  0  0  0  0  0  0  0  0  0  0
   37.3933    0.2897  -10.8686 C   0  0  2  0  0  0  0  0  0  0  0  0
   37.8754    0.8452  -12.1641 N   0  0  0  0  0  0  0  0  0  0  0  0
   39.0595    1.5954   -6.9254 C   0  0  2  0  0  0  0  0  0  0  0  0
   39.9059    2.2115   -7.9176 O   0  0  0  0  0  0  0  0  0  0  0  0
   43.6512    1.2872   -5.5505 C   0  0  1  0  0  0  0  0  0  0  0  0
   38.4425    6.1267   -1.0633 C   0  0  0  0  0  0  0  0  0  0  0  0
   35.1119   -1.5525   -5.1688 C   0  0  2  0  0  0  0  0  0  0  0  0
   33.9029   -0.7456   -4.9907 N   0  0  0  0  0  0  0  0  0  0  0  0
   36.0167    0.9966  -10.4768 C   0  0  0  0  0  0  0  0  0  0  0  0
   39.8151    1.6721   -5.5892 C   0  0  2  0  0  0  0  0  0  0  0  0
   39.4668    3.0303   -5.0682 O   0  0  0  0  0  0  0  0  0  0  0  0
   43.6544   -0.3359   -5.4680 C   0  0  2  0  0  0  0  0  0  0  0  0
   43.2382   -0.7477   -4.0885 N   0  0  0  0  0  0  0  0  0  0  0  0
   39.2120    5.2254   -0.2569 C   0  0  0  0  0  0  0  0  0  0  0  0
   39.6194    5.6194    1.0446 N   0  0  0  0  0  0  0  0  0  0  0  0
   36.1677   -1.3160   -3.9919 C   0  0  1  0  0  0  0  0  0  0  0  0
   35.5453   -1.6191   -2.7530 O   0  0  0  0  0  0  0  0  0  0  0  0
   35.4601    0.4241   -9.0512 C   0  0  2  0  0  0  0  0  0  0  0  0
   34.2203    1.0507   -8.6883 N   0  0  0  0  0  0  0  0  0  0  0  0
   41.2386    1.3929   -6.1071 C   0  0  2  0  0  0  0  0  0  0  0  0
   42.3160    1.7283   -5.2450 O   0  0  0  0  0  0  0  0  0  0  0  0
   45.0992   -0.8280   -5.7837 C   0  0  1  0  0  0  0  0  0  0  0  0
   45.3928   -0.3852   -7.1567 O   0  0  0  0  0  0  0  0  0  0  0  0
   39.3007    6.8889    1.6057 C   0  0  0  0  0  0  0  0  0  0  0  0
   37.4096   -2.2172   -4.2521 C   0  0  2  0  0  0  0  0  0  0  0  0
   38.4299   -2.0378   -3.1910 O   0  0  0  0  0  0  0  0  0  0  0  0
   36.5346    0.6758   -7.9147 C   0  0  2  0  0  0  0  0  0  0  0  0
   41.2741    2.1270   -7.4687 C   0  0  1  0  0  0  0  0  0  0  0  0
   46.1502   -0.1856   -4.7214 C   0  0  2  0  0  0  0  0  0  0  0  0
   45.8626   -0.6235   -3.3466 O   0  0  0  0  0  0  0  0  0  0  0  0
   38.5416    7.8210    0.8560 C   0  0  0  0  0  0  0  0  0  0  0  0
   38.0631   -1.8637   -5.6433 C   0  0  2  0  0  0  0  0  0  0  0  0
   37.0176   -2.0544   -6.6360 O   0  0  0  0  0  0  0  0  0  0  0  0
   37.8660   -0.0275   -8.3525 C   0  0  2  0  0  0  0  0  0  0  0  0
   38.7423    0.2499   -7.2668 O   0  0  0  0  0  0  0  0  0  0  0  0
   42.0446    1.3461   -8.5320 C   0  0  0  0  0  0  0  0  0  0  0  0
   42.0296    1.9050   -9.8237 O   0  0  0  0  0  0  0  0  0  0  0  0
   46.0791    1.4086   -4.8017 C   0  0  1  0  0  0  0  0  0  0  0  0
   44.6515    1.8399   -4.5358 O   0  0  0  0  0  0  0  0  0  0  0  0
   38.0929    7.4581   -0.5083 C   0  0  0  0  0  0  0  0  0  0  0  0
   39.2142   -2.7589   -5.8424 C   0  0  0  0  0  0  0  0  0  0  0  0
   39.8084   -2.4695   -7.0068 O   0  0  0  0  0  0  0  0  0  0  0  0
   38.3936    0.5731   -9.7230 C   0  0  1  0  0  0  0  0  0  0  0  0
   39.5674   -0.0671  -10.1022 O   0  0  0  0  0  0  0  0  0  0  0  0
   39.7900    4.3508   -5.6583 C   0  0  0  0  0  0  0  0  0  0  0  0
   47.0908    1.9639   -3.7627 C   0  0  0  0  0  0  0  0  0  0  0  0
   48.4435    1.6628   -4.1606 N   0  0  0  0  0  0  0  0  0  0  0  0
   38.9513    5.3963   -4.9161 C   0  0  0  0  0  0  0  0  0  0  0  0
   39.1932    5.2749   -3.4419 N   0  0  0  0  0  0  0  0  0  0  0  0
   37.9941    5.6538   -2.5316 C   0  0  0  0  0  0  0  0  0  0  0  0
  1  2  1  1  0  0  0
  1  9  1  0  0  0  0
  1 35  1  0  0  0  0
  3  4  1  6  0  0  0
  3 11  1  0  0  0  0
  3 45  1  0  0  0  0
  5  6  1  0  0  0  0
  5 12  1  0  0  0  0
  5 37  1  6  0  0  0
  6 30  1  0  0  0  0
  7 14  1  0  0  0  0
  7 41  1  0  0  0  0
  7 23  1  1  0  0  0
  8 16  2  0  0  0  0
  8 42  1  0  0  0  0
  9 10  1  1  0  0  0
  9 18  1  0  0  0  0
 11 20  1  0  0  0  0
 12 13  1  6  0  0  0
 12 22  1  0  0  0  0
 13 47  1  0  0  0  0
 14 15  1  1  0  0  0
 14 24  1  0  0  0  0
 16 17  1  0  0  0  0
 17 26  2  0  0  0  0
 18 19  1  1  0  0  0
 18 27  1  0  0  0  0
 20 21  1  1  0  0  0
 20 29  1  0  0  0  0
 22 23  1  1  0  0  0
 22 30  1  0  0  0  0
 24 25  1  6  0  0  0
 24 31  1  0  0  0  0
 26 33  1  0  0  0  0
 27 28  1  1  0  0  0
 27 34  1  0  0  0  0
 29  2  1  1  0  0  0
 29 36  1  0  0  0  0
 30 38  1  6  0  0  0
 31 32  1  1  0  0  0
 31 40  1  0  0  0  0
 33 42  2  0  0  0  0
 34 35  1  0  0  0  0
 34 43  1  6  0  0  0
 36 37  1  1  0  0  0
 36 45  1  0  0  0  0
 38 39  1  0  0  0  0
 40 41  1  0  0  0  0
 40 48  1  1  0  0  0
 43 44  1  0  0  0  0
 45 46  1  6  0  0  0
 47 50  1  0  0  0  0
 48 49  1  0  0  0  0
 50 51  1  0  0  0  0
 51 52  1  0  0  0  0
 52  8  1  0  0  0  0
M  END
>  <CHROM.1>
-175.56849920,-70.59518590,-64.68418447,-63.60568039,167.68123533,169.05655260
64.04597409,59.01363241,-178.91593771,-60.55258882,67.68050905,54.18965322
-149.08677151,-154.81551230,-58.15557279,39.84299391,1.23600301,-5.58765360
2.38574394,0.05879272,-2.24471150

>  <Name>
2be0_lig

>  <RI>
0

>  <Rbt.Current_Directory>
/home/itssahil/PROJECTS/Mol_Feturizer/New_Systems/rnas/2be0

>  <Rbt.Executable>
rbdock ($Id: //depot/dev/client3/rdock/2013.1/src/exe/rbdock.cxx#4 $)

>  <Rbt.Library>
libRbt.so (2013.1, Build901 2013/11/27)

>  <Rbt.Parameter_File>
/export/apps/rDock/src/rDock_2013.1_src/data/scripts/dock_solv.prm

>  <Rbt.Receptor>
prm/pocket_docking_6.prm

>  <SCORE>
-19.5273

>  <SCORE.INTER>
0.608327

>  <SCORE.INTER.CONST>
1

>  <SCORE.INTER.POLAR>
0

>  <SCORE.INTER.ROT>
15

>  <SCORE.INTER.SOLV>
5.83743

>  <SCORE.INTER.VDW>
-15.1403

>  <SCORE.INTER.norm>
0.0116986

>  <SCORE.INTRA>
-20.1369

>  <SCORE.INTRA.DIHEDRAL>
-43.0615

>  <SCORE.INTRA.DIHEDRAL.0>
47.8724

>  <SCORE.INTRA.POLAR>
0

>  <SCORE.INTRA.POLAR.0>
0

>  <SCORE.INTRA.REPUL>
0

>  <SCORE.INTRA.REPUL.0>
0

>  <SCORE.INTRA.SOLV>
-1.39254

>  <SCORE.INTRA.SOLV.lig_0>
-115.677

>  <SCORE.INTRA.VDW>
2.09012

>  <SCORE.INTRA.VDW.0>
-7.4833

>  <SCORE.INTRA.norm>
-0.387248

>  <SCORE.RESTR>
0.00130771

>  <SCORE.RESTR.CAVITY>
0.00130771

>  <SCORE.RESTR.norm>
2.51483e-05

>  <SCORE.SYSTEM>
0

>  <SCORE.SYSTEM.CONST>
0

>  <SCORE.SYSTEM.DIHEDRAL>
0

>  <SCORE.SYSTEM.SOLV>
0

>  <SCORE.SYSTEM.norm>
0

>  <SCORE.heavy>
52

>  <SCORE.norm>
-0.375524

>  <RMSD>
10.834

$$$$
2be0_lig
 OpenBabel11021811423D
libRbt.so/2013.1/901 2013/11/27
 52 56  0  0  0  0  0  0  0  0999 V2000
   40.3607   -1.7783  -10.2266 C   0  0  2  0  0  0  0  0  0  0  0  0
   40.8097   -1.8711  -11.5580 O   0  0  0  0  0  0  0  0  0  0  0  0
   43.1908    1.0577  -13.8215 C   0  0  2  0  0  0  0  0  0  0  0  0
   43.5224    2.2823  -14.6024 N   0  0  0  0  0  0  0  0  0  0  0  0
   42.6658    0.9997   -9.3108 C   0  0  2  0  0  0  0  0  0  0  0  0
   43.8252    0.1951   -9.0129 O   0  0  0  0  0  0  0  0  0  0  0  0
   41.7698   -1.6401   -5.3956 C   0  0  1  0  0  0  0  0  0  0  0  0
   45.2380    8.1490   -7.6146 C   0  0  0  0  0  0  0  0  0  0  0  0
   39.8304   -3.1744   -9.7019 C   0  0  2  0  0  0  0  0  0  0  0  0
   40.8623   -4.1972   -9.8854 N   0  0  0  0  0  0  0  0  0  0  0  0
   42.0133    0.2709  -14.5583 C   0  0  0  0  0  0  0  0  0  0  0  0
   41.9172    1.2062   -7.9843 C   0  0  2  0  0  0  0  0  0  0  0  0
   42.6030    2.3883   -7.3763 O   0  0  0  0  0  0  0  0  0  0  0  0
   40.4610   -2.3413   -6.0565 C   0  0  2  0  0  0  0  0  0  0  0  0
   39.2627   -1.4884   -5.7695 N   0  0  0  0  0  0  0  0  0  0  0  0
   44.2019    8.8486   -8.3159 C   0  0  0  0  0  0  0  0  0  0  0  0
   44.5177   10.0222   -9.0493 N   0  0  0  0  0  0  0  0  0  0  0  0
   38.4729   -3.5520  -10.4574 C   0  0  1  0  0  0  0  0  0  0  0  0
   38.0189   -4.8086   -9.9788 O   0  0  0  0  0  0  0  0  0  0  0  0
   41.6092   -1.0748  -13.7242 C   0  0  2  0  0  0  0  0  0  0  0  0
   40.5519   -1.7931  -14.3780 N   0  0  0  0  0  0  0  0  0  0  0  0
   42.1234   -0.1943   -7.3770 C   0  0  2  0  0  0  0  0  0  0  0  0
   41.8963   -0.3322   -5.9820 O   0  0  0  0  0  0  0  0  0  0  0  0
   40.3033   -3.7552   -5.4201 C   0  0  1  0  0  0  0  0  0  0  0  0
   41.5195   -4.5040   -5.7769 O   0  0  0  0  0  0  0  0  0  0  0  0
   45.8355   10.5563   -9.1276 C   0  0  0  0  0  0  0  0  0  0  0  0
   37.4325   -2.4236  -10.1999 C   0  0  2  0  0  0  0  0  0  0  0  0
   36.1486   -2.7169  -10.8817 O   0  0  0  0  0  0  0  0  0  0  0  0
   41.1563   -0.6822  -12.2578 C   0  0  2  0  0  0  0  0  0  0  0  0
   43.5589   -0.5674   -7.8178 C   0  0  1  0  0  0  0  0  0  0  0  0
   40.1456   -3.6245   -3.8064 C   0  0  2  0  0  0  0  0  0  0  0  0
   38.9320   -2.8768   -3.4423 O   0  0  0  0  0  0  0  0  0  0  0  0
   46.9008    9.9073   -8.4559 C   0  0  0  0  0  0  0  0  0  0  0  0
   37.9787   -1.0417  -10.7286 C   0  0  2  0  0  0  0  0  0  0  0  0
   39.2333   -0.8138  -10.0293 O   0  0  0  0  0  0  0  0  0  0  0  0
   42.3403    0.0948  -11.5845 C   0  0  2  0  0  0  0  0  0  0  0  0
   41.8333    0.3818  -10.2868 O   0  0  0  0  0  0  0  0  0  0  0  0
   43.6886   -2.0429   -8.1923 C   0  0  0  0  0  0  0  0  0  0  0  0
   43.5852   -2.9509   -7.1218 O   0  0  0  0  0  0  0  0  0  0  0  0
   41.4294   -2.8877   -3.2051 C   0  0  1  0  0  0  0  0  0  0  0  0
   41.5719   -1.5407   -3.8834 O   0  0  0  0  0  0  0  0  0  0  0  0
   46.6230    8.6791   -7.6759 C   0  0  0  0  0  0  0  0  0  0  0  0
   36.9652   -0.0145  -10.4390 C   0  0  0  0  0  0  0  0  0  0  0  0
   36.8508    0.1383   -9.1138 O   0  0  0  0  0  0  0  0  0  0  0  0
   42.6856    1.4098  -12.4024 C   0  0  1  0  0  0  0  0  0  0  0  0
   43.7426    2.0811  -11.7993 O   0  0  0  0  0  0  0  0  0  0  0  0
   42.6569    3.7798   -7.8834 C   0  0  0  0  0  0  0  0  0  0  0  0
   41.2184   -2.7819   -1.6703 C   0  0  0  0  0  0  0  0  0  0  0  0
   41.1103   -4.0935   -1.0814 N   0  0  0  0  0  0  0  0  0  0  0  0
   43.6723    4.5372   -7.0217 C   0  0  0  0  0  0  0  0  0  0  0  0
   43.7929    5.9470   -7.5160 N   0  0  0  0  0  0  0  0  0  0  0  0
   44.8519    6.8231   -6.7940 C   0  0  0  0  0  0  0  0  0  0  0  0
  1  2  1  6  0  0  0
  1  9  1  0  0  0  0
  1 35  1  0  0  0  0
  3  4  1  6  0  0  0
  3 11  1  0  0  0  0
  3 45  1  0  0  0  0
  5  6  1  0  0  0  0
  5 12  1  0  0  0  0
  5 37  1  6  0  0  0
  6 30  1  0  0  0  0
  7 14  1  0  0  0  0
  7 41  1  0  0  0  0
  7 23  1  6  0  0  0
  8 16  2  0  0  0  0
  8 42  1  0  0  0  0
  9 10  1  6  0  0  0
  9 18  1  0  0  0  0
 11 20  1  0  0  0  0
 12 13  1  1  0  0  0
 12 22  1  0  0  0  0
 13 47  1  0  0  0  0
 14 15  1  1  0  0  0
 14 24  1  0  0  0  0
 16 17  1  0  0  0  0
 17 26  2  0  0  0  0
 18 19  1  1  0  0  0
 18 27  1  0  0  0  0
 20 21  1  6  0  0  0
 20 29  1  0  0  0  0
 22 23  1  1  0  0  0
 22 30  1  0  0  0  0
 24 25  1  1  0  0  0
 24 31  1  0  0  0  0
 26 33  1  0  0  0  0
 27 28  1  6  0  0  0
 27 34  1  0  0  0  0
 29  2  1  1  0  0  0
 29 36  1  0  0  0  0
 30 38  1  6  0  0  0
 31 32  1  6  0  0  0
 31 40  1  0  0  0  0
 33 42  2  0  0  0  0
 34 35  1  0  0  0  0
 34 43  1  1  0  0  0
 36 37  1  1  0  0  0
 36 45  1  0  0  0  0
 38 39  1  0  0  0  0
 40 41  1  0  0  0  0
 40 48  1  1  0  0  0
 43 44  1  0  0  0  0
 45 46  1  1  0  0  0
 47 50  1  0  0  0  0
 48 49  1  0  0  0  0
 50 51  1  0  0  0  0
 51 52  1  0  0  0  0
 52  8  1  0  0  0  0
M  END
>  <CHROM.1>
171.72300042,-60.34112082,-62.72727036,64.24010477,-170.68486993,165.91461907
-179.43507932,174.33136429,66.09212359,174.97404264,61.30322586,178.54702696
-176.50657131,163.33754708,38.37721164,41.63168790,0.33701627,-8.59204254
2.76400497,1.07234817,1.84647599

>  <Name>
2be0_lig

>  <RI>
3.37048e+07

>  <Rbt.Current_Directory>
/home/itssahil/PROJECTS/Mol_Feturizer/New_Systems/rnas/2be0

>  <Rbt.Executable>
rbdock ($Id: //depot/dev/client3/rdock/2013.1/src/exe/rbdock.cxx#4 $)

>  <Rbt.Library>
libRbt.so (2013.1, Build901 2013/11/27)

>  <Rbt.Parameter_File>
/export/apps/rDock/src/rDock_2013.1_src/data/scripts/dock_solv.prm

>  <Rbt.Receptor>
prm/pocket_docking_8.prm

>  <SCORE>
-17.6331

>  <SCORE.INTER>
3.56384

>  <SCORE.INTER.CONST>
1

>  <SCORE.INTER.POLAR>
0

>  <SCORE.INTER.ROT>
15

>  <SCORE.INTER.SOLV>
7.31

>  <SCORE.INTER.VDW>
-13.6608

>  <SCORE.INTER.norm>
0.0685354

>  <SCORE.INTRA>
-21.1969

>  <SCORE.INTRA.DIHEDRAL>
-44.2646

>  <SCORE.INTRA.DIHEDRAL.0>
47.8724

>  <SCORE.INTRA.POLAR>
0

>  <SCORE.INTRA.POLAR.0>
0

>  <SCORE.INTRA.REPUL>
0

>  <SCORE.INTRA.REPUL.0>
0

>  <SCORE.INTRA.SOLV>
-1.67738

>  <SCORE.INTRA.SOLV.lig_0>
-115.677

>  <SCORE.INTRA.VDW>
1.77407

>  <SCORE.INTRA.VDW.0>
-7.4833

>  <SCORE.INTRA.norm>
-0.407633

>  <SCORE.RESTR>
0

>  <SCORE.RESTR.CAVITY>
0

>  <SCORE.RESTR.norm>
0

>  <SCORE.SYSTEM>
0

>  <SCORE.SYSTEM.CONST>
0

>  <SCORE.SYSTEM.DIHEDRAL>
0

>  <SCORE.SYSTEM.SOLV>
0

>  <SCORE.SYSTEM.norm>
0

>  <SCORE.heavy>
52

>  <SCORE.norm>
-0.339098

>  <RMSD>
10.884

$$$$
2be0_lig
 OpenBabel11021811423D
libRbt.so/2013.1/901 2013/11/27
 52 56  0  0  0  0  0  0  0  0999 V2000
   38.1864    1.9087    1.7089 C   0  0  2  0  0  0  0  0  0  0  0  0
   38.3747    3.3042    1.6972 O   0  0  0  0  0  0  0  0  0  0  0  0
   40.2716    6.3022    4.3020 C   0  0  2  0  0  0  0  0  0  0  0  0
   41.1893    6.8865    5.3198 N   0  0  0  0  0  0  0  0  0  0  0  0
   41.2279    5.3513   -0.1374 C   0  0  2  0  0  0  0  0  0  0  0  0
   40.1914    6.2095   -0.6565 O   0  0  0  0  0  0  0  0  0  0  0  0
   41.2524    4.5119   -4.3335 C   0  0  1  0  0  0  0  0  0  0  0  0
   43.0413   10.0023    0.7682 C   0  0  0  0  0  0  0  0  0  0  0  0
   39.5466    1.1446    1.4411 C   0  0  2  0  0  0  0  0  0  0  0  0
   40.5622    1.5906    2.3972 N   0  0  0  0  0  0  0  0  0  0  0  0
   39.4610    5.0951    4.9609 C   0  0  0  0  0  0  0  0  0  0  0  0
   41.7358    4.5068   -1.3170 C   0  0  2  0  0  0  0  0  0  0  0  0
   42.7613    5.3856   -1.9600 O   0  0  0  0  0  0  0  0  0  0  0  0
   40.5286    5.9370   -4.6276 C   0  0  2  0  0  0  0  0  0  0  0  0
   39.1490    5.6761   -5.1514 N   0  0  0  0  0  0  0  0  0  0  0  0
   41.7949    9.4618    1.2255 C   0  0  0  0  0  0  0  0  0  0  0  0
   41.1882    9.9865    2.3966 N   0  0  0  0  0  0  0  0  0  0  0  0
   40.0057    1.3790   -0.0723 C   0  0  1  0  0  0  0  0  0  0  0  0
   41.2289    0.6930   -0.2894 O   0  0  0  0  0  0  0  0  0  0  0  0
   38.4509    4.4160    3.8706 C   0  0  2  0  0  0  0  0  0  0  0  0
   37.7138    3.3297    4.4518 N   0  0  0  0  0  0  0  0  0  0  0  0
   40.3904    4.2565   -2.0241 C   0  0  2  0  0  0  0  0  0  0  0  0
   40.4430    3.8116   -3.3717 O   0  0  0  0  0  0  0  0  0  0  0  0
   41.3879    6.7017   -5.6793 C   0  0  1  0  0  0  0  0  0  0  0  0
   42.7044    6.9158   -5.0562 O   0  0  0  0  0  0  0  0  0  0  0  0
   41.7623   11.0423    3.1607 C   0  0  0  0  0  0  0  0  0  0  0  0
   38.8791    0.8677   -1.0165 C   0  0  2  0  0  0  0  0  0  0  0  0
   39.2471    1.0629   -2.4397 O   0  0  0  0  0  0  0  0  0  0  0  0
   39.2784    3.8903    2.6263 C   0  0  2  0  0  0  0  0  0  0  0  0
   39.6330    5.5923   -1.8347 C   0  0  1  0  0  0  0  0  0  0  0  0
   41.5178    5.8192   -7.0394 C   0  0  2  0  0  0  0  0  0  0  0  0
   40.2055    5.6008   -7.6676 O   0  0  0  0  0  0  0  0  0  0  0  0
   42.9926   11.6170    2.7569 C   0  0  0  0  0  0  0  0  0  0  0  0
   37.5331    1.6399   -0.7343 C   0  0  2  0  0  0  0  0  0  0  0  0
   37.2295    1.4140    0.6699 O   0  0  0  0  0  0  0  0  0  0  0  0
   40.0616    5.1084    2.0248 C   0  0  2  0  0  0  0  0  0  0  0  0
   40.7489    4.5294    0.9221 O   0  0  0  0  0  0  0  0  0  0  0  0
   38.1435    5.3847   -1.5656 C   0  0  0  0  0  0  0  0  0  0  0  0
   37.3986    6.5583   -1.3442 O   0  0  0  0  0  0  0  0  0  0  0  0
   42.1886    4.4102   -6.6964 C   0  0  1  0  0  0  0  0  0  0  0  0
   41.3493    3.7232   -5.6390 O   0  0  0  0  0  0  0  0  0  0  0  0
   43.6666   11.1041    1.5416 C   0  0  0  0  0  0  0  0  0  0  0  0
   36.5046    1.1004   -1.6382 C   0  0  0  0  0  0  0  0  0  0  0  0
   35.3991    1.8511   -1.5548 O   0  0  0  0  0  0  0  0  0  0  0  0
   41.0539    5.7233    3.0994 C   0  0  1  0  0  0  0  0  0  0  0  0
   41.7323    6.8072    2.5548 O   0  0  0  0  0  0  0  0  0  0  0  0
   44.0970    5.7676   -1.4440 C   0  0  0  0  0  0  0  0  0  0  0  0
   42.2761    3.6105   -8.0247 C   0  0  0  0  0  0  0  0  0  0  0  0
   43.1871    4.2487   -8.9421 N   0  0  0  0  0  0  0  0  0  0  0  0
   43.8773    6.8218   -0.3542 C   0  0  0  0  0  0  0  0  0  0  0  0
   43.1413    7.9921   -0.9334 N   0  0  0  0  0  0  0  0  0  0  0  0
   43.7042    9.3901   -0.5608 C   0  0  0  0  0  0  0  0  0  0  0  0
  1  2  1  6  0  0  0
  1  9  1  0  0  0  0
  1 35  1  0  0  0  0
  3  4  1  1  0  0  0
  3 11  1  0  0  0  0
  3 45  1  0  0  0  0
  5  6  1  0  0  0  0
  5 12  1  0  0  0  0
  5 37  1  1  0  0  0
  6 30  1  0  0  0  0
  7 14  1  0  0  0  0
  7 41  1  0  0  0  0
  7 23  1  1  0  0  0
  8 16  2  0  0  0  0
  8 42  1  0  0  0  0
  9 10  1  1  0  0  0
  9 18  1  0  0  0  0
 11 20  1  0  0  0  0
 12 13  1  6  0  0  0
 12 22  1  0  0  0  0
 13 47  1  0  0  0  0
 14 15  1  6  0  0  0
 14 24  1  0  0  0  0
 16 17  1  0  0  0  0
 17 26  2  0  0  0  0
 18 19  1  6  0  0  0
 18 27  1  0  0  0  0
 20 21  1  1  0  0  0
 20 29  1  0  0  0  0
 22 23  1  6  0  0  0
 22 30  1  0  0  0  0
 24 25  1  1  0  0  0
 24 31  1  0  0  0  0
 26 33  1  0  0  0  0
 27 28  1  6  0  0  0
 27 34  1  0  0  0  0
 29  2  1  6  0  0  0
 29 36  1  0  0  0  0
 30 38  1  1  0  0  0
 31 32  1  1  0  0  0
 31 40  1  0  0  0  0
 33 42  2  0  0  0  0
 34 35  1  0  0  0  0
 34 43  1  6  0  0  0
 36 37  1  6  0  0  0
 36 45  1  0  0  0  0
 38 39  1  0  0  0  0
 40 41  1  0  0  0  0
 40 48  1  6  0  0  0
 43 44  1  0  0  0  0
 45 46  1  6  0  0  0
 47 50  1  0  0  0  0
 48 49  1  0  0  0  0
 50 51  1  0  0  0  0
 51 52  1  0  0  0  0
 52  8  1  0  0  0  0
M  END
>  <CHROM.1>
-59.48880376,-51.75047676,-70.98976326,70.41920999,-75.86627986,-50.31452112
-96.76196203,61.96090715,-171.73202656,159.70976365,65.91089954,-58.22724846
-134.36072126,-90.75767481,-18.41803059,40.53778625,5.08543068,-0.82734986
1.67734278,0.99399927,1.25424965

>  <Name>
2be0_lig

>  <RI>
0

>  <Rbt.Current_Directory>
/home/itssahil/PROJECTS/Mol_Feturizer/New_Systems/rnas/2be0

>  <Rbt.Executable>
rbdock ($Id: //depot/dev/client3/rdock/2013.1/src/exe/rbdock.cxx#4 $)

>  <Rbt.Library>
libRbt.so (2013.1, Build901 2013/11/27)

>  <Rbt.Parameter_File>
/export/apps/rDock/src/rDock_2013.1_src/data/scripts/dock_solv.prm

>  <Rbt.Receptor>
prm/pocket_docking_7.prm

>  <SCORE>
-28.3091

>  <SCORE.INTER>
-12.5577

>  <SCORE.INTER.CONST>
1

>  <SCORE.INTER.POLAR>
0

>  <SCORE.INTER.ROT>
15

>  <SCORE.INTER.SOLV>
16.4578

>  <SCORE.INTER.VDW>
-27.4577

>  <SCORE.INTER.norm>
-0.241495

>  <SCORE.INTRA>
-15.7513

>  <SCORE.INTRA.DIHEDRAL>
-34.9253

>  <SCORE.INTRA.DIHEDRAL.0>
47.8724

>  <SCORE.INTRA.POLAR>
0

>  <SCORE.INTRA.POLAR.0>
0

>  <SCORE.INTRA.REPUL>
0.00658461

>  <SCORE.INTRA.REPUL.0>
0

>  <SCORE.INTRA.SOLV>
4.63334

>  <SCORE.INTRA.SOLV.lig_0>
-115.677

>  <SCORE.INTRA.VDW>
-0.63831

>  <SCORE.INTRA.VDW.0>
-7.4833

>  <SCORE.INTRA.norm>
-0.302911

>  <SCORE.RESTR>
0

>  <SCORE.RESTR.CAVITY>
0

>  <SCORE.RESTR.norm>
0

>  <SCORE.SYSTEM>
0

>  <SCORE.SYSTEM.CONST>
0

>  <SCORE.SYSTEM.DIHEDRAL>
0

>  <SCORE.SYSTEM.SOLV>
0

>  <SCORE.SYSTEM.norm>
0

>  <SCORE.heavy>
52

>  <SCORE.norm>
-0.544405

>  <RMSD>
10.986

$$$$
2be0_lig
 OpenBabel11021811423D
libRbt.so/2013.1/901 2013/11/27
 52 56  0  0  0  0  0  0  0  0999 V2000
   42.4510    0.1832   -2.6769 C   0  0  2  0  0  0  0  0  0  0  0  0
   41.5785    1.0034   -3.4178 O   0  0  0  0  0  0  0  0  0  0  0  0
   40.9403    5.3496   -3.1464 C   0  0  2  0  0  0  0  0  0  0  0  0
   41.2401    6.8087   -3.1709 N   0  0  0  0  0  0  0  0  0  0  0  0
   40.3905    2.8467   -6.8840 C   0  0  2  0  0  0  0  0  0  0  0  0
   38.9777    2.6226   -6.6990 O   0  0  0  0  0  0  0  0  0  0  0  0
   40.9034   -0.7854   -9.5248 C   0  0  1  0  0  0  0  0  0  0  0  0
   43.8390    7.9364   -9.0876 C   0  0  0  0  0  0  0  0  0  0  0  0
   43.4346   -0.6134   -3.6275 C   0  0  2  0  0  0  0  0  0  0  0  0
   44.1401    0.3218   -4.5062 N   0  0  0  0  0  0  0  0  0  0  0  0
   41.9084    4.6347   -2.0976 C   0  0  0  0  0  0  0  0  0  0  0  0
   40.8175    2.0042   -8.0966 C   0  0  2  0  0  0  0  0  0  0  0  0
   40.5068    2.8877   -9.2629 O   0  0  0  0  0  0  0  0  0  0  0  0
   40.3726   -1.5285  -10.8692 C   0  0  2  0  0  0  0  0  0  0  0  0
   39.3155   -2.5189  -10.4852 N   0  0  0  0  0  0  0  0  0  0  0  0
   44.3442    8.3463   -7.8103 C   0  0  0  0  0  0  0  0  0  0  0  0
   44.9008    9.6432   -7.6574 N   0  0  0  0  0  0  0  0  0  0  0  0
   42.6137   -1.7079   -4.4546 C   0  0  1  0  0  0  0  0  0  0  0  0
   43.5111   -2.4048   -5.3049 O   0  0  0  0  0  0  0  0  0  0  0  0
   41.6207    3.0269   -2.0507 C   0  0  2  0  0  0  0  0  0  0  0  0
   42.4841    2.3721   -1.1089 N   0  0  0  0  0  0  0  0  0  0  0  0
   39.9554    0.7555   -7.8313 C   0  0  2  0  0  0  0  0  0  0  0  0
   39.7695   -0.1422   -8.9157 O   0  0  0  0  0  0  0  0  0  0  0  0
   41.5888   -2.2419  -11.5332 C   0  0  1  0  0  0  0  0  0  0  0  0
   42.5479   -1.1803  -11.8806 O   0  0  0  0  0  0  0  0  0  0  0  0
   44.9890   10.5800   -8.7264 C   0  0  0  0  0  0  0  0  0  0  0  0
   41.9091   -2.6634   -3.4481 C   0  0  2  0  0  0  0  0  0  0  0  0
   41.1254   -3.7023   -4.1590 O   0  0  0  0  0  0  0  0  0  0  0  0
   41.8337    2.4008   -3.4902 C   0  0  2  0  0  0  0  0  0  0  0  0
   38.6380    1.3429   -7.2715 C   0  0  1  0  0  0  0  0  0  0  0  0
   42.2434   -3.3086  -10.4942 C   0  0  2  0  0  0  0  0  0  0  0  0
   41.2902   -4.3725  -10.1422 O   0  0  0  0  0  0  0  0  0  0  0  0
   44.5049   10.2315  -10.0114 C   0  0  0  0  0  0  0  0  0  0  0  0
   40.9347   -1.8519   -2.5103 C   0  0  2  0  0  0  0  0  0  0  0  0
   41.7575   -0.8523   -1.8480 O   0  0  0  0  0  0  0  0  0  0  0  0
   40.8707    3.1429   -4.4807 C   0  0  2  0  0  0  0  0  0  0  0  0
   41.1350    2.4989   -5.7212 O   0  0  0  0  0  0  0  0  0  0  0  0
   38.0526    0.4922   -6.1455 C   0  0  0  0  0  0  0  0  0  0  0  0
   36.8774    0.9942   -5.5554 O   0  0  0  0  0  0  0  0  0  0  0  0
   42.7063   -2.5443   -9.1696 C   0  0  1  0  0  0  0  0  0  0  0  0
   41.5068   -1.8280   -8.5842 O   0  0  0  0  0  0  0  0  0  0  0  0
   43.9154    8.8891  -10.2231 C   0  0  0  0  0  0  0  0  0  0  0  0
   40.3169   -2.8013   -1.5707 C   0  0  0  0  0  0  0  0  0  0  0  0
   39.4612   -2.1482   -0.7745 O   0  0  0  0  0  0  0  0  0  0  0  0
   41.1976    4.6949   -4.5242 C   0  0  1  0  0  0  0  0  0  0  0  0
   40.3298    5.3393   -5.3978 O   0  0  0  0  0  0  0  0  0  0  0  0
   41.2569    4.0723   -9.7430 C   0  0  0  0  0  0  0  0  0  0  0  0
   43.3101   -3.6098   -8.2148 C   0  0  0  0  0  0  0  0  0  0  0  0
   44.4485   -4.2507   -8.8248 N   0  0  0  0  0  0  0  0  0  0  0  0
   41.0170    5.2000   -8.7340 C   0  0  0  0  0  0  0  0  0  0  0  0
   41.6610    6.4591   -9.2307 N   0  0  0  0  0  0  0  0  0  0  0  0
   43.2135    6.4638   -9.2311 C   0  0  0  0  0  0  0  0  0  0  0  0
  1  2  1  6  0  0  0
  1  9  1  0  0  0  0
  1 35  1  0  0  0  0
  3  4  1  6  0  0  0
  3 11  1  0  0  0  0
  3 45  1  0  0  0  0
  5  6  1  0  0  0  0
  5 12  1  0  0  0  0
  5 37  1  1  0  0  0
  6 30  1  0  0  0  0
  7 14  1  0  0  0  0
  7 41  1  0  0  0  0
  7 23  1  1  0  0  0
  8 16  2  0  0  0  0
  8 42  1  0  0  0  0
  9 10  1  6  0  0  0
  9 18  1  0  0  0  0
 11 20  1  0  0  0  0
 12 13  1  6  0  0  0
 12 22  1  0  0  0  0
 13 47  1  0  0  0  0
 14 15  1  1  0  0  0
 14 24  1  0  0  0  0
 16 17  1  0  0  0  0
 17 26  2  0  0  0  0
 18 19  1  6  0  0  0
 18 27  1  0  0  0  0
 20 21  1  1  0  0  0
 20 29  1  0  0  0  0
 22 23  1  6  0  0  0
 22 30  1  0  0  0  0
 24 25  1  1  0  0  0
 24 31  1  0  0  0  0
 26 33  1  0  0  0  0
 27 28  1  6  0  0  0
 27 34  1  0  0  0  0
 29  2  1  1  0  0  0
 29 36  1  0  0  0  0
 30 38  1  1  0  0  0
 31 32  1  1  0  0  0
 31 40  1  0  0  0  0
 33 42  2  0  0  0  0
 34 35  1  0  0  0  0
 34 43  1  1  0  0  0
 36 37  1  6  0  0  0
 36 45  1  0  0  0  0
 38 39  1  0  0  0  0
 40 41  1  0  0  0  0
 40 48  1  1  0  0  0
 43 44  1  0  0  0  0
 45 46  1  6  0  0  0
 47 50  1  0  0  0  0
 48 49  1  0  0  0  0
 50 51  1  0  0  0  0
 51 52  1  0  0  0  0
 52  8  1  0  0  0  0
M  END
>  <CHROM.1>
-102.47110857,-59.27788081,-170.52172139,75.83552353,-72.17693913,60.44510683
-67.27463180,61.52270188,-178.78668120,176.55473540,60.67630256,-175.31206177
-69.45841938,-152.86986988,101.80931669,41.58031197,1.56807457,-6.52387399
2.74350190,-1.40460091,-2.12393328

>  <Name>
2be0_lig

>  <RI>
3.37048e+07

>  <Rbt.Current_Directory>
/home/itssahil/PROJECTS/Mol_Feturizer/New_Systems/rnas/2be0

>  <Rbt.Executable>
rbdock ($Id: //depot/dev/client3/rdock/2013.1/src/exe/rbdock.cxx#4 $)

>  <Rbt.Library>
libRbt.so (2013.1, Build901 2013/11/27)

>  <Rbt.Parameter_File>
/export/apps/rDock/src/rDock_2013.1_src/data/scripts/dock_solv.prm

>  <Rbt.Receptor>
prm/pocket_docking_8.prm

>  <SCORE>
-27.8452

>  <SCORE.INTER>
-11.4786

>  <SCORE.INTER.CONST>
1

>  <SCORE.INTER.POLAR>
-0.959166

>  <SCORE.INTER.ROT>
15

>  <SCORE.INTER.SOLV>
12.3693

>  <SCORE.INTER.VDW>
-22.1783

>  <SCORE.INTER.norm>
-0.220743

>  <SCORE.INTRA>
-16.3665

>  <SCORE.INTRA.DIHEDRAL>
-37.7034

>  <SCORE.INTRA.DIHEDRAL.0>
47.8724

>  <SCORE.INTRA.POLAR>
0

>  <SCORE.INTRA.POLAR.0>
0

>  <SCORE.INTRA.REPUL>
0

>  <SCORE.INTRA.REPUL.0>
0

>  <SCORE.INTRA.SOLV>
-1.40943

>  <SCORE.INTRA.SOLV.lig_0>
-115.677

>  <SCORE.INTRA.VDW>
3.18989

>  <SCORE.INTRA.VDW.0>
-7.4833

>  <SCORE.INTRA.norm>
-0.314741

>  <SCORE.RESTR>
0

>  <SCORE.RESTR.CAVITY>
0

>  <SCORE.RESTR.norm>
0

>  <SCORE.SYSTEM>
0

>  <SCORE.SYSTEM.CONST>
0

>  <SCORE.SYSTEM.DIHEDRAL>
0

>  <SCORE.SYSTEM.SOLV>
0

>  <SCORE.SYSTEM.norm>
0

>  <SCORE.heavy>
52

>  <SCORE.norm>
-0.535484

>  <RMSD>
11.153

$$$$
2be0_lig
 OpenBabel11021811423D
libRbt.so/2013.1/901 2013/11/27
 52 56  0  0  0  0  0  0  0  0999 V2000
   39.5851   -1.6696   -5.5941 C   0  0  2  0  0  0  0  0  0  0  0  0
   38.2429   -1.6136   -5.1717 O   0  0  0  0  0  0  0  0  0  0  0  0
   36.3334    1.1788   -2.3562 C   0  0  2  0  0  0  0  0  0  0  0  0
   35.9681    1.8286   -1.0663 N   0  0  0  0  0  0  0  0  0  0  0  0
   40.2254    1.8428   -4.7309 C   0  0  2  0  0  0  0  0  0  0  0  0
   39.5782    2.3587   -5.9122 O   0  0  0  0  0  0  0  0  0  0  0  0
   43.5242   -0.0338   -7.4394 C   0  0  1  0  0  0  0  0  0  0  0  0
   42.8198    4.3394    0.5169 C   0  0  0  0  0  0  0  0  0  0  0  0
   39.8267   -2.8874   -6.5761 C   0  0  2  0  0  0  0  0  0  0  0  0
   38.8805   -2.8195   -7.6918 N   0  0  0  0  0  0  0  0  0  0  0  0
   35.9782   -0.3755   -2.2774 C   0  0  0  0  0  0  0  0  0  0  0  0
   41.7030    1.6262   -5.0943 C   0  0  2  0  0  0  0  0  0  0  0  0
   42.3196    2.9698   -4.8666 O   0  0  0  0  0  0  0  0  0  0  0  0
   44.0281   -0.3457   -5.9261 C   0  0  2  0  0  0  0  0  0  0  0  0
   44.7492    0.8590   -5.4021 N   0  0  0  0  0  0  0  0  0  0  0  0
   41.3997    4.5199    0.5909 C   0  0  0  0  0  0  0  0  0  0  0  0
   40.8653    5.5831    1.3649 N   0  0  0  0  0  0  0  0  0  0  0  0
   39.7021   -4.2616   -5.7688 C   0  0  1  0  0  0  0  0  0  0  0  0
   39.9143   -5.3394   -6.6674 O   0  0  0  0  0  0  0  0  0  0  0  0
   36.3777   -1.1294   -3.6710 C   0  0  2  0  0  0  0  0  0  0  0  0
   36.0610   -2.5286   -3.6138 N   0  0  0  0  0  0  0  0  0  0  0  0
   41.5180    1.1025   -6.5311 C   0  0  2  0  0  0  0  0  0  0  0  0
   42.6605    1.1152   -7.3743 O   0  0  0  0  0  0  0  0  0  0  0  0
   44.9766   -1.5811   -5.9829 C   0  0  1  0  0  0  0  0  0  0  0  0
   44.1648   -2.6988   -6.4920 O   0  0  0  0  0  0  0  0  0  0  0  0
   41.6793    6.4998    2.0896 C   0  0  0  0  0  0  0  0  0  0  0  0
   40.7469   -4.2548   -4.6153 C   0  0  2  0  0  0  0  0  0  0  0  0
   40.6763   -5.5077   -3.8250 O   0  0  0  0  0  0  0  0  0  0  0  0
   37.9253   -0.9468   -3.9561 C   0  0  2  0  0  0  0  0  0  0  0  0
   40.3340    1.9417   -7.0678 C   0  0  1  0  0  0  0  0  0  0  0  0
   46.2344   -1.2721   -6.9670 C   0  0  2  0  0  0  0  0  0  0  0  0
   47.0502   -0.1556   -6.4645 O   0  0  0  0  0  0  0  0  0  0  0  0
   43.0897    6.3720    2.0532 C   0  0  0  0  0  0  0  0  0  0  0  0
   40.4902   -3.0352   -3.6488 C   0  0  2  0  0  0  0  0  0  0  0  0
   40.5682   -1.8438   -4.4791 O   0  0  0  0  0  0  0  0  0  0  0  0
   38.2219    0.5920   -4.0128 C   0  0  2  0  0  0  0  0  0  0  0  0
   39.6178    0.6355   -4.2829 O   0  0  0  0  0  0  0  0  0  0  0  0
   39.3898    1.1225   -7.9461 C   0  0  0  0  0  0  0  0  0  0  0  0
   39.9241    0.6966   -9.1767 O   0  0  0  0  0  0  0  0  0  0  0  0
   45.6920   -0.9237   -8.4289 C   0  0  1  0  0  0  0  0  0  0  0  0
   44.7399    0.2496   -8.3212 O   0  0  0  0  0  0  0  0  0  0  0  0
   43.6970    5.2780    1.2604 C   0  0  0  0  0  0  0  0  0  0  0  0
   41.5176   -3.0693   -2.5955 C   0  0  0  0  0  0  0  0  0  0  0  0
   42.6858   -2.6501   -3.0979 O   0  0  0  0  0  0  0  0  0  0  0  0
   37.8514    1.2860   -2.6350 C   0  0  1  0  0  0  0  0  0  0  0  0
   38.1100    2.6497   -2.7048 O   0  0  0  0  0  0  0  0  0  0  0  0
   42.5937    3.6478   -3.5776 C   0  0  0  0  0  0  0  0  0  0  0  0
   46.9309   -0.6282   -9.3174 C   0  0  0  0  0  0  0  0  0  0  0  0
   47.5577    0.6077   -8.9192 N   0  0  0  0  0  0  0  0  0  0  0  0
   43.7594    2.9069   -2.9147 C   0  0  0  0  0  0  0  0  0  0  0  0
   44.1381    3.6074   -1.6448 N   0  0  0  0  0  0  0  0  0  0  0  0
   43.3966    3.1288   -0.3675 C   0  0  0  0  0  0  0  0  0  0  0  0
  1  2  1  1  0  0  0
  1  9  1  0  0  0  0
  1 35  1  0  0  0  0
  3  4  1  1  0  0  0
  3 11  1  0  0  0  0
  3 45  1  0  0  0  0
  5  6  1  0  0  0  0
  5 12  1  0  0  0  0
  5 37  1  6  0  0  0
  6 30  1  0  0  0  0
  7 14  1  0  0  0  0
  7 41  1  0  0  0  0
  7 23  1  1  0  0  0
  8 16  2  0  0  0  0
  8 42  1  0  0  0  0
  9 10  1  6  0  0  0
  9 18  1  0  0  0  0
 11 20  1  0  0  0  0
 12 13  1  6  0  0  0
 12 22  1  0  0  0  0
 13 47  1  0  0  0  0
 14 15  1  6  0  0  0
 14 24  1  0  0  0  0
 16 17  1  0  0  0  0
 17 26  2  0  0  0  0
 18 19  1  6  0  0  0
 18 27  1  0  0  0  0
 20 21  1  1  0  0  0
 20 29  1  0  0  0  0
 22 23  1  6  0  0  0
 22 30  1  0  0  0  0
 24 25  1  6  0  0  0
 24 31  1  0  0  0  0
 26 33  1  0  0  0  0
 27 28  1  1  0  0  0
 27 34  1  0  0  0  0
 29  2  1  6  0  0  0
 29 36  1  0  0  0  0
 30 38  1  6  0  0  0
 31 32  1  1  0  0  0
 31 40  1  0  0  0  0
 33 42  2  0  0  0  0
 34 35  1  0  0  0  0
 34 43  1  1  0  0  0
 36 37  1  1  0  0  0
 36 45  1  0  0  0  0
 38 39  1  0  0  0  0
 40 41  1  0  0  0  0
 40 48  1  6  0  0  0
 43 44  1  0  0  0  0
 45 46  1  6  0  0  0
 47 50  1  0  0  0  0
 48 49  1  0  0  0  0
 50 51  1  0  0  0  0
 51 52  1  0  0  0  0
 52  8  1  0  0  0  0
M  END
>  <CHROM.1>
156.86540587,-54.99530342,-56.58169104,71.89887563,71.48040715,90.98534314
-175.78839198,175.95589848,75.00661278,164.67762357,-69.25682283,176.34236555
89.84762494,-132.31425998,110.97429780,41.35430715,0.31333708,-4.47819467
1.35197002,-0.37989493,-2.37424918

>  <Name>
2be0_lig

>  <RI>
0

>  <Rbt.Current_Directory>
/home/itssahil/PROJECTS/Mol_Feturizer/New_Systems/rnas/2be0

>  <Rbt.Executable>
rbdock ($Id: //depot/dev/client3/rdock/2013.1/src/exe/rbdock.cxx#4 $)

>  <Rbt.Library>
libRbt.so (2013.1, Build901 2013/11/27)

>  <Rbt.Parameter_File>
/export/apps/rDock/src/rDock_2013.1_src/data/scripts/dock_solv.prm

>  <Rbt.Receptor>
prm/pocket_docking_7.prm

>  <SCORE>
-13.147

>  <SCORE.INTER>
2.92171

>  <SCORE.INTER.CONST>
1

>  <SCORE.INTER.POLAR>
0

>  <SCORE.INTER.ROT>
15

>  <SCORE.INTER.SOLV>
9.30564

>  <SCORE.INTER.VDW>
-14.7541

>  <SCORE.INTER.norm>
0.0561868

>  <SCORE.INTRA>
-16.0905

>  <SCORE.INTRA.DIHEDRAL>
-35.1201

>  <SCORE.INTRA.DIHEDRAL.0>
47.8724

>  <SCORE.INTRA.POLAR>
0

>  <SCORE.INTRA.POLAR.0>
0

>  <SCORE.INTRA.REPUL>
0

>  <SCORE.INTRA.REPUL.0>
0

>  <SCORE.INTRA.SOLV>
1.20962

>  <SCORE.INTRA.SOLV.lig_0>
-115.677

>  <SCORE.INTRA.VDW>
0.864793

>  <SCORE.INTRA.VDW.0>
-7.4833

>  <SCORE.INTRA.norm>
-0.309432

>  <SCORE.RESTR>
0.0217701

>  <SCORE.RESTR.CAVITY>
0.0217701

>  <SCORE.RESTR.norm>
0.000418655

>  <SCORE.SYSTEM>
0

>  <SCORE.SYSTEM.CONST>
0

>  <SCORE.SYSTEM.DIHEDRAL>
0

>  <SCORE.SYSTEM.SOLV>
0

>  <SCORE.SYSTEM.norm>
0

>  <SCORE.heavy>
52

>  <SCORE.norm>
-0.252826

>  <RMSD>
11.161

$$$$
2be0_lig
 OpenBabel11021811423D
libRbt.so/2013.1/901 2013/11/27
 52 56  0  0  0  0  0  0  0  0999 V2000
   40.5359   -5.1222   -6.5831 C   0  0  2  0  0  0  0  0  0  0  0  0
   39.9346   -5.7905   -5.4993 O   0  0  0  0  0  0  0  0  0  0  0  0
   40.4980   -5.3572   -1.1559 C   0  0  2  0  0  0  0  0  0  0  0  0
   41.1658   -5.3917    0.1754 N   0  0  0  0  0  0  0  0  0  0  0  0
   41.3076   -2.1235   -4.1824 C   0  0  2  0  0  0  0  0  0  0  0  0
   40.0626   -1.4058   -4.3066 O   0  0  0  0  0  0  0  0  0  0  0  0
   41.9275    1.1372   -6.9529 C   0  0  1  0  0  0  0  0  0  0  0  0
   47.2339    0.3511   -3.4141 C   0  0  0  0  0  0  0  0  0  0  0  0
   39.7823   -5.4357   -7.9394 C   0  0  2  0  0  0  0  0  0  0  0  0
   38.3581   -5.1255   -7.7980 N   0  0  0  0  0  0  0  0  0  0  0  0
   40.5637   -6.8112   -1.8114 C   0  0  0  0  0  0  0  0  0  0  0  0
   42.2984   -1.4630   -5.1543 C   0  0  2  0  0  0  0  0  0  0  0  0
   42.8566   -0.3228   -4.3632 O   0  0  0  0  0  0  0  0  0  0  0  0
   40.4553    1.8251   -6.9815 C   0  0  2  0  0  0  0  0  0  0  0  0
   39.8777    1.6669   -8.3553 N   0  0  0  0  0  0  0  0  0  0  0  0
   48.6580    0.4991   -3.3449 C   0  0  0  0  0  0  0  0  0  0  0  0
   49.4954   -0.4399   -4.0021 N   0  0  0  0  0  0  0  0  0  0  0  0
   40.0244   -6.9621   -8.3483 C   0  0  1  0  0  0  0  0  0  0  0  0
   39.3352   -7.2243   -9.5609 O   0  0  0  0  0  0  0  0  0  0  0  0
   39.8528   -6.8128   -3.2826 C   0  0  2  0  0  0  0  0  0  0  0  0
   39.9033   -8.1163   -3.8824 N   0  0  0  0  0  0  0  0  0  0  0  0
   41.3330   -1.1844   -6.3218 C   0  0  2  0  0  0  0  0  0  0  0  0
   41.7587   -0.2487   -7.3015 O   0  0  0  0  0  0  0  0  0  0  0  0
   40.6242    3.3314   -6.6188 C   0  0  1  0  0  0  0  0  0  0  0  0
   41.1782    3.3657   -5.2553 O   0  0  0  0  0  0  0  0  0  0  0  0
   48.9885   -1.5465   -4.7414 C   0  0  0  0  0  0  0  0  0  0  0  0
   41.5560   -7.2002   -8.4891 C   0  0  2  0  0  0  0  0  0  0  0  0
   41.8445   -8.6055   -8.8648 O   0  0  0  0  0  0  0  0  0  0  0  0
   40.5726   -5.7653   -4.2283 C   0  0  2  0  0  0  0  0  0  0  0  0
   40.0161   -0.7915   -5.6109 C   0  0  1  0  0  0  0  0  0  0  0  0
   41.6271    4.0499   -7.6790 C   0  0  2  0  0  0  0  0  0  0  0  0
   41.0800    4.0191   -9.0443 O   0  0  0  0  0  0  0  0  0  0  0  0
   47.5895   -1.7437   -4.8458 C   0  0  0  0  0  0  0  0  0  0  0  0
   42.2887   -6.8824   -7.1291 C   0  0  2  0  0  0  0  0  0  0  0  0
   41.9656   -5.4998   -6.8146 O   0  0  0  0  0  0  0  0  0  0  0  0
   40.4895   -4.3610   -3.5355 C   0  0  2  0  0  0  0  0  0  0  0  0
   41.1464   -3.5094   -4.4664 O   0  0  0  0  0  0  0  0  0  0  0  0
   38.7824   -1.3462   -6.3211 C   0  0  0  0  0  0  0  0  0  0  0  0
   38.6674   -2.7491   -6.3286 O   0  0  0  0  0  0  0  0  0  0  0  0
   43.0443    3.3126   -7.6531 C   0  0  1  0  0  0  0  0  0  0  0  0
   42.8286    1.8458   -7.9636 O   0  0  0  0  0  0  0  0  0  0  0  0
   46.6726   -0.7917   -4.1770 C   0  0  0  0  0  0  0  0  0  0  0  0
   43.7298   -7.1040   -7.3297 C   0  0  0  0  0  0  0  0  0  0  0  0
   44.3712   -6.9510   -6.1644 O   0  0  0  0  0  0  0  0  0  0  0  0
   41.2151   -4.3874   -2.1247 C   0  0  1  0  0  0  0  0  0  0  0  0
   41.1238   -3.1396   -1.5196 O   0  0  0  0  0  0  0  0  0  0  0  0
   43.5066   -0.3601   -3.0319 C   0  0  0  0  0  0  0  0  0  0  0  0
   43.9521    4.0313   -8.6879 C   0  0  0  0  0  0  0  0  0  0  0  0
   44.3412    5.3326   -8.2043 N   0  0  0  0  0  0  0  0  0  0  0  0
   43.7512    1.0912   -2.6061 C   0  0  0  0  0  0  0  0  0  0  0  0
   44.9337    1.6363   -3.3485 N   0  0  0  0  0  0  0  0  0  0  0  0
   46.3107    1.4294   -2.6620 C   0  0  0  0  0  0  0  0  0  0  0  0
  1  2  1  1  0  0  0
  1  9  1  0  0  0  0
  1 35  1  0  0  0  0
  3  4  1  1  0  0  0
  3 11  1  0  0  0  0
  3 45  1  0  0  0  0
  5  6  1  0  0  0  0
  5 12  1  0  0  0  0
  5 37  1  6  0  0  0
  6 30  1  0  0  0  0
  7 14  1  0  0  0  0
  7 41  1  0  0  0  0
  7 23  1  6  0  0  0
  8 16  2  0  0  0  0
  8 42  1  0  0  0  0
  9 10  1  1  0  0  0
  9 18  1  0  0  0  0
 11 20  1  0  0  0  0
 12 13  1  1  0  0  0
 12 22  1  0  0  0  0
 13 47  1  0  0  0  0
 14 15  1  6  0  0  0
 14 24  1  0  0  0  0
 16 17  1  0  0  0  0
 17 26  2  0  0  0  0
 18 19  1  6  0  0  0
 18 27  1  0  0  0  0
 20 21  1  6  0  0  0
 20 29  1  0  0  0  0
 22 23  1  6  0  0  0
 22 30  1  0  0  0  0
 24 25  1  1  0  0  0
 24 31  1  0  0  0  0
 26 33  1  0  0  0  0
 27 28  1  1  0  0  0
 27 34  1  0  0  0  0
 29  2  1  6  0  0  0
 29 36  1  0  0  0  0
 30 38  1  6  0  0  0
 31 32  1  6  0  0  0
 31 40  1  0  0  0  0
 33 42  2  0  0  0  0
 34 35  1  0  0  0  0
 34 43  1  6  0  0  0
 36 37  1  6  0  0  0
 36 45  1  0  0  0  0
 38 39  1  0  0  0  0
 40 41  1  0  0  0  0
 40 48  1  6  0  0  0
 43 44  1  0  0  0  0
 45 46  1  1  0  0  0
 47 50  1  0  0  0  0
 48 49  1  0  0  0  0
 50 51  1  0  0  0  0
 51 52  1  0  0  0  0
 52  8  1  0  0  0  0
M  END
>  <CHROM.1>
172.12583750,-73.28205987,-80.94834130,54.71538438,-173.73075889,-66.16595679
-168.90830362,-51.06972098,-174.89473780,-178.62374962,72.08550940,-76.74957427
-89.61648866,109.11553077,150.22904539,42.17039988,-2.11669706,-5.52962681
2.01530637,0.65899594,2.81086582

>  <Name>
2be0_lig

>  <RI>
0

>  <Rbt.Current_Directory>
/home/itssahil/PROJECTS/Mol_Feturizer/New_Systems/rnas/2be0

>  <Rbt.Executable>
rbdock ($Id: //depot/dev/client3/rdock/2013.1/src/exe/rbdock.cxx#4 $)

>  <Rbt.Library>
libRbt.so (2013.1, Build901 2013/11/27)

>  <Rbt.Parameter_File>
/export/apps/rDock/src/rDock_2013.1_src/data/scripts/dock_solv.prm

>  <Rbt.Receptor>
prm/pocket_docking_7.prm

>  <SCORE>
-21.3248

>  <SCORE.INTER>
-2.87128

>  <SCORE.INTER.CONST>
1

>  <SCORE.INTER.POLAR>
-0.894427

>  <SCORE.INTER.ROT>
15

>  <SCORE.INTER.SOLV>
6.99763

>  <SCORE.INTER.VDW>
-14.8653

>  <SCORE.INTER.norm>
-0.0552169

>  <SCORE.INTRA>
-18.4536

>  <SCORE.INTRA.DIHEDRAL>
-38.8948

>  <SCORE.INTRA.DIHEDRAL.0>
47.8724

>  <SCORE.INTRA.POLAR>
0

>  <SCORE.INTRA.POLAR.0>
0

>  <SCORE.INTRA.REPUL>
0

>  <SCORE.INTRA.REPUL.0>
0

>  <SCORE.INTRA.SOLV>
-0.386736

>  <SCORE.INTRA.SOLV.lig_0>
-115.677

>  <SCORE.INTRA.VDW>
1.1872

>  <SCORE.INTRA.VDW.0>
-7.4833

>  <SCORE.INTRA.norm>
-0.354876

>  <SCORE.RESTR>
0

>  <SCORE.RESTR.CAVITY>
0

>  <SCORE.RESTR.norm>
0

>  <SCORE.SYSTEM>
0

>  <SCORE.SYSTEM.CONST>
0

>  <SCORE.SYSTEM.DIHEDRAL>
0

>  <SCORE.SYSTEM.SOLV>
0

>  <SCORE.SYSTEM.norm>
0

>  <SCORE.heavy>
52

>  <SCORE.norm>
-0.410093

>  <RMSD>
11.456

$$$$
2be0_lig
 OpenBabel11021811423D
libRbt.so/2013.1/901 2013/11/27
 52 56  0  0  0  0  0  0  0  0999 V2000
   37.4715   -1.4902   -6.0653 C   0  0  2  0  0  0  0  0  0  0  0  0
   36.1325   -1.1602   -5.7808 O   0  0  0  0  0  0  0  0  0  0  0  0
   34.4484    0.9641   -2.3134 C   0  0  2  0  0  0  0  0  0  0  0  0
   34.0108    1.2239   -0.9133 N   0  0  0  0  0  0  0  0  0  0  0  0
   38.7689    1.1957   -3.8146 C   0  0  2  0  0  0  0  0  0  0  0  0
   38.5491    2.2895   -4.7288 O   0  0  0  0  0  0  0  0  0  0  0  0
   42.2106   -0.4372   -6.3904 C   0  0  1  0  0  0  0  0  0  0  0  0
   43.7178    7.1194   -1.5542 C   0  0  0  0  0  0  0  0  0  0  0  0
   37.6362   -1.9770   -7.5625 C   0  0  2  0  0  0  0  0  0  0  0  0
   37.0917   -0.9687   -8.4742 N   0  0  0  0  0  0  0  0  0  0  0  0
   33.7223   -0.3515   -2.8524 C   0  0  0  0  0  0  0  0  0  0  0  0
   40.1989    0.6905   -4.0639 C   0  0  2  0  0  0  0  0  0  0  0  0
   41.0405    1.5909   -3.2165 O   0  0  0  0  0  0  0  0  0  0  0  0
   42.6922   -0.9282   -4.9179 C   0  0  2  0  0  0  0  0  0  0  0  0
   43.5775    0.1259   -4.3257 N   0  0  0  0  0  0  0  0  0  0  0  0
   43.5745    7.9365   -2.7233 C   0  0  0  0  0  0  0  0  0  0  0  0
   43.5733    9.3504   -2.5972 N   0  0  0  0  0  0  0  0  0  0  0  0
   36.9250   -3.3969   -7.7472 C   0  0  1  0  0  0  0  0  0  0  0  0
   37.0774   -3.8114   -9.0959 O   0  0  0  0  0  0  0  0  0  0  0  0
   34.1872   -0.6801   -4.3840 C   0  0  2  0  0  0  0  0  0  0  0  0
   33.5391   -1.8606   -4.8816 N   0  0  0  0  0  0  0  0  0  0  0  0
   40.2339    0.8298   -5.5976 C   0  0  2  0  0  0  0  0  0  0  0  0
   41.5110    0.8083   -6.2182 O   0  0  0  0  0  0  0  0  0  0  0  0
   43.4643   -2.2710   -5.0903 C   0  0  1  0  0  0  0  0  0  0  0  0
   42.5011   -3.2283   -5.6588 O   0  0  0  0  0  0  0  0  0  0  0  0
   43.7076   10.0174   -1.3462 C   0  0  0  0  0  0  0  0  0  0  0  0
   37.5702   -4.4068   -6.7542 C   0  0  2  0  0  0  0  0  0  0  0  0
   36.9464   -5.7466   -6.8765 O   0  0  0  0  0  0  0  0  0  0  0  0
   35.7585   -0.8743   -4.4385 C   0  0  2  0  0  0  0  0  0  0  0  0
   39.4332    2.1282   -5.8570 C   0  0  1  0  0  0  0  0  0  0  0  0
   44.7363   -2.0581   -6.0816 C   0  0  2  0  0  0  0  0  0  0  0  0
   45.7032   -1.1021   -5.5200 O   0  0  0  0  0  0  0  0  0  0  0  0
   43.8536    9.2624   -0.1564 C   0  0  0  0  0  0  0  0  0  0  0  0
   37.3964   -3.9045   -5.2693 C   0  0  2  0  0  0  0  0  0  0  0  0
   38.0215   -2.5926   -5.2154 O   0  0  0  0  0  0  0  0  0  0  0  0
   36.4209    0.4371   -3.8903 C   0  0  2  0  0  0  0  0  0  0  0  0
   37.8115    0.1575   -3.9966 O   0  0  0  0  0  0  0  0  0  0  0  0
   38.5535    2.0314   -7.1024 C   0  0  0  0  0  0  0  0  0  0  0  0
   39.2409    1.8447   -8.3164 O   0  0  0  0  0  0  0  0  0  0  0  0
   44.2223   -1.5298   -7.4993 C   0  0  1  0  0  0  0  0  0  0  0  0
   43.4391   -0.2518   -7.2805 O   0  0  0  0  0  0  0  0  0  0  0  0
   43.8602    7.7832   -0.2343 C   0  0  0  0  0  0  0  0  0  0  0  0
   38.0423   -4.8852   -4.3820 C   0  0  0  0  0  0  0  0  0  0  0  0
   38.0045   -4.4383   -3.1205 O   0  0  0  0  0  0  0  0  0  0  0  0
   35.9722    0.7088   -2.3929 C   0  0  1  0  0  0  0  0  0  0  0  0
   36.5589    1.8787   -1.9256 O   0  0  0  0  0  0  0  0  0  0  0  0
   41.2226    3.0570   -3.3342 C   0  0  0  0  0  0  0  0  0  0  0  0
   45.4753   -1.3351   -8.3958 C   0  0  0  0  0  0  0  0  0  0  0  0
   46.2397   -0.1936   -7.9583 N   0  0  0  0  0  0  0  0  0  0  0  0
   42.2397    3.4745   -2.2672 C   0  0  0  0  0  0  0  0  0  0  0  0
   42.3675    4.9679   -2.2571 N   0  0  0  0  0  0  0  0  0  0  0  0
   43.7171    5.5224   -1.7268 C   0  0  0  0  0  0  0  0  0  0  0  0
  1  2  1  1  0  0  0
  1  9  1  0  0  0  0
  1 35  1  0  0  0  0
  3  4  1  1  0  0  0
  3 11  1  0  0  0  0
  3 45  1  0  0  0  0
  5  6  1  0  0  0  0
  5 12  1  0  0  0  0
  5 37  1  6  0  0  0
  6 30  1  0  0  0  0
  7 14  1  0  0  0  0
  7 41  1  0  0  0  0
  7 23  1  1  0  0  0
  8 16  2  0  0  0  0
  8 42  1  0  0  0  0
  9 10  1  6  0  0  0
  9 18  1  0  0  0  0
 11 20  1  0  0  0  0
 12 13  1  1  0  0  0
 12 22  1  0  0  0  0
 13 47  1  0  0  0  0
 14 15  1  6  0  0  0
 14 24  1  0  0  0  0
 16 17  1  0  0  0  0
 17 26  2  0  0  0  0
 18 19  1  6  0  0  0
 18 27  1  0  0  0  0
 20 21  1  1  0  0  0
 20 29  1  0  0  0  0
 22 23  1  1  0  0  0
 22 30  1  0  0  0  0
 24 25  1  6  0  0  0
 24 31  1  0  0  0  0
 26 33  1  0  0  0  0
 27 28  1  1  0  0  0
 27 34  1  0  0  0  0
 29  2  1  6  0  0  0
 29 36  1  0  0  0  0
 30 38  1  6  0  0  0
 31 32  1  1  0  0  0
 31 40  1  0  0  0  0
 33 42  2  0  0  0  0
 34 35  1  0  0  0  0
 34 43  1  1  0  0  0
 36 37  1  1  0  0  0
 36 45  1  0  0  0  0
 38 39  1  0  0  0  0
 40 41  1  0  0  0  0
 40 48  1  6  0  0  0
 43 44  1  0  0  0  0
 45 46  1  6  0  0  0
 47 50  1  0  0  0  0
 48 49  1  0  0  0  0
 50 51  1  0  0  0  0
 51 52  1  0  0  0  0
 52  8  1  0  0  0  0
M  END
>  <CHROM.1>
171.63436284,-56.99919258,-70.58929201,-63.31064830,-177.20307141,76.75521821
-174.45667505,-178.89232444,175.24221399,168.95775150,-71.65866910,-174.81355035
-154.65859812,-172.18533516,-64.33438305,39.86894728,0.52231813,-4.74673859
2.19674774,-0.24248495,-2.60738745

>  <Name>
2be0_lig

>  <RI>
3.37048e+07

>  <Rbt.Current_Directory>
/home/itssahil/PROJECTS/Mol_Feturizer/New_Systems/rnas/2be0

>  <Rbt.Executable>
rbdock ($Id: //depot/dev/client3/rdock/2013.1/src/exe/rbdock.cxx#4 $)

>  <Rbt.Library>
libRbt.so (2013.1, Build901 2013/11/27)

>  <Rbt.Parameter_File>
/export/apps/rDock/src/rDock_2013.1_src/data/scripts/dock_solv.prm

>  <Rbt.Receptor>
prm/pocket_docking_8.prm

>  <SCORE>
-23.4804

>  <SCORE.INTER>
-3.88466

>  <SCORE.INTER.CONST>
1

>  <SCORE.INTER.POLAR>
-0.979796

>  <SCORE.INTER.ROT>
15

>  <SCORE.INTER.SOLV>
9.5505

>  <SCORE.INTER.VDW>
-16.1073

>  <SCORE.INTER.norm>
-0.0747051

>  <SCORE.INTRA>
-19.5958

>  <SCORE.INTRA.DIHEDRAL>
-42.4494

>  <SCORE.INTRA.DIHEDRAL.0>
47.8724

>  <SCORE.INTRA.POLAR>
0

>  <SCORE.INTRA.POLAR.0>
0

>  <SCORE.INTRA.REPUL>
0

>  <SCORE.INTRA.REPUL.0>
0

>  <SCORE.INTRA.SOLV>
0.473412

>  <SCORE.INTRA.SOLV.lig_0>
-115.677

>  <SCORE.INTRA.VDW>
1.39223

>  <SCORE.INTRA.VDW.0>
-7.4833

>  <SCORE.INTRA.norm>
-0.376842

>  <SCORE.RESTR>
0

>  <SCORE.RESTR.CAVITY>
0

>  <SCORE.RESTR.norm>
0

>  <SCORE.SYSTEM>
0

>  <SCORE.SYSTEM.CONST>
0

>  <SCORE.SYSTEM.DIHEDRAL>
0

>  <SCORE.SYSTEM.SOLV>
0

>  <SCORE.SYSTEM.norm>
0

>  <SCORE.heavy>
52

>  <SCORE.norm>
-0.451547

>  <RMSD>
11.886

$$$$
2be0_lig
 OpenBabel11021811423D
libRbt.so/2013.1/901 2013/11/27
 52 56  0  0  0  0  0  0  0  0999 V2000
   37.9518   -1.4347   -5.3326 C   0  0  2  0  0  0  0  0  0  0  0  0
   39.1718   -1.8118   -4.7392 O   0  0  0  0  0  0  0  0  0  0  0  0
   43.2916   -1.1200   -6.1247 C   0  0  2  0  0  0  0  0  0  0  0  0
   44.5283   -1.2480   -6.9455 N   0  0  0  0  0  0  0  0  0  0  0  0
   39.5214    1.3191   -7.1972 C   0  0  2  0  0  0  0  0  0  0  0  0
   38.1346    1.6889   -7.3405 O   0  0  0  0  0  0  0  0  0  0  0  0
   40.3171    1.3820  -11.6126 C   0  0  1  0  0  0  0  0  0  0  0  0
   44.4553    5.1050   -9.3986 C   0  0  0  0  0  0  0  0  0  0  0  0
   36.7839   -1.3925   -4.2649 C   0  0  2  0  0  0  0  0  0  0  0  0
   37.1655   -0.5269   -3.1470 N   0  0  0  0  0  0  0  0  0  0  0  0
   42.8877   -2.5577   -5.5606 C   0  0  0  0  0  0  0  0  0  0  0  0
   40.2009    1.6182   -8.5431 C   0  0  2  0  0  0  0  0  0  0  0  0
   40.5585    3.0669   -8.4397 O   0  0  0  0  0  0  0  0  0  0  0  0
   40.2489    2.3649  -12.9051 C   0  0  2  0  0  0  0  0  0  0  0  0
   39.0039    2.0547  -13.6794 N   0  0  0  0  0  0  0  0  0  0  0  0
   45.5159    4.2000   -9.0654 C   0  0  0  0  0  0  0  0  0  0  0  0
   46.1513    3.4530  -10.0917 N   0  0  0  0  0  0  0  0  0  0  0  0
   36.4433   -2.8781   -3.7821 C   0  0  1  0  0  0  0  0  0  0  0  0
   35.4007   -2.8176   -2.8211 O   0  0  0  0  0  0  0  0  0  0  0  0
   41.5247   -2.4630   -4.6644 C   0  0  2  0  0  0  0  0  0  0  0  0
   41.1516   -3.7501   -4.1489 N   0  0  0  0  0  0  0  0  0  0  0  0
   39.0647    1.1755   -9.4842 C   0  0  2  0  0  0  0  0  0  0  0  0
   39.1326    1.6203  -10.8311 O   0  0  0  0  0  0  0  0  0  0  0  0
   41.5203    2.1079  -13.7691 C   0  0  1  0  0  0  0  0  0  0  0  0
   42.6711    2.4584  -12.9204 O   0  0  0  0  0  0  0  0  0  0  0  0
   45.7846    3.5532  -11.4641 C   0  0  0  0  0  0  0  0  0  0  0  0
   36.0374   -3.7220   -5.0251 C   0  0  2  0  0  0  0  0  0  0  0  0
   35.7125   -5.1166   -4.6394 O   0  0  0  0  0  0  0  0  0  0  0  0
   40.3428   -1.8807   -5.5438 C   0  0  2  0  0  0  0  0  0  0  0  0
   37.7864    1.6279   -8.7390 C   0  0  1  0  0  0  0  0  0  0  0  0
   41.5783    0.5470  -14.2229 C   0  0  2  0  0  0  0  0  0  0  0  0
   40.4308    0.1894  -15.0713 O   0  0  0  0  0  0  0  0  0  0  0  0
   44.7440    4.4320  -11.8538 C   0  0  0  0  0  0  0  0  0  0  0  0
   37.2126   -3.7516   -6.0766 C   0  0  2  0  0  0  0  0  0  0  0  0
   37.4855   -2.3627   -6.4103 O   0  0  0  0  0  0  0  0  0  0  0  0
   40.7935   -0.4779   -6.0805 C   0  0  2  0  0  0  0  0  0  0  0  0
   39.6659   -0.0504   -6.8349 O   0  0  0  0  0  0  0  0  0  0  0  0
   36.6469    0.6189   -8.8709 C   0  0  0  0  0  0  0  0  0  0  0  0
   35.4804    0.9242   -8.1448 O   0  0  0  0  0  0  0  0  0  0  0  0
   41.5949   -0.3836  -12.9242 C   0  0  1  0  0  0  0  0  0  0  0  0
   40.3693   -0.0684  -12.0916 O   0  0  0  0  0  0  0  0  0  0  0  0
   44.0486    5.2334  -10.8202 C   0  0  0  0  0  0  0  0  0  0  0  0
   36.7637   -4.5426   -7.2337 C   0  0  0  0  0  0  0  0  0  0  0  0
   36.6628   -5.8305   -6.8817 O   0  0  0  0  0  0  0  0  0  0  0  0
   42.1003   -0.6109   -6.9703 C   0  0  1  0  0  0  0  0  0  0  0  0
   42.4925    0.6409   -7.4293 O   0  0  0  0  0  0  0  0  0  0  0  0
   41.2315    3.9207   -9.4469 C   0  0  0  0  0  0  0  0  0  0  0  0
   41.6390   -1.8554  -13.4174 C   0  0  0  0  0  0  0  0  0  0  0  0
   41.7380   -2.7620  -12.3007 N   0  0  0  0  0  0  0  0  0  0  0  0
   41.3279    5.3303   -8.8544 C   0  0  0  0  0  0  0  0  0  0  0  0
   42.3826    5.3529   -7.7896 N   0  0  0  0  0  0  0  0  0  0  0  0
   43.7554    5.9384   -8.2171 C   0  0  0  0  0  0  0  0  0  0  0  0
  1  2  1  1  0  0  0
  1  9  1  0  0  0  0
  1 35  1  0  0  0  0
  3  4  1  6  0  0  0
  3 11  1  0  0  0  0
  3 45  1  0  0  0  0
  5  6  1  0  0  0  0
  5 12  1  0  0  0  0
  5 37  1  6  0  0  0
  6 30  1  0  0  0  0
  7 14  1  0  0  0  0
  7 41  1  0  0  0  0
  7 23  1  1  0  0  0
  8 16  2  0  0  0  0
  8 42  1  0  0  0  0
  9 10  1  1  0  0  0
  9 18  1  0  0  0  0
 11 20  1  0  0  0  0
 12 13  1  1  0  0  0
 12 22  1  0  0  0  0
 13 47  1  0  0  0  0
 14 15  1  6  0  0  0
 14 24  1  0  0  0  0
 16 17  1  0  0  0  0
 17 26  2  0  0  0  0
 18 19  1  1  0  0  0
 18 27  1  0  0  0  0
 20 21  1  6  0  0  0
 20 29  1  0  0  0  0
 22 23  1  6  0  0  0
 22 30  1  0  0  0  0
 24 25  1  1  0  0  0
 24 31  1  0  0  0  0
 26 33  1  0  0  0  0
 27 28  1  1  0  0  0
 27 34  1  0  0  0  0
 29  2  1  1  0  0  0
 29 36  1  0  0  0  0
 30 38  1  1  0  0  0
 31 32  1  6  0  0  0
 31 40  1  0  0  0  0
 33 42  2  0  0  0  0
 34 35  1  0  0  0  0
 34 43  1  6  0  0  0
 36 37  1  6  0  0  0
 36 45  1  0  0  0  0
 38 39  1  0  0  0  0
 40 41  1  0  0  0  0
 40 48  1  6  0  0  0
 43 44  1  0  0  0  0
 45 46  1  1  0  0  0
 47 50  1  0  0  0  0
 48 49  1  0  0  0  0
 50 51  1  0  0  0  0
 51 52  1  0  0  0  0
 52  8  1  0  0  0  0
M  END
>  <CHROM.1>
-178.88555208,-151.55925715,-163.71788648,-179.52515438,178.65533456,53.68986649
-174.43055705,59.76687664,-69.40091965,163.23761190,176.53008262,73.69000048
100.31295266,-61.70407748,-101.74262077,40.27938722,0.26918415,-8.44915592
-2.37589715,-0.74066341,-1.42627126

>  <Name>
2be0_lig

>  <RI>
3.37048e+07

>  <Rbt.Current_Directory>
/home/itssahil/PROJECTS/Mol_Feturizer/New_Systems/rnas/2be0

>  <Rbt.Executable>
rbdock ($Id: //depot/dev/client3/rdock/2013.1/src/exe/rbdock.cxx#4 $)

>  <Rbt.Library>
libRbt.so (2013.1, Build901 2013/11/27)

>  <Rbt.Parameter_File>
/export/apps/rDock/src/rDock_2013.1_src/data/scripts/dock_solv.prm

>  <Rbt.Receptor>
prm/pocket_docking_8.prm

>  <SCORE>
-19.1907

>  <SCORE.INTER>
0.385748

>  <SCORE.INTER.CONST>
1

>  <SCORE.INTER.POLAR>
0

>  <SCORE.INTER.ROT>
15

>  <SCORE.INTER.SOLV>
7.47151

>  <SCORE.INTER.VDW>
-15.8333

>  <SCORE.INTER.norm>
0.00741822

>  <SCORE.INTRA>
-19.5764

>  <SCORE.INTRA.DIHEDRAL>
-38.5155

>  <SCORE.INTRA.DIHEDRAL.0>
47.8724

>  <SCORE.INTRA.POLAR>
0

>  <SCORE.INTRA.POLAR.0>
0

>  <SCORE.INTRA.REPUL>
0

>  <SCORE.INTRA.REPUL.0>
0

>  <SCORE.INTRA.SOLV>
-4.00457

>  <SCORE.INTRA.SOLV.lig_0>
-115.677

>  <SCORE.INTRA.VDW>
1.68359

>  <SCORE.INTRA.VDW.0>
-7.4833

>  <SCORE.INTRA.norm>
-0.37647

>  <SCORE.RESTR>
0

>  <SCORE.RESTR.CAVITY>
0

>  <SCORE.RESTR.norm>
0

>  <SCORE.SYSTEM>
0

>  <SCORE.SYSTEM.CONST>
0

>  <SCORE.SYSTEM.DIHEDRAL>
0

>  <SCORE.SYSTEM.SOLV>
0

>  <SCORE.SYSTEM.norm>
0

>  <SCORE.heavy>
52

>  <SCORE.norm>
-0.369052

>  <RMSD>
12.002

$$$$
2be0_lig
 OpenBabel11021811423D
libRbt.so/2013.1/901 2013/11/27
 52 56  0  0  0  0  0  0  0  0999 V2000
   37.4519   -2.8352   -5.5089 C   0  0  2  0  0  0  0  0  0  0  0  0
   36.6812   -2.6884   -6.6783 O   0  0  0  0  0  0  0  0  0  0  0  0
   35.7452    0.9020   -9.0455 C   0  0  2  0  0  0  0  0  0  0  0  0
   35.1576    2.2230   -9.4049 N   0  0  0  0  0  0  0  0  0  0  0  0
   39.3061    0.4614   -6.3020 C   0  0  2  0  0  0  0  0  0  0  0  0
   40.0921    0.2567   -7.4939 O   0  0  0  0  0  0  0  0  0  0  0  0
   43.3019   -0.5967   -5.0523 C   0  0  1  0  0  0  0  0  0  0  0  0
   43.0807    5.5885   -0.7430 C   0  0  0  0  0  0  0  0  0  0  0  0
   38.0891   -4.2816   -5.4201 C   0  0  2  0  0  0  0  0  0  0  0  0
   38.8463   -4.5652   -6.6411 N   0  0  0  0  0  0  0  0  0  0  0  0
   34.5694   -0.1036   -8.6524 C   0  0  0  0  0  0  0  0  0  0  0  0
   40.2166    0.1307   -5.1087 C   0  0  2  0  0  0  0  0  0  0  0  0
   40.9517    1.4103   -4.8648 O   0  0  0  0  0  0  0  0  0  0  0  0
   44.1080   -0.8261   -6.4448 C   0  0  2  0  0  0  0  0  0  0  0  0
   44.5218   -2.2639   -6.5292 N   0  0  0  0  0  0  0  0  0  0  0  0
   44.3294    6.2073   -0.4073 C   0  0  0  0  0  0  0  0  0  0  0  0
   44.6127    6.5311    0.9454 N   0  0  0  0  0  0  0  0  0  0  0  0
   36.9379   -5.3613   -5.1658 C   0  0  1  0  0  0  0  0  0  0  0  0
   37.5283   -6.6500   -5.0971 O   0  0  0  0  0  0  0  0  0  0  0  0
   35.1743   -1.5635   -8.2369 C   0  0  2  0  0  0  0  0  0  0  0  0
   34.1259   -2.4784   -7.8830 N   0  0  0  0  0  0  0  0  0  0  0  0
   40.9609   -1.0774   -5.7081 C   0  0  2  0  0  0  0  0  0  0  0  0
   42.1636   -1.4768   -5.0672 O   0  0  0  0  0  0  0  0  0  0  0  0
   45.3527    0.1118   -6.4370 C   0  0  1  0  0  0  0  0  0  0  0  0
   44.8304    1.4866   -6.3690 O   0  0  0  0  0  0  0  0  0  0  0  0
   43.7046    6.2715    2.0113 C   0  0  0  0  0  0  0  0  0  0  0  0
   36.1957   -4.9930   -3.8483 C   0  0  2  0  0  0  0  0  0  0  0  0
   35.1094   -5.9604   -3.5603 O   0  0  0  0  0  0  0  0  0  0  0  0
   36.1733   -1.4039   -7.0178 C   0  0  2  0  0  0  0  0  0  0  0  0
   41.1435   -0.6840   -7.1933 C   0  0  1  0  0  0  0  0  0  0  0  0
   46.2939   -0.2236   -5.1534 C   0  0  2  0  0  0  0  0  0  0  0  0
   46.8194   -1.5964   -5.2145 O   0  0  0  0  0  0  0  0  0  0  0  0
   42.4553    5.6606    1.7406 C   0  0  0  0  0  0  0  0  0  0  0  0
   35.5688   -3.5497   -3.9559 C   0  0  2  0  0  0  0  0  0  0  0  0
   36.6772   -2.6527   -4.2414 O   0  0  0  0  0  0  0  0  0  0  0  0
   37.2988   -0.4016   -7.4511 C   0  0  2  0  0  0  0  0  0  0  0  0
   38.1330   -0.3457   -6.3004 O   0  0  0  0  0  0  0  0  0  0  0  0
   40.9625   -1.8715   -8.1373 C   0  0  0  0  0  0  0  0  0  0  0  0
   41.9416   -2.8780   -8.0392 O   0  0  0  0  0  0  0  0  0  0  0  0
   45.4491   -0.0325   -3.8108 C   0  0  1  0  0  0  0  0  0  0  0  0
   44.2271   -0.9249   -3.8810 O   0  0  0  0  0  0  0  0  0  0  0  0
   42.1116    5.3039    0.3446 C   0  0  0  0  0  0  0  0  0  0  0  0
   34.9020   -3.2503   -2.6785 C   0  0  0  0  0  0  0  0  0  0  0  0
   34.3506   -2.0316   -2.7380 O   0  0  0  0  0  0  0  0  0  0  0  0
   36.6800    1.0126   -7.8178 C   0  0  1  0  0  0  0  0  0  0  0  0
   37.6881    1.8856   -8.2092 O   0  0  0  0  0  0  0  0  0  0  0  0
   41.8395    1.7573   -3.7300 C   0  0  0  0  0  0  0  0  0  0  0  0
   46.3917   -0.3758   -2.6253 C   0  0  0  0  0  0  0  0  0  0  0  0
   47.3854    0.6544   -2.4524 N   0  0  0  0  0  0  0  0  0  0  0  0
   42.1082    3.2636   -3.8089 C   0  0  0  0  0  0  0  0  0  0  0  0
   42.8286    3.7073   -2.5717 N   0  0  0  0  0  0  0  0  0  0  0  0
   42.7877    5.2319   -2.2816 C   0  0  0  0  0  0  0  0  0  0  0  0
  1  2  1  6  0  0  0
  1  9  1  0  0  0  0
  1 35  1  0  0  0  0
  3  4  1  1  0  0  0
  3 11  1  0  0  0  0
  3 45  1  0  0  0  0
  5  6  1  0  0  0  0
  5 12  1  0  0  0  0
  5 37  1  6  0  0  0
  6 30  1  0  0  0  0
  7 14  1  0  0  0  0
  7 41  1  0  0  0  0
  7 23  1  6  0  0  0
  8 16  2  0  0  0  0
  8 42  1  0  0  0  0
  9 10  1  6  0  0  0
  9 18  1  0  0  0  0
 11 20  1  0  0  0  0
 12 13  1  6  0  0  0
 12 22  1  0  0  0  0
 13 47  1  0  0  0  0
 14 15  1  1  0  0  0
 14 24  1  0  0  0  0
 16 17  1  0  0  0  0
 17 26  2  0  0  0  0
 18 19  1  1  0  0  0
 18 27  1  0  0  0  0
 20 21  1  1  0  0  0
 20 29  1  0  0  0  0
 22 23  1  1  0  0  0
 22 30  1  0  0  0  0
 24 25  1  1  0  0  0
 24 31  1  0  0  0  0
 26 33  1  0  0  0  0
 27 28  1  6  0  0  0
 27 34  1  0  0  0  0
 29  2  1  6  0  0  0
 29 36  1  0  0  0  0
 30 38  1  6  0  0  0
 31 32  1  6  0  0  0
 31 40  1  0  0  0  0
 33 42  2  0  0  0  0
 34 35  1  0  0  0  0
 34 43  1  1  0  0  0
 36 37  1  1  0  0  0
 36 45  1  0  0  0  0
 38 39  1  0  0  0  0
 40 41  1  0  0  0  0
 40 48  1  1  0  0  0
 43 44  1  0  0  0  0
 45 46  1  6  0  0  0
 47 50  1  0  0  0  0
 48 49  1  0  0  0  0
 50 51  1  0  0  0  0
 51 52  1  0  0  0  0
 52  8  1  0  0  0  0
M  END
>  <CHROM.1>
-171.89941036,-47.61502784,-84.69067060,171.19109580,-168.82505551,-64.65407394
-171.50583184,177.09822801,-179.65365038,179.02649179,71.64496225,171.47762476
-161.71119359,159.01707786,108.54807458,40.27266520,-0.26235171,-4.96029197
2.41984292,0.03009028,-2.55335900

>  <Name>
2be0_lig

>  <RI>
0

>  <Rbt.Current_Directory>
/home/itssahil/PROJECTS/Mol_Feturizer/New_Systems/rnas/2be0

>  <Rbt.Executable>
rbdock ($Id: //depot/dev/client3/rdock/2013.1/src/exe/rbdock.cxx#4 $)

>  <Rbt.Library>
libRbt.so (2013.1, Build901 2013/11/27)

>  <Rbt.Parameter_File>
/export/apps/rDock/src/rDock_2013.1_src/data/scripts/dock_solv.prm

>  <Rbt.Receptor>
prm/pocket_docking_7.prm

>  <SCORE>
-14.394

>  <SCORE.INTER>
5.06315

>  <SCORE.INTER.CONST>
1

>  <SCORE.INTER.POLAR>
0

>  <SCORE.INTER.ROT>
15

>  <SCORE.INTER.SOLV>
14.2552

>  <SCORE.INTER.VDW>
-14.9763

>  <SCORE.INTER.norm>
0.0973683

>  <SCORE.INTRA>
-19.4691

>  <SCORE.INTRA.DIHEDRAL>
-40.2574

>  <SCORE.INTRA.DIHEDRAL.0>
47.8724

>  <SCORE.INTRA.POLAR>
0

>  <SCORE.INTRA.POLAR.0>
0

>  <SCORE.INTRA.REPUL>
0

>  <SCORE.INTRA.REPUL.0>
0

>  <SCORE.INTRA.SOLV>
-1.01575

>  <SCORE.INTRA.SOLV.lig_0>
-115.677

>  <SCORE.INTRA.VDW>
1.1675

>  <SCORE.INTRA.VDW.0>
-7.4833

>  <SCORE.INTRA.norm>
-0.374405

>  <SCORE.RESTR>
0.011887

>  <SCORE.RESTR.CAVITY>
0.011887

>  <SCORE.RESTR.norm>
0.000228595

>  <SCORE.SYSTEM>
0

>  <SCORE.SYSTEM.CONST>
0

>  <SCORE.SYSTEM.DIHEDRAL>
0

>  <SCORE.SYSTEM.SOLV>
0

>  <SCORE.SYSTEM.norm>
0

>  <SCORE.heavy>
52

>  <SCORE.norm>
-0.276808

>  <RMSD>
12.009

$$$$
2be0_lig
 OpenBabel11021811423D
libRbt.so/2013.1/901 2013/11/27
 52 56  0  0  0  0  0  0  0  0999 V2000
   29.8794   20.3051   -6.3232 C   0  0  2  0  0  0  0  0  0  0  0  0
   28.6363   20.5837   -5.7233 O   0  0  0  0  0  0  0  0  0  0  0  0
   26.1124   22.0645   -9.0109 C   0  0  2  0  0  0  0  0  0  0  0  0
   24.9274   22.2185   -9.9005 N   0  0  0  0  0  0  0  0  0  0  0  0
   26.0346   21.6840   -4.4518 C   0  0  2  0  0  0  0  0  0  0  0  0
   25.2435   22.3700   -3.4599 O   0  0  0  0  0  0  0  0  0  0  0  0
   28.4491   21.7941   -0.2988 C   0  0  1  0  0  0  0  0  0  0  0  0
   22.1420   18.7603   -2.6974 C   0  0  0  0  0  0  0  0  0  0  0  0
   30.9895   20.0133   -5.2331 C   0  0  2  0  0  0  0  0  0  0  0  0
   30.5367   18.9463   -4.3381 N   0  0  0  0  0  0  0  0  0  0  0  0
   26.5617   20.5327   -8.9993 C   0  0  0  0  0  0  0  0  0  0  0  0
   26.9665   20.7273   -3.6909 C   0  0  2  0  0  0  0  0  0  0  0  0
   26.1263   19.5061   -3.4911 O   0  0  0  0  0  0  0  0  0  0  0  0
   30.0557   21.5574   -0.3625 C   0  0  2  0  0  0  0  0  0  0  0  0
   30.3340   20.0971   -0.1737 N   0  0  0  0  0  0  0  0  0  0  0  0
   21.1557   17.8552   -2.1847 C   0  0  0  0  0  0  0  0  0  0  0  0
   20.9996   16.5753   -2.7783 N   0  0  0  0  0  0  0  0  0  0  0  0
   31.3279   21.3581   -4.4374 C   0  0  1  0  0  0  0  0  0  0  0  0
   32.3180   21.0737   -3.4613 O   0  0  0  0  0  0  0  0  0  0  0  0
   27.8532   20.3183   -8.0216 C   0  0  2  0  0  0  0  0  0  0  0  0
   28.2689   18.9442   -8.0041 N   0  0  0  0  0  0  0  0  0  0  0  0
   27.3015   21.6309   -2.4892 C   0  0  2  0  0  0  0  0  0  0  0  0
   27.8583   21.0015   -1.3445 O   0  0  0  0  0  0  0  0  0  0  0  0
   30.7087   22.4000    0.7744 C   0  0  1  0  0  0  0  0  0  0  0  0
   30.3870   23.8061    0.4798 O   0  0  0  0  0  0  0  0  0  0  0  0
   21.7843   16.1308   -3.8804 C   0  0  0  0  0  0  0  0  0  0  0  0
   31.8111   22.4291   -5.4580 C   0  0  2  0  0  0  0  0  0  0  0  0
   32.1375   23.7052   -4.7769 O   0  0  0  0  0  0  0  0  0  0  0  0
   27.4961   20.7835   -6.5500 C   0  0  2  0  0  0  0  0  0  0  0  0
   25.9690   22.3674   -2.2132 C   0  0  1  0  0  0  0  0  0  0  0  0
   30.1070   21.9491    2.2168 C   0  0  2  0  0  0  0  0  0  0  0  0
   30.4245   20.5445    2.5179 O   0  0  0  0  0  0  0  0  0  0  0  0
   22.7756   16.9814   -4.4291 C   0  0  0  0  0  0  0  0  0  0  0  0
   30.6928   22.7055   -6.5353 C   0  0  2  0  0  0  0  0  0  0  0  0
   30.4156   21.4227   -7.1619 O   0  0  0  0  0  0  0  0  0  0  0  0
   27.0525   22.2860   -6.6188 C   0  0  2  0  0  0  0  0  0  0  0  0
   26.7723   22.5959   -5.2590 O   0  0  0  0  0  0  0  0  0  0  0  0
   26.1813   23.8278   -1.8180 C   0  0  0  0  0  0  0  0  0  0  0  0
   25.0109   24.6023   -1.7100 O   0  0  0  0  0  0  0  0  0  0  0  0
   28.5223   22.1524    2.2184 C   0  0  1  0  0  0  0  0  0  0  0  0
   27.9346   21.3557    1.0719 O   0  0  0  0  0  0  0  0  0  0  0  0
   22.9772   18.3280   -3.8457 C   0  0  0  0  0  0  0  0  0  0  0  0
   31.2136   23.7059   -7.4809 C   0  0  0  0  0  0  0  0  0  0  0  0
   30.2159   24.1489   -8.2561 O   0  0  0  0  0  0  0  0  0  0  0  0
   25.7794   22.4530   -7.5509 C   0  0  1  0  0  0  0  0  0  0  0  0
   25.4053   23.7902   -7.6097 O   0  0  0  0  0  0  0  0  0  0  0  0
   25.3381   19.1190   -2.2973 C   0  0  0  0  0  0  0  0  0  0  0  0
   28.0047   21.6971    3.6100 C   0  0  0  0  0  0  0  0  0  0  0  0
   26.9859   20.6870    3.4668 N   0  0  0  0  0  0  0  0  0  0  0  0
   24.8454   20.4126   -1.6406 C   0  0  0  0  0  0  0  0  0  0  0  0
   23.6314   20.9093   -2.3660 N   0  0  0  0  0  0  0  0  0  0  0  0
   22.2976   20.2015   -2.0053 C   0  0  0  0  0  0  0  0  0  0  0  0
  1  2  1  1  0  0  0
  1  9  1  0  0  0  0
  1 35  1  0  0  0  0
  3  4  1  6  0  0  0
  3 11  1  0  0  0  0
  3 45  1  0  0  0  0
  5  6  1  0  0  0  0
  5 12  1  0  0  0  0
  5 37  1  1  0  0  0
  6 30  1  0  0  0  0
  7 14  1  0  0  0  0
  7 41  1  0  0  0  0
  7 23  1  6  0  0  0
  8 16  2  0  0  0  0
  8 42  1  0  0  0  0
  9 10  1  1  0  0  0
  9 18  1  0  0  0  0
 11 20  1  0  0  0  0
 12 13  1  1  0  0  0
 12 22  1  0  0  0  0
 13 47  1  0  0  0  0
 14 15  1  1  0  0  0
 14 24  1  0  0  0  0
 16 17  1  0  0  0  0
 17 26  2  0  0  0  0
 18 19  1  1  0  0  0
 18 27  1  0  0  0  0
 20 21  1  1  0  0  0
 20 29  1  0  0  0  0
 22 23  1  1  0  0  0
 22 30  1  0  0  0  0
 24 25  1  6  0  0  0
 24 31  1  0  0  0  0
 26 33  1  0  0  0  0
 27 28  1  1  0  0  0
 27 34  1  0  0  0  0
 29  2  1  1  0  0  0
 29 36  1  0  0  0  0
 30 38  1  6  0  0  0
 31 32  1  6  0  0  0
 31 40  1  0  0  0  0
 33 42  2  0  0  0  0
 34 35  1  0  0  0  0
 34 43  1  6  0  0  0
 36 37  1  1  0  0  0
 36 45  1  0  0  0  0
 38 39  1  0  0  0  0
 40 41  1  0  0  0  0
 40 48  1  1  0  0  0
 43 44  1  0  0  0  0
 45 46  1  6  0  0  0
 47 50  1  0  0  0  0
 48 49  1  0  0  0  0
 50 51  1  0  0  0  0
 51 52  1  0  0  0  0
 52  8  1  0  0  0  0
M  END
>  <CHROM.1>
-175.86047805,-148.29821428,-109.17841218,-97.07760179,32.16169123,167.18153033
12.51756844,56.34376155,-168.57105938,-44.13359071,-124.60967824,80.79566925
79.63701853,-77.47629363,163.50862477,27.41830881,21.15848948,-3.52718455
-1.59766018,0.38932389,1.62004838

>  <Name>
2be0_lig

>  <RI>
0

>  <Rbt.Current_Directory>
/home/itssahil/PROJECTS/Mol_Feturizer/New_Systems/rnas/2be0

>  <Rbt.Executable>
rbdock ($Id: //depot/dev/client3/rdock/2013.1/src/exe/rbdock.cxx#4 $)

>  <Rbt.Library>
libRbt.so (2013.1, Build901 2013/11/27)

>  <Rbt.Parameter_File>
/export/apps/rDock/src/rDock_2013.1_src/data/scripts/dock_solv.prm

>  <Rbt.Receptor>
prm/blind_docking_40.prm

>  <SCORE>
37.4625

>  <SCORE.INTER>
0.139803

>  <SCORE.INTER.CONST>
1

>  <SCORE.INTER.POLAR>
-0.123163

>  <SCORE.INTER.ROT>
15

>  <SCORE.INTER.SOLV>
25.2883

>  <SCORE.INTER.VDW>
-21.5257

>  <SCORE.INTER.norm>
0.00268853

>  <SCORE.INTRA>
19.3597

>  <SCORE.INTRA.DIHEDRAL>
-12.4023

>  <SCORE.INTRA.DIHEDRAL.0>
47.8724

>  <SCORE.INTRA.POLAR>
0

>  <SCORE.INTRA.POLAR.0>
0

>  <SCORE.INTRA.REPUL>
0

>  <SCORE.INTRA.REPUL.0>
0

>  <SCORE.INTRA.SOLV>
2.02144

>  <SCORE.INTRA.SOLV.lig_0>
-115.677

>  <SCORE.INTRA.VDW>
24.5501

>  <SCORE.INTRA.VDW.0>
-7.4833

>  <SCORE.INTRA.norm>
0.372302

>  <SCORE.RESTR>
17.963

>  <SCORE.RESTR.CAVITY>
17.963

>  <SCORE.RESTR.norm>
0.345442

>  <SCORE.SYSTEM>
0

>  <SCORE.SYSTEM.CONST>
0

>  <SCORE.SYSTEM.DIHEDRAL>
0

>  <SCORE.SYSTEM.SOLV>
0

>  <SCORE.SYSTEM.norm>
0

>  <SCORE.heavy>
52

>  <SCORE.norm>
0.720432

>  <RMSD>
23.301

$$$$
2be0_lig
 OpenBabel11021811423D
libRbt.so/2013.1/901 2013/11/27
 52 56  0  0  0  0  0  0  0  0999 V2000
   26.2507   22.0707   -6.7550 C   0  0  2  0  0  0  0  0  0  0  0  0
   27.4865   21.4251   -6.9520 O   0  0  0  0  0  0  0  0  0  0  0  0
   31.6621   22.7892   -7.2243 C   0  0  2  0  0  0  0  0  0  0  0  0
   32.8976   23.5693   -6.9334 N   0  0  0  0  0  0  0  0  0  0  0  0
   29.8729   20.7479   -3.8818 C   0  0  2  0  0  0  0  0  0  0  0  0
   30.2663   19.5609   -3.1631 O   0  0  0  0  0  0  0  0  0  0  0  0
   27.6830   20.2568   -0.0966 C   0  0  1  0  0  0  0  0  0  0  0  0
   27.7419   24.1633    0.0807 C   0  0  0  0  0  0  0  0  0  0  0  0
   25.9516   22.2785   -5.2145 C   0  0  2  0  0  0  0  0  0  0  0  0
   27.0696   22.9830   -4.5834 N   0  0  0  0  0  0  0  0  0  0  0  0
   30.4840   23.7979   -7.6025 C   0  0  0  0  0  0  0  0  0  0  0  0
   28.7876   21.4367   -3.0389 C   0  0  2  0  0  0  0  0  0  0  0  0
   29.5706   22.2627   -2.0683 O   0  0  0  0  0  0  0  0  0  0  0  0
   26.9640   18.9842    0.6139 C   0  0  2  0  0  0  0  0  0  0  0  0
   25.4814   19.2024    0.6032 N   0  0  0  0  0  0  0  0  0  0  0  0
   27.5273   23.2743   -1.0231 C   0  0  0  0  0  0  0  0  0  0  0  0
   26.2043   23.0018   -1.4597 N   0  0  0  0  0  0  0  0  0  0  0  0
   25.6711   20.8633   -4.5258 C   0  0  1  0  0  0  0  0  0  0  0  0
   25.4132   21.0706   -3.1458 O   0  0  0  0  0  0  0  0  0  0  0  0
   29.1041   22.9808   -7.9157 C   0  0  2  0  0  0  0  0  0  0  0  0
   28.0365   23.8771   -8.2597 N   0  0  0  0  0  0  0  0  0  0  0  0
   28.0395   20.1828   -2.5479 C   0  0  2  0  0  0  0  0  0  0  0  0
   27.1690   20.3446   -1.4378 O   0  0  0  0  0  0  0  0  0  0  0  0
   27.5014   18.8846    2.0734 C   0  0  1  0  0  0  0  0  0  0  0  0
   28.9515   18.6562    1.9621 O   0  0  0  0  0  0  0  0  0  0  0  0
   25.0526   23.5736   -0.8476 C   0  0  0  0  0  0  0  0  0  0  0  0
   24.4657   20.1922   -5.2461 C   0  0  2  0  0  0  0  0  0  0  0  0
   24.1591   18.8687   -4.6515 O   0  0  0  0  0  0  0  0  0  0  0  0
   28.6893   22.1221   -6.6508 C   0  0  2  0  0  0  0  0  0  0  0  0
   29.1752   19.1594   -2.3094 C   0  0  1  0  0  0  0  0  0  0  0  0
   27.1834   20.2618    2.8785 C   0  0  2  0  0  0  0  0  0  0  0  0
   25.7357   20.4969    2.9933 O   0  0  0  0  0  0  0  0  0  0  0  0
   25.2025   24.4605    0.2469 C   0  0  0  0  0  0  0  0  0  0  0  0
   24.7822   19.9942   -6.7785 C   0  0  2  0  0  0  0  0  0  0  0  0
   25.0767   21.3193   -7.3003 O   0  0  0  0  0  0  0  0  0  0  0  0
   29.8808   21.1592   -6.3159 C   0  0  2  0  0  0  0  0  0  0  0  0
   29.3984   20.4389   -5.1882 O   0  0  0  0  0  0  0  0  0  0  0  0
   28.7808   17.7435   -2.7262 C   0  0  0  0  0  0  0  0  0  0  0  0
   29.5787   17.1633   -3.7303 O   0  0  0  0  0  0  0  0  0  0  0  0
   27.8672   21.4906    2.1201 C   0  0  1  0  0  0  0  0  0  0  0  0
   27.3536   21.5217    0.6954 O   0  0  0  0  0  0  0  0  0  0  0  0
   26.5626   24.7766    0.7412 C   0  0  0  0  0  0  0  0  0  0  0  0
   23.6029   19.3783   -7.4077 C   0  0  0  0  0  0  0  0  0  0  0  0
   23.4010   18.1630   -6.8832 O   0  0  0  0  0  0  0  0  0  0  0  0
   31.1949   21.9857   -5.9876 C   0  0  1  0  0  0  0  0  0  0  0  0
   32.2432   21.1187   -5.7034 O   0  0  0  0  0  0  0  0  0  0  0  0
   30.9066   22.8769   -2.2536 C   0  0  0  0  0  0  0  0  0  0  0  0
   27.5217   22.7733    2.9244 C   0  0  0  0  0  0  0  0  0  0  0  0
   28.6905   23.6022    3.0843 N   0  0  0  0  0  0  0  0  0  0  0  0
   31.1666   23.7716   -1.0374 C   0  0  0  0  0  0  0  0  0  0  0  0
   30.2549   23.3689    0.0822 N   0  0  0  0  0  0  0  0  0  0  0  0
   29.2496   24.4544    0.5524 C   0  0  0  0  0  0  0  0  0  0  0  0
  1  2  1  1  0  0  0
  1  9  1  0  0  0  0
  1 35  1  0  0  0  0
  3  4  1  1  0  0  0
  3 11  1  0  0  0  0
  3 45  1  0  0  0  0
  5  6  1  0  0  0  0
  5 12  1  0  0  0  0
  5 37  1  6  0  0  0
  6 30  1  0  0  0  0
  7 14  1  0  0  0  0
  7 41  1  0  0  0  0
  7 23  1  6  0  0  0
  8 16  2  0  0  0  0
  8 42  1  0  0  0  0
  9 10  1  1  0  0  0
  9 18  1  0  0  0  0
 11 20  1  0  0  0  0
 12 13  1  1  0  0  0
 12 22  1  0  0  0  0
 13 47  1  0  0  0  0
 14 15  1  1  0  0  0
 14 24  1  0  0  0  0
 16 17  1  0  0  0  0
 17 26  2  0  0  0  0
 18 19  1  1  0  0  0
 18 27  1  0  0  0  0
 20 21  1  1  0  0  0
 20 29  1  0  0  0  0
 22 23  1  1  0  0  0
 22 30  1  0  0  0  0
 24 25  1  6  0  0  0
 24 31  1  0  0  0  0
 26 33  1  0  0  0  0
 27 28  1  1  0  0  0
 27 34  1  0  0  0  0
 29  2  1  6  0  0  0
 29 36  1  0  0  0  0
 30 38  1  6  0  0  0
 31 32  1  6  0  0  0
 31 40  1  0  0  0  0
 33 42  2  0  0  0  0
 34 35  1  0  0  0  0
 34 43  1  6  0  0  0
 36 37  1  1  0  0  0
 36 45  1  0  0  0  0
 38 39  1  0  0  0  0
 40 41  1  0  0  0  0
 40 48  1  1  0  0  0
 43 44  1  0  0  0  0
 45 46  1  6  0  0  0
 47 50  1  0  0  0  0
 48 49  1  0  0  0  0
 50 51  1  0  0  0  0
 51 52  1  0  0  0  0
 52  8  1  0  0  0  0
M  END
>  <CHROM.1>
-69.31992770,-131.61642481,-116.97588327,29.51930968,172.37471715,-85.90059114
-85.69714833,3.53067774,-63.58209945,-103.99786912,135.03567252,19.05567458
-117.67725031,106.15043134,-20.21279273,27.86135063,21.38365618,-2.84853928
1.49671116,-0.48347951,-1.62030410

>  <Name>
2be0_lig

>  <RI>
0

>  <Rbt.Current_Directory>
/home/itssahil/PROJECTS/Mol_Feturizer/New_Systems/rnas/2be0

>  <Rbt.Executable>
rbdock ($Id: //depot/dev/client3/rdock/2013.1/src/exe/rbdock.cxx#4 $)

>  <Rbt.Library>
libRbt.so (2013.1, Build901 2013/11/27)

>  <Rbt.Parameter_File>
/export/apps/rDock/src/rDock_2013.1_src/data/scripts/dock_solv.prm

>  <Rbt.Receptor>
prm/blind_docking_40.prm

>  <SCORE>
36.4256

>  <SCORE.INTER>
4.86914

>  <SCORE.INTER.CONST>
1

>  <SCORE.INTER.POLAR>
-0.785019

>  <SCORE.INTER.ROT>
15

>  <SCORE.INTER.SOLV>
21.0335

>  <SCORE.INTER.VDW>
-14.7484

>  <SCORE.INTER.norm>
0.0936373

>  <SCORE.INTRA>
14.5664

>  <SCORE.INTRA.DIHEDRAL>
-1.15367

>  <SCORE.INTRA.DIHEDRAL.0>
47.8724

>  <SCORE.INTRA.POLAR>
0

>  <SCORE.INTRA.POLAR.0>
0

>  <SCORE.INTRA.REPUL>
0.383516

>  <SCORE.INTRA.REPUL.0>
0

>  <SCORE.INTRA.SOLV>
12.9253

>  <SCORE.INTRA.SOLV.lig_0>
-115.677

>  <SCORE.INTRA.VDW>
6.76304

>  <SCORE.INTRA.VDW.0>
-7.4833

>  <SCORE.INTRA.norm>
0.280124

>  <SCORE.RESTR>
16.99

>  <SCORE.RESTR.CAVITY>
16.99

>  <SCORE.RESTR.norm>
0.326731

>  <SCORE.SYSTEM>
0

>  <SCORE.SYSTEM.CONST>
0

>  <SCORE.SYSTEM.DIHEDRAL>
0

>  <SCORE.SYSTEM.SOLV>
0

>  <SCORE.SYSTEM.norm>
0

>  <SCORE.heavy>
52

>  <SCORE.norm>
0.700492

>  <RMSD>
23.520

$$$$
2be0_lig
 OpenBabel11021811423D
libRbt.so/2013.1/901 2013/11/27
 52 56  0  0  0  0  0  0  0  0999 V2000
   28.6170   21.3262   -5.8971 C   0  0  2  0  0  0  0  0  0  0  0  0
   28.5553   20.2776   -6.8349 O   0  0  0  0  0  0  0  0  0  0  0  0
   24.6479   20.9676   -8.7395 C   0  0  2  0  0  0  0  0  0  0  0  0
   23.3930   20.6878   -9.4921 N   0  0  0  0  0  0  0  0  0  0  0  0
   25.1322   19.5458   -4.5559 C   0  0  2  0  0  0  0  0  0  0  0  0
   24.6064   20.8444   -4.2132 O   0  0  0  0  0  0  0  0  0  0  0  0
   27.2103   21.0082   -0.4746 C   0  0  1  0  0  0  0  0  0  0  0  0
   21.8673   18.9367   -1.3387 C   0  0  0  0  0  0  0  0  0  0  0  0
   29.5242   22.5123   -6.4223 C   0  0  2  0  0  0  0  0  0  0  0  0
   29.0535   22.9512   -7.7377 N   0  0  0  0  0  0  0  0  0  0  0  0
   25.9006   20.5719   -9.6464 C   0  0  0  0  0  0  0  0  0  0  0  0
   25.5817   18.8887   -3.2411 C   0  0  2  0  0  0  0  0  0  0  0  0
   24.3285   18.2623   -2.7171 O   0  0  0  0  0  0  0  0  0  0  0  0
   28.7339   20.7501   -0.9781 C   0  0  2  0  0  0  0  0  0  0  0  0
   29.1217   19.3439   -0.6346 N   0  0  0  0  0  0  0  0  0  0  0  0
   22.0057   20.2217   -1.9589 C   0  0  0  0  0  0  0  0  0  0  0  0
   22.8404   21.2035   -1.3637 N   0  0  0  0  0  0  0  0  0  0  0  0
   31.0524   22.0442   -6.4593 C   0  0  1  0  0  0  0  0  0  0  0  0
   31.8468   23.1178   -6.9394 O   0  0  0  0  0  0  0  0  0  0  0  0
   27.2998   20.8509   -8.8501 C   0  0  2  0  0  0  0  0  0  0  0  0
   28.4350   20.5010   -9.6564 N   0  0  0  0  0  0  0  0  0  0  0  0
   26.1652   20.1322   -2.5438 C   0  0  2  0  0  0  0  0  0  0  0  0
   26.3711   20.0481   -1.1413 O   0  0  0  0  0  0  0  0  0  0  0  0
   29.6573   21.7751   -0.2531 C   0  0  1  0  0  0  0  0  0  0  0  0
   29.1990   23.1095   -0.6735 O   0  0  0  0  0  0  0  0  0  0  0  0
   23.5626   20.9790   -0.1570 C   0  0  0  0  0  0  0  0  0  0  0  0
   31.4720   21.6091   -5.0252 C   0  0  2  0  0  0  0  0  0  0  0  0
   32.8846   21.1589   -4.9968 O   0  0  0  0  0  0  0  0  0  0  0  0
   27.3275   20.0163   -7.5039 C   0  0  2  0  0  0  0  0  0  0  0  0
   25.2014   21.2656   -2.9685 C   0  0  1  0  0  0  0  0  0  0  0  0
   29.5343   21.5920    1.3585 C   0  0  2  0  0  0  0  0  0  0  0  0
   29.9903   20.2602    1.7859 O   0  0  0  0  0  0  0  0  0  0  0  0
   23.4658   19.7279    0.5006 C   0  0  0  0  0  0  0  0  0  0  0  0
   30.5571   20.4280   -4.5197 C   0  0  2  0  0  0  0  0  0  0  0  0
   29.1926   20.9278   -4.5742 O   0  0  0  0  0  0  0  0  0  0  0  0
   26.0749   20.4335   -6.6578 C   0  0  2  0  0  0  0  0  0  0  0  0
   26.2084   19.6420   -5.4834 O   0  0  0  0  0  0  0  0  0  0  0  0
   25.9318   22.5786   -3.2455 C   0  0  0  0  0  0  0  0  0  0  0  0
   26.3299   23.3023   -2.1058 O   0  0  0  0  0  0  0  0  0  0  0  0
   28.0145   21.8060    1.8029 C   0  0  1  0  0  0  0  0  0  0  0  0
   27.1484   20.8239    1.0413 O   0  0  0  0  0  0  0  0  0  0  0  0
   22.6068   18.6699   -0.0798 C   0  0  0  0  0  0  0  0  0  0  0  0
   30.9857   20.0760   -3.1564 C   0  0  0  0  0  0  0  0  0  0  0  0
   30.3713   18.9502   -2.7722 O   0  0  0  0  0  0  0  0  0  0  0  0
   24.7348   20.1209   -7.4476 C   0  0  1  0  0  0  0  0  0  0  0  0
   23.6353   20.5054   -6.6895 O   0  0  0  0  0  0  0  0  0  0  0  0
   23.4213   17.3116   -3.4022 C   0  0  0  0  0  0  0  0  0  0  0  0
   27.9567   21.6088    3.3422 C   0  0  0  0  0  0  0  0  0  0  0  0
   26.6897   21.0431    3.7340 N   0  0  0  0  0  0  0  0  0  0  0  0
   22.3723   18.1432   -4.1475 C   0  0  0  0  0  0  0  0  0  0  0  0
   21.0138   17.8531   -3.5846 N   0  0  0  0  0  0  0  0  0  0  0  0
   20.9172   17.8446   -2.0351 C   0  0  0  0  0  0  0  0  0  0  0  0
  1  2  1  6  0  0  0
  1  9  1  0  0  0  0
  1 35  1  0  0  0  0
  3  4  1  6  0  0  0
  3 11  1  0  0  0  0
  3 45  1  0  0  0  0
  5  6  1  0  0  0  0
  5 12  1  0  0  0  0
  5 37  1  6  0  0  0
  6 30  1  0  0  0  0
  7 14  1  0  0  0  0
  7 41  1  0  0  0  0
  7 23  1  6  0  0  0
  8 16  2  0  0  0  0
  8 42  1  0  0  0  0
  9 10  1  6  0  0  0
  9 18  1  0  0  0  0
 11 20  1  0  0  0  0
 12 13  1  1  0  0  0
 12 22  1  0  0  0  0
 13 47  1  0  0  0  0
 14 15  1  1  0  0  0
 14 24  1  0  0  0  0
 16 17  1  0  0  0  0
 17 26  2  0  0  0  0
 18 19  1  1  0  0  0
 18 27  1  0  0  0  0
 20 21  1  6  0  0  0
 20 29  1  0  0  0  0
 22 23  1  1  0  0  0
 22 30  1  0  0  0  0
 24 25  1  1  0  0  0
 24 31  1  0  0  0  0
 26 33  1  0  0  0  0
 27 28  1  6  0  0  0
 27 34  1  0  0  0  0
 29  2  1  1  0  0  0
 29 36  1  0  0  0  0
 30 38  1  6  0  0  0
 31 32  1  6  0  0  0
 31 40  1  0  0  0  0
 33 42  2  0  0  0  0
 34 35  1  0  0  0  0
 34 43  1  1  0  0  0
 36 37  1  1  0  0  0
 36 45  1  0  0  0  0
 38 39  1  0  0  0  0
 40 41  1  0  0  0  0
 40 48  1  1  0  0  0
 43 44  1  0  0  0  0
 45 46  1  1  0  0  0
 47 50  1  0  0  0  0
 48 49  1  0  0  0  0
 50 51  1  0  0  0  0
 51 52  1  0  0  0  0
 52  8  1  0  0  0  0
M  END
>  <CHROM.1>
-111.60976089,-49.10089651,-67.93463422,54.33256743,-89.43752156,164.16854678
91.33333459,166.61561853,-170.71740596,-168.51032099,-147.59689286,-116.85409122
46.08469549,35.61828755,38.65526290,26.76000660,20.55759958,-3.45468025,-1.28575589
0.28239582,1.57802953

>  <Name>
2be0_lig

>  <RI>
0

>  <Rbt.Current_Directory>
/home/itssahil/PROJECTS/Mol_Feturizer/New_Systems/rnas/2be0

>  <Rbt.Executable>
rbdock ($Id: //depot/dev/client3/rdock/2013.1/src/exe/rbdock.cxx#4 $)

>  <Rbt.Library>
libRbt.so (2013.1, Build901 2013/11/27)

>  <Rbt.Parameter_File>
/export/apps/rDock/src/rDock_2013.1_src/data/scripts/dock_solv.prm

>  <Rbt.Receptor>
prm/blind_docking_40.prm

>  <SCORE>
10.8365

>  <SCORE.INTER>
-1.04501

>  <SCORE.INTER.CONST>
1

>  <SCORE.INTER.POLAR>
0

>  <SCORE.INTER.ROT>
15

>  <SCORE.INTER.SOLV>
14.8508

>  <SCORE.INTER.VDW>
-19.2469

>  <SCORE.INTER.norm>
-0.0200963

>  <SCORE.INTRA>
-5.16386

>  <SCORE.INTRA.DIHEDRAL>
-19.7232

>  <SCORE.INTRA.DIHEDRAL.0>
47.8724

>  <SCORE.INTRA.POLAR>
0

>  <SCORE.INTRA.POLAR.0>
0

>  <SCORE.INTRA.REPUL>
0

>  <SCORE.INTRA.REPUL.0>
0

>  <SCORE.INTRA.SOLV>
6.19171

>  <SCORE.INTRA.SOLV.lig_0>
-115.677

>  <SCORE.INTRA.VDW>
1.60189

>  <SCORE.INTRA.VDW.0>
-7.4833

>  <SCORE.INTRA.norm>
-0.0993051

>  <SCORE.RESTR>
17.0454

>  <SCORE.RESTR.CAVITY>
17.0454

>  <SCORE.RESTR.norm>
0.327795

>  <SCORE.SYSTEM>
0

>  <SCORE.SYSTEM.CONST>
0

>  <SCORE.SYSTEM.DIHEDRAL>
0

>  <SCORE.SYSTEM.SOLV>
0

>  <SCORE.SYSTEM.norm>
0

>  <SCORE.heavy>
52

>  <SCORE.norm>
0.208394

>  <RMSD>
23.539

$$$$
2be0_lig
 OpenBabel11021811423D
libRbt.so/2013.1/901 2013/11/27
 52 56  0  0  0  0  0  0  0  0999 V2000
   30.8496   20.7220    1.2754 C   0  0  2  0  0  0  0  0  0  0  0  0
   30.4689   21.6974    0.3339 O   0  0  0  0  0  0  0  0  0  0  0  0
   27.7443   24.1842    2.7346 C   0  0  2  0  0  0  0  0  0  0  0  0
   26.6891   25.1842    3.0603 N   0  0  0  0  0  0  0  0  0  0  0  0
   26.9432   21.1513   -0.3303 C   0  0  2  0  0  0  0  0  0  0  0  0
   26.8378   20.0201   -1.2188 O   0  0  0  0  0  0  0  0  0  0  0  0
   29.1418   21.4983   -4.4585 C   0  0  1  0  0  0  0  0  0  0  0  0
   22.3097   19.3423   -2.3874 C   0  0  0  0  0  0  0  0  0  0  0  0
   31.7978   19.6350    0.6233 C   0  0  2  0  0  0  0  0  0  0  0  0
   32.9425   20.2924   -0.0109 N   0  0  0  0  0  0  0  0  0  0  0  0
   28.8797   24.8882    1.8608 C   0  0  0  0  0  0  0  0  0  0  0  0
   27.4176   22.3402   -1.1811 C   0  0  2  0  0  0  0  0  0  0  0  0
   26.1494   22.8872   -1.7553 O   0  0  0  0  0  0  0  0  0  0  0  0
   30.7605   21.3661   -4.5188 C   0  0  2  0  0  0  0  0  0  0  0  0
   31.3532   22.7416   -4.5686 N   0  0  0  0  0  0  0  0  0  0  0  0
   21.3857   18.7016   -1.4983 C   0  0  0  0  0  0  0  0  0  0  0  0
   20.8825   17.4129   -1.8161 N   0  0  0  0  0  0  0  0  0  0  0  0
   30.9655   18.7496   -0.4156 C   0  0  1  0  0  0  0  0  0  0  0  0
   31.8342   17.7877   -0.9937 O   0  0  0  0  0  0  0  0  0  0  0  0
   30.0519   23.8192    1.4696 C   0  0  2  0  0  0  0  0  0  0  0  0
   31.0811   24.4409    0.6850 N   0  0  0  0  0  0  0  0  0  0  0  0
   28.4119   21.5959   -2.0923 C   0  0  2  0  0  0  0  0  0  0  0  0
   28.8183   22.2588   -3.2805 O   0  0  0  0  0  0  0  0  0  0  0  0
   31.1268   20.5554   -5.7985 C   0  0  1  0  0  0  0  0  0  0  0  0
   30.5113   19.2283   -5.6338 O   0  0  0  0  0  0  0  0  0  0  0  0
   21.2511   16.7059   -2.9961 C   0  0  0  0  0  0  0  0  0  0  0  0
   29.7816   18.0804    0.3412 C   0  0  2  0  0  0  0  0  0  0  0  0
   28.9673   17.2457   -0.5749 O   0  0  0  0  0  0  0  0  0  0  0  0
   29.4269   22.6085    0.6614 C   0  0  2  0  0  0  0  0  0  0  0  0
   27.7197   20.2345   -2.3400 C   0  0  1  0  0  0  0  0  0  0  0  0
   30.5514   21.3106   -7.1192 C   0  0  2  0  0  0  0  0  0  0  0  0
   31.1620   22.6382   -7.2900 O   0  0  0  0  0  0  0  0  0  0  0  0
   22.1617   17.2883   -3.9119 C   0  0  0  0  0  0  0  0  0  0  0  0
   28.8494   19.1784    0.9838 C   0  0  2  0  0  0  0  0  0  0  0  0
   29.7023   19.9618    1.8635 O   0  0  0  0  0  0  0  0  0  0  0  0
   28.3139   21.9610    1.5565 C   0  0  2  0  0  0  0  0  0  0  0  0
   27.8382   20.8927    0.7466 O   0  0  0  0  0  0  0  0  0  0  0  0
   28.7103   19.0715   -2.3566 C   0  0  0  0  0  0  0  0  0  0  0  0
   29.7837   19.2030   -3.2576 O   0  0  0  0  0  0  0  0  0  0  0  0
   28.9656   21.4623   -6.9958 C   0  0  1  0  0  0  0  0  0  0  0  0
   28.6528   22.2129   -5.7178 O   0  0  0  0  0  0  0  0  0  0  0  0
   22.7150   18.6324   -3.6263 C   0  0  0  0  0  0  0  0  0  0  0  0
   27.7654   18.4877    1.7006 C   0  0  0  0  0  0  0  0  0  0  0  0
   27.2204   19.3212    2.5957 O   0  0  0  0  0  0  0  0  0  0  0  0
   27.1782   23.0171    1.8915 C   0  0  1  0  0  0  0  0  0  0  0  0
   26.2057   22.4313    2.6931 O   0  0  0  0  0  0  0  0  0  0  0  0
   25.5902   22.6777   -3.1117 C   0  0  0  0  0  0  0  0  0  0  0  0
   28.4761   22.1966   -8.2736 C   0  0  0  0  0  0  0  0  0  0  0  0
   27.3613   21.4987   -8.8642 N   0  0  0  0  0  0  0  0  0  0  0  0
   25.1187   21.2219   -3.1876 C   0  0  0  0  0  0  0  0  0  0  0  0
   24.4128   20.8592   -1.9160 N   0  0  0  0  0  0  0  0  0  0  0  0
   22.8639   20.7998   -2.0017 C   0  0  0  0  0  0  0  0  0  0  0  0
  1  2  1  6  0  0  0
  1  9  1  0  0  0  0
  1 35  1  0  0  0  0
  3  4  1  6  0  0  0
  3 11  1  0  0  0  0
  3 45  1  0  0  0  0
  5  6  1  0  0  0  0
  5 12  1  0  0  0  0
  5 37  1  1  0  0  0
  6 30  1  0  0  0  0
  7 14  1  0  0  0  0
  7 41  1  0  0  0  0
  7 23  1  1  0  0  0
  8 16  2  0  0  0  0
  8 42  1  0  0  0  0
  9 10  1  6  0  0  0
  9 18  1  0  0  0  0
 11 20  1  0  0  0  0
 12 13  1  6  0  0  0
 12 22  1  0  0  0  0
 13 47  1  0  0  0  0
 14 15  1  6  0  0  0
 14 24  1  0  0  0  0
 16 17  1  0  0  0  0
 17 26  2  0  0  0  0
 18 19  1  1  0  0  0
 18 27  1  0  0  0  0
 20 21  1  6  0  0  0
 20 29  1  0  0  0  0
 22 23  1  6  0  0  0
 22 30  1  0  0  0  0
 24 25  1  1  0  0  0
 24 31  1  0  0  0  0
 26 33  1  0  0  0  0
 27 28  1  6  0  0  0
 27 34  1  0  0  0  0
 29  2  1  1  0  0  0
 29 36  1  0  0  0  0
 30 38  1  1  0  0  0
 31 32  1  1  0  0  0
 31 40  1  0  0  0  0
 33 42  2  0  0  0  0
 34 35  1  0  0  0  0
 34 43  1  1  0  0  0
 36 37  1  6  0  0  0
 36 45  1  0  0  0  0
 38 39  1  0  0  0  0
 40 41  1  0  0  0  0
 40 48  1  6  0  0  0
 43 44  1  0  0  0  0
 45 46  1  1  0  0  0
 47 50  1  0  0  0  0
 48 49  1  0  0  0  0
 50 51  1  0  0  0  0
 51 52  1  0  0  0  0
 52  8  1  0  0  0  0
M  END
>  <CHROM.1>
168.31848790,165.79341987,-98.97311892,-100.26413132,70.45560899,-148.45764398
84.90545640,-170.71761977,160.14607648,-78.14910151,130.94949307,42.61358879
103.75853330,90.60737773,122.86156634,27.97438893,20.83984480,-1.69689383
-1.23292523,-0.29373887,-1.66463065

>  <Name>
2be0_lig

>  <RI>
0

>  <Rbt.Current_Directory>
/home/itssahil/PROJECTS/Mol_Feturizer/New_Systems/rnas/2be0

>  <Rbt.Executable>
rbdock ($Id: //depot/dev/client3/rdock/2013.1/src/exe/rbdock.cxx#4 $)

>  <Rbt.Library>
libRbt.so (2013.1, Build901 2013/11/27)

>  <Rbt.Parameter_File>
/export/apps/rDock/src/rDock_2013.1_src/data/scripts/dock_solv.prm

>  <Rbt.Receptor>
prm/blind_docking_40.prm

>  <SCORE>
48.2193

>  <SCORE.INTER>
15.5858

>  <SCORE.INTER.CONST>
1

>  <SCORE.INTER.POLAR>
-0.513958

>  <SCORE.INTER.ROT>
15

>  <SCORE.INTER.SOLV>
23.9282

>  <SCORE.INTER.VDW>
-9.47234

>  <SCORE.INTER.norm>
0.299727

>  <SCORE.INTRA>
22.4437

>  <SCORE.INTRA.DIHEDRAL>
-17.2945

>  <SCORE.INTRA.DIHEDRAL.0>
47.8724

>  <SCORE.INTRA.POLAR>
0

>  <SCORE.INTRA.POLAR.0>
0

>  <SCORE.INTRA.REPUL>
0

>  <SCORE.INTRA.REPUL.0>
0

>  <SCORE.INTRA.SOLV>
2.72717

>  <SCORE.INTRA.SOLV.lig_0>
-115.677

>  <SCORE.INTRA.VDW>
29.7273

>  <SCORE.INTRA.VDW.0>
-7.4833

>  <SCORE.INTRA.norm>
0.431609

>  <SCORE.RESTR>
10.1898

>  <SCORE.RESTR.CAVITY>
10.1898

>  <SCORE.RESTR.norm>
0.195958

>  <SCORE.SYSTEM>
0

>  <SCORE.SYSTEM.CONST>
0

>  <SCORE.SYSTEM.DIHEDRAL>
0

>  <SCORE.SYSTEM.SOLV>
0

>  <SCORE.SYSTEM.norm>
0

>  <SCORE.heavy>
52

>  <SCORE.norm>
0.927294

>  <RMSD>
23.691

$$$$
2be0_lig
 OpenBabel11021811423D
libRbt.so/2013.1/901 2013/11/27
 52 56  0  0  0  0  0  0  0  0999 V2000
   27.4727   22.7803   -0.4170 C   0  0  2  0  0  0  0  0  0  0  0  0
   28.8007   22.5110   -0.8002 O   0  0  0  0  0  0  0  0  0  0  0  0
   31.9297   19.5390    0.0643 C   0  0  2  0  0  0  0  0  0  0  0  0
   32.7003   18.4968    0.7988 N   0  0  0  0  0  0  0  0  0  0  0  0
   27.8566   19.7222   -2.6152 C   0  0  2  0  0  0  0  0  0  0  0  0
   28.8280   19.1118   -3.4894 O   0  0  0  0  0  0  0  0  0  0  0  0
   28.6147   22.4114   -5.9264 C   0  0  1  0  0  0  0  0  0  0  0  0
   22.1926   18.5476   -2.7092 C   0  0  0  0  0  0  0  0  0  0  0  0
   27.4194   23.5387    0.9715 C   0  0  2  0  0  0  0  0  0  0  0  0
   28.2503   24.7431    0.9104 N   0  0  0  0  0  0  0  0  0  0  0  0
   31.8208   20.8465    0.9737 C   0  0  0  0  0  0  0  0  0  0  0  0
   27.5514   21.1128   -3.1946 C   0  0  2  0  0  0  0  0  0  0  0  0
   26.4902   20.8418   -4.2133 O   0  0  0  0  0  0  0  0  0  0  0  0
   27.3777   23.4460   -6.1287 C   0  0  2  0  0  0  0  0  0  0  0  0
   26.3098   23.1191   -5.1295 N   0  0  0  0  0  0  0  0  0  0  0  0
   21.1080   17.7914   -2.1555 C   0  0  0  0  0  0  0  0  0  0  0  0
   20.8108   17.8980   -0.7715 N   0  0  0  0  0  0  0  0  0  0  0  0
   27.8817   22.5517    2.1411 C   0  0  1  0  0  0  0  0  0  0  0  0
   27.8341   23.2521    3.3745 O   0  0  0  0  0  0  0  0  0  0  0  0
   30.9685   22.0116    0.2082 C   0  0  2  0  0  0  0  0  0  0  0  0
   30.8651   23.1946    1.0152 N   0  0  0  0  0  0  0  0  0  0  0  0
   28.9720   21.4944   -3.6520 C   0  0  2  0  0  0  0  0  0  0  0  0
   29.0858   22.5670   -4.5757 O   0  0  0  0  0  0  0  0  0  0  0  0
   26.8477   23.2790   -7.5847 C   0  0  1  0  0  0  0  0  0  0  0  0
   27.9657   23.6389   -8.4724 O   0  0  0  0  0  0  0  0  0  0  0  0
   21.5476   18.7312    0.1178 C   0  0  0  0  0  0  0  0  0  0  0  0
   26.9418   21.3111    2.1426 C   0  0  2  0  0  0  0  0  0  0  0  0
   27.3251   20.3535    3.2080 O   0  0  0  0  0  0  0  0  0  0  0  0
   29.5180   21.4768   -0.1376 C   0  0  2  0  0  0  0  0  0  0  0  0
   29.5519   20.1570   -4.1707 C   0  0  1  0  0  0  0  0  0  0  0  0
   26.3726   21.7429   -7.8310 C   0  0  2  0  0  0  0  0  0  0  0  0
   25.2555   21.3759   -6.9469 O   0  0  0  0  0  0  0  0  0  0  0  0
   22.6298   19.5030   -0.3724 C   0  0  0  0  0  0  0  0  0  0  0  0
   27.0083   20.5698    0.7520 C   0  0  2  0  0  0  0  0  0  0  0  0
   26.6277   21.5569   -0.2458 O   0  0  0  0  0  0  0  0  0  0  0  0
   29.6813   20.1906   -1.0198 C   0  0  2  0  0  0  0  0  0  0  0  0
   28.3350   19.8102   -1.2770 O   0  0  0  0  0  0  0  0  0  0  0  0
   31.0271   19.9836   -3.8129 C   0  0  0  0  0  0  0  0  0  0  0  0
   31.7137   18.9919   -4.5383 O   0  0  0  0  0  0  0  0  0  0  0  0
   27.6045   20.7582   -7.5746 C   0  0  1  0  0  0  0  0  0  0  0  0
   28.1173   20.9866   -6.1677 O   0  0  0  0  0  0  0  0  0  0  0  0
   22.9808   19.4263   -1.8095 C   0  0  0  0  0  0  0  0  0  0  0  0
   26.0869   19.4235    0.8065 C   0  0  0  0  0  0  0  0  0  0  0  0
   26.6055   18.4710    1.5917 O   0  0  0  0  0  0  0  0  0  0  0  0
   30.4860   19.0706   -0.2353 C   0  0  1  0  0  0  0  0  0  0  0  0
   30.6311   17.9421   -1.0335 O   0  0  0  0  0  0  0  0  0  0  0  0
   25.0687   20.4891   -3.9870 C   0  0  0  0  0  0  0  0  0  0  0  0
   27.0907   19.3122   -7.8127 C   0  0  0  0  0  0  0  0  0  0  0  0
   28.1597   18.4642   -8.2783 N   0  0  0  0  0  0  0  0  0  0  0  0
   24.6375   19.5810   -5.1432 C   0  0  0  0  0  0  0  0  0  0  0  0
   24.0236   18.3295   -4.5924 N   0  0  0  0  0  0  0  0  0  0  0  0
   22.5052   18.4085   -4.2787 C   0  0  0  0  0  0  0  0  0  0  0  0
  1  2  1  1  0  0  0
  1  9  1  0  0  0  0
  1 35  1  0  0  0  0
  3  4  1  1  0  0  0
  3 11  1  0  0  0  0
  3 45  1  0  0  0  0
  5  6  1  0  0  0  0
  5 12  1  0  0  0  0
  5 37  1  1  0  0  0
  6 30  1  0  0  0  0
  7 14  1  0  0  0  0
  7 41  1  0  0  0  0
  7 23  1  1  0  0  0
  8 16  2  0  0  0  0
  8 42  1  0  0  0  0
  9 10  1  6  0  0  0
  9 18  1  0  0  0  0
 11 20  1  0  0  0  0
 12 13  1  6  0  0  0
 12 22  1  0  0  0  0
 13 47  1  0  0  0  0
 14 15  1  1  0  0  0
 14 24  1  0  0  0  0
 16 17  1  0  0  0  0
 17 26  2  0  0  0  0
 18 19  1  1  0  0  0
 18 27  1  0  0  0  0
 20 21  1  1  0  0  0
 20 29  1  0  0  0  0
 22 23  1  6  0  0  0
 22 30  1  0  0  0  0
 24 25  1  6  0  0  0
 24 31  1  0  0  0  0
 26 33  1  0  0  0  0
 27 28  1  1  0  0  0
 27 34  1  0  0  0  0
 29  2  1  6  0  0  0
 29 36  1  0  0  0  0
 30 38  1  1  0  0  0
 31 32  1  1  0  0  0
 31 40  1  0  0  0  0
 33 42  2  0  0  0  0
 34 35  1  0  0  0  0
 34 43  1  1  0  0  0
 36 37  1  1  0  0  0
 36 45  1  0  0  0  0
 38 39  1  0  0  0  0
 40 41  1  0  0  0  0
 40 48  1  1  0  0  0
 43 44  1  0  0  0  0
 45 46  1  6  0  0  0
 47 50  1  0  0  0  0
 48 49  1  0  0  0  0
 50 51  1  0  0  0  0
 51 52  1  0  0  0  0
 52  8  1  0  0  0  0
M  END
>  <CHROM.1>
74.32287812,41.49068451,115.19294240,72.67902344,-148.27506673,-68.81910536
-134.91671408,80.14356309,-72.58164368,120.88514415,150.52398168,127.57000163
86.54474044,-103.73790434,-138.35037255,27.41879841,20.67187252,-2.39359205
1.21864412,0.26500028,1.61879370

>  <Name>
2be0_lig

>  <RI>
0

>  <Rbt.Current_Directory>
/home/itssahil/PROJECTS/Mol_Feturizer/New_Systems/rnas/2be0

>  <Rbt.Executable>
rbdock ($Id: //depot/dev/client3/rdock/2013.1/src/exe/rbdock.cxx#4 $)

>  <Rbt.Library>
libRbt.so (2013.1, Build901 2013/11/27)

>  <Rbt.Parameter_File>
/export/apps/rDock/src/rDock_2013.1_src/data/scripts/dock_solv.prm

>  <Rbt.Receptor>
prm/blind_docking_40.prm

>  <SCORE>
21.6603

>  <SCORE.INTER>
6.91145

>  <SCORE.INTER.CONST>
1

>  <SCORE.INTER.POLAR>
-0.87178

>  <SCORE.INTER.ROT>
15

>  <SCORE.INTER.SOLV>
31.6476

>  <SCORE.INTER.VDW>
-16.6356

>  <SCORE.INTER.norm>
0.132913

>  <SCORE.INTRA>
3.83149

>  <SCORE.INTRA.DIHEDRAL>
-7.47862

>  <SCORE.INTRA.DIHEDRAL.0>
47.8724

>  <SCORE.INTRA.POLAR>
0

>  <SCORE.INTRA.POLAR.0>
0

>  <SCORE.INTRA.REPUL>
0.158796

>  <SCORE.INTRA.REPUL.0>
0

>  <SCORE.INTRA.SOLV>
6.16525

>  <SCORE.INTRA.SOLV.lig_0>
-115.677

>  <SCORE.INTRA.VDW>
3.69419

>  <SCORE.INTRA.VDW.0>
-7.4833

>  <SCORE.INTRA.norm>
0.0736824

>  <SCORE.RESTR>
10.9174

>  <SCORE.RESTR.CAVITY>
10.9174

>  <SCORE.RESTR.norm>
0.209949

>  <SCORE.SYSTEM>
0

>  <SCORE.SYSTEM.CONST>
0

>  <SCORE.SYSTEM.DIHEDRAL>
0

>  <SCORE.SYSTEM.SOLV>
0

>  <SCORE.SYSTEM.norm>
0

>  <SCORE.heavy>
52

>  <SCORE.norm>
0.416544

>  <RMSD>
23.769

$$$$
2be0_lig
 OpenBabel11021811423D
libRbt.so/2013.1/901 2013/11/27
 52 56  0  0  0  0  0  0  0  0999 V2000
   30.0790   20.9019    0.5853 C   0  0  2  0  0  0  0  0  0  0  0  0
   29.5511   20.8643   -0.7196 O   0  0  0  0  0  0  0  0  0  0  0  0
   32.0189   19.4815   -4.0913 C   0  0  2  0  0  0  0  0  0  0  0  0
   32.6706   18.5505   -5.0546 N   0  0  0  0  0  0  0  0  0  0  0  0
   27.6062   21.5053   -3.4301 C   0  0  2  0  0  0  0  0  0  0  0  0
   27.2329   22.1628   -2.2018 O   0  0  0  0  0  0  0  0  0  0  0  0
   23.2623   19.6348   -2.6215 C   0  0  1  0  0  0  0  0  0  0  0  0
   26.2012   21.1462   -8.2096 C   0  0  0  0  0  0  0  0  0  0  0  0
   29.3339   19.8778    1.5349 C   0  0  2  0  0  0  0  0  0  0  0  0
   29.3693   18.5383    0.9441 N   0  0  0  0  0  0  0  0  0  0  0  0
   32.4200   19.0605   -2.6047 C   0  0  0  0  0  0  0  0  0  0  0  0
   26.3001   21.1717   -4.1686 C   0  0  2  0  0  0  0  0  0  0  0  0
   25.9899   22.4298   -4.9158 O   0  0  0  0  0  0  0  0  0  0  0  0
   21.7504   19.7877   -3.1979 C   0  0  2  0  0  0  0  0  0  0  0  0
   21.2009   21.1113   -2.7599 N   0  0  0  0  0  0  0  0  0  0  0  0
   26.4178   19.8538   -8.7907 C   0  0  0  0  0  0  0  0  0  0  0  0
   25.4973   18.8041   -8.5341 N   0  0  0  0  0  0  0  0  0  0  0  0
   27.8377   20.3773    1.7953 C   0  0  1  0  0  0  0  0  0  0  0  0
   27.1856   19.4429    2.6413 O   0  0  0  0  0  0  0  0  0  0  0  0
   31.7125   20.0507   -1.5144 C   0  0  2  0  0  0  0  0  0  0  0  0
   32.0674   19.6837   -0.1725 N   0  0  0  0  0  0  0  0  0  0  0  0
   25.4397   20.7699   -2.9557 C   0  0  2  0  0  0  0  0  0  0  0  0
   24.0333   20.7301   -3.1475 O   0  0  0  0  0  0  0  0  0  0  0  0
   20.8993   18.6145   -2.6251 C   0  0  1  0  0  0  0  0  0  0  0  0
   21.5157   17.3761   -3.1287 O   0  0  0  0  0  0  0  0  0  0  0  0
   24.3460   18.9663   -7.7118 C   0  0  0  0  0  0  0  0  0  0  0  0
   27.8931   21.7960    2.4330 C   0  0  2  0  0  0  0  0  0  0  0  0
   26.5293   22.3160    2.6951 O   0  0  0  0  0  0  0  0  0  0  0  0
   30.1381   19.9957   -1.6809 C   0  0  2  0  0  0  0  0  0  0  0  0
   25.8938   21.7557   -1.8529 C   0  0  1  0  0  0  0  0  0  0  0  0
   20.9134   18.6591   -0.9991 C   0  0  2  0  0  0  0  0  0  0  0  0
   20.2991   19.8945   -0.4885 O   0  0  0  0  0  0  0  0  0  0  0  0
   24.0792   20.2213   -7.1112 C   0  0  0  0  0  0  0  0  0  0  0  0
   28.6390   22.8009    1.4731 C   0  0  2  0  0  0  0  0  0  0  0  0
   29.9609   22.2365    1.2525 O   0  0  0  0  0  0  0  0  0  0  0  0
   29.7995   20.4060   -3.1560 C   0  0  2  0  0  0  0  0  0  0  0  0
   28.3792   20.3346   -3.1863 O   0  0  0  0  0  0  0  0  0  0  0  0
   25.9728   21.0955   -0.4775 C   0  0  0  0  0  0  0  0  0  0  0  0
   26.5813   19.8266   -0.4487 O   0  0  0  0  0  0  0  0  0  0  0  0
   22.4202   18.5550   -0.4779 C   0  0  1  0  0  0  0  0  0  0  0  0
   23.2209   19.6834   -1.0946 O   0  0  0  0  0  0  0  0  0  0  0  0
   25.0102   21.3490   -7.3473 C   0  0  0  0  0  0  0  0  0  0  0  0
   28.6787   24.1141    2.1365 C   0  0  0  0  0  0  0  0  0  0  0  0
   27.4474   24.6394    2.1605 O   0  0  0  0  0  0  0  0  0  0  0  0
   30.4766   19.4068   -4.1859 C   0  0  1  0  0  0  0  0  0  0  0  0
   30.1758   19.7896   -5.4876 O   0  0  0  0  0  0  0  0  0  0  0  0
   26.8541   23.1714   -5.8642 C   0  0  0  0  0  0  0  0  0  0  0  0
   22.3721   18.6138    1.0731 C   0  0  0  0  0  0  0  0  0  0  0  0
   22.0216   19.9391    1.5200 N   0  0  0  0  0  0  0  0  0  0  0  0
   28.1151   22.3288   -6.0821 C   0  0  0  0  0  0  0  0  0  0  0  0
   28.4637   22.3205   -7.5399 N   0  0  0  0  0  0  0  0  0  0  0  0
   27.2583   22.3156   -8.5182 C   0  0  0  0  0  0  0  0  0  0  0  0
  1  2  1  6  0  0  0
  1  9  1  0  0  0  0
  1 35  1  0  0  0  0
  3  4  1  6  0  0  0
  3 11  1  0  0  0  0
  3 45  1  0  0  0  0
  5  6  1  0  0  0  0
  5 12  1  0  0  0  0
  5 37  1  1  0  0  0
  6 30  1  0  0  0  0
  7 14  1  0  0  0  0
  7 41  1  0  0  0  0
  7 23  1  6  0  0  0
  8 16  2  0  0  0  0
  8 42  1  0  0  0  0
  9 10  1  6  0  0  0
  9 18  1  0  0  0  0
 11 20  1  0  0  0  0
 12 13  1  1  0  0  0
 12 22  1  0  0  0  0
 13 47  1  0  0  0  0
 14 15  1  1  0  0  0
 14 24  1  0  0  0  0
 16 17  1  0  0  0  0
 17 26  2  0  0  0  0
 18 19  1  1  0  0  0
 18 27  1  0  0  0  0
 20 21  1  1  0  0  0
 20 29  1  0  0  0  0
 22 23  1  6  0  0  0
 22 30  1  0  0  0  0
 24 25  1  1  0  0  0
 24 31  1  0  0  0  0
 26 33  1  0  0  0  0
 27 28  1  6  0  0  0
 27 34  1  0  0  0  0
 29  2  1  1  0  0  0
 29 36  1  0  0  0  0
 30 38  1  1  0  0  0
 31 32  1  6  0  0  0
 31 40  1  0  0  0  0
 33 42  2  0  0  0  0
 34 35  1  0  0  0  0
 34 43  1  1  0  0  0
 36 37  1  1  0  0  0
 36 45  1  0  0  0  0
 38 39  1  0  0  0  0
 40 41  1  0  0  0  0
 40 48  1  1  0  0  0
 43 44  1  0  0  0  0
 45 46  1  6  0  0  0
 47 50  1  0  0  0  0
 48 49  1  0  0  0  0
 50 51  1  0  0  0  0
 51 52  1  0  0  0  0
 52  8  1  0  0  0  0
M  END
>  <CHROM.1>
-91.97125045,-92.21568649,-171.91891865,54.65622330,6.16194335,136.35079227
-40.84958776,-71.94558116,-70.59059968,116.92392159,-70.98284242,136.81526875
-35.58749961,-52.45754640,-86.67404939,26.71012782,20.56589001,-2.35879578
-0.72783726,-0.11844938,-1.61844762

>  <Name>
2be0_lig

>  <RI>
0

>  <Rbt.Current_Directory>
/home/itssahil/PROJECTS/Mol_Feturizer/New_Systems/rnas/2be0

>  <Rbt.Executable>
rbdock ($Id: //depot/dev/client3/rdock/2013.1/src/exe/rbdock.cxx#4 $)

>  <Rbt.Library>
libRbt.so (2013.1, Build901 2013/11/27)

>  <Rbt.Parameter_File>
/export/apps/rDock/src/rDock_2013.1_src/data/scripts/dock_solv.prm

>  <Rbt.Receptor>
prm/blind_docking_40.prm

>  <SCORE>
21.3933

>  <SCORE.INTER>
-3.99752

>  <SCORE.INTER.CONST>
1

>  <SCORE.INTER.POLAR>
-0.739466

>  <SCORE.INTER.ROT>
15

>  <SCORE.INTER.SOLV>
21.7875

>  <SCORE.INTER.VDW>
-21.0626

>  <SCORE.INTER.norm>
-0.0768754

>  <SCORE.INTRA>
7.73721

>  <SCORE.INTRA.DIHEDRAL>
-10.1606

>  <SCORE.INTRA.DIHEDRAL.0>
47.8724

>  <SCORE.INTRA.POLAR>
0

>  <SCORE.INTRA.POLAR.0>
0

>  <SCORE.INTRA.REPUL>
0

>  <SCORE.INTRA.REPUL.0>
0

>  <SCORE.INTRA.SOLV>
5.89505

>  <SCORE.INTRA.SOLV.lig_0>
-115.677

>  <SCORE.INTRA.VDW>
9.87001

>  <SCORE.INTRA.VDW.0>
-7.4833

>  <SCORE.INTRA.norm>
0.148793

>  <SCORE.RESTR>
17.6536

>  <SCORE.RESTR.CAVITY>
17.6536

>  <SCORE.RESTR.norm>
0.339492

>  <SCORE.SYSTEM>
0

>  <SCORE.SYSTEM.CONST>
0

>  <SCORE.SYSTEM.DIHEDRAL>
0

>  <SCORE.SYSTEM.SOLV>
0

>  <SCORE.SYSTEM.norm>
0

>  <SCORE.heavy>
52

>  <SCORE.norm>
0.411409

>  <RMSD>
23.914

$$$$
2be0_lig
 OpenBabel11021811423D
libRbt.so/2013.1/901 2013/11/27
 52 56  0  0  0  0  0  0  0  0999 V2000
   27.5073   20.4597    0.9096 C   0  0  2  0  0  0  0  0  0  0  0  0
   27.5238   21.6412    0.1438 O   0  0  0  0  0  0  0  0  0  0  0  0
   30.1734   25.0745   -0.6068 C   0  0  2  0  0  0  0  0  0  0  0  0
   31.3426   25.9892   -0.4809 N   0  0  0  0  0  0  0  0  0  0  0  0
   28.9115   20.6306   -2.4567 C   0  0  2  0  0  0  0  0  0  0  0  0
   29.6791   19.6252   -3.1498 O   0  0  0  0  0  0  0  0  0  0  0  0
   28.4175   21.2270   -6.7175 C   0  0  1  0  0  0  0  0  0  0  0  0
   22.9730   19.9148   -2.2788 C   0  0  0  0  0  0  0  0  0  0  0  0
   27.9692   20.7351    2.3984 C   0  0  2  0  0  0  0  0  0  0  0  0
   27.1538   21.8031    2.9807 N   0  0  0  0  0  0  0  0  0  0  0  0
   29.4689   24.9276    0.8182 C   0  0  0  0  0  0  0  0  0  0  0  0
   28.2978   21.5398   -3.5334 C   0  0  2  0  0  0  0  0  0  0  0  0
   27.0430   20.8242   -3.9215 O   0  0  0  0  0  0  0  0  0  0  0  0
   28.4575   21.9345   -8.1801 C   0  0  2  0  0  0  0  0  0  0  0  0
   27.9193   23.3275   -8.0548 N   0  0  0  0  0  0  0  0  0  0  0  0
   22.9129   18.5331   -1.9017 C   0  0  0  0  0  0  0  0  0  0  0  0
   22.6404   17.5469   -2.8856 N   0  0  0  0  0  0  0  0  0  0  0  0
   29.5273   21.0925    2.4203 C   0  0  1  0  0  0  0  0  0  0  0  0
   29.9190   21.3429    3.7612 O   0  0  0  0  0  0  0  0  0  0  0  0
   28.1870   23.9187    0.7261 C   0  0  2  0  0  0  0  0  0  0  0  0
   27.5428   23.7797    2.0016 N   0  0  0  0  0  0  0  0  0  0  0  0
   29.4876   21.5834   -4.5109 C   0  0  2  0  0  0  0  0  0  0  0  0
   29.2204   22.0287   -5.8326 O   0  0  0  0  0  0  0  0  0  0  0  0
   27.5800   21.0836   -9.1471 C   0  0  1  0  0  0  0  0  0  0  0  0
   28.2062   19.7526   -9.2058 O   0  0  0  0  0  0  0  0  0  0  0  0
   22.4167   17.8605   -4.2566 C   0  0  0  0  0  0  0  0  0  0  0  0
   30.3167   19.9042    1.7983 C   0  0  2  0  0  0  0  0  0  0  0  0
   31.7738   20.1800    1.7873 O   0  0  0  0  0  0  0  0  0  0  0  0
   28.6584   22.4964    0.2118 C   0  0  2  0  0  0  0  0  0  0  0  0
   30.0634   20.1491   -4.4376 C   0  0  1  0  0  0  0  0  0  0  0  0
   26.0574   20.9926   -8.5821 C   0  0  2  0  0  0  0  0  0  0  0  0
   25.4252   22.3196   -8.5203 O   0  0  0  0  0  0  0  0  0  0  0  0
   22.4647   19.2088   -4.6887 C   0  0  0  0  0  0  0  0  0  0  0  0
   29.8425   19.6452    0.3166 C   0  0  2  0  0  0  0  0  0  0  0  0
   28.4136   19.3861    0.3937 O   0  0  0  0  0  0  0  0  0  0  0  0
   29.3507   22.6978   -1.1807 C   0  0  2  0  0  0  0  0  0  0  0  0
   29.7168   21.3728   -1.5467 O   0  0  0  0  0  0  0  0  0  0  0  0
   31.5902   20.1307   -4.4887 C   0  0  0  0  0  0  0  0  0  0  0  0
   32.2358   21.0485   -3.6389 O   0  0  0  0  0  0  0  0  0  0  0  0
   26.0698   20.3369   -7.1251 C   0  0  1  0  0  0  0  0  0  0  0  0
   26.9695   21.1665   -6.2325 O   0  0  0  0  0  0  0  0  0  0  0  0
   22.7447   20.2759   -3.7002 C   0  0  0  0  0  0  0  0  0  0  0  0
   30.6059   18.5018   -0.2088 C   0  0  0  0  0  0  0  0  0  0  0  0
   31.8820   18.8634   -0.3915 O   0  0  0  0  0  0  0  0  0  0  0  0
   30.6077   23.6570   -1.0490 C   0  0  1  0  0  0  0  0  0  0  0  0
   31.2035   23.8335   -2.2921 O   0  0  0  0  0  0  0  0  0  0  0  0
   25.6542   21.1045   -3.4868 C   0  0  0  0  0  0  0  0  0  0  0  0
   24.5973   20.2863   -6.6344 C   0  0  0  0  0  0  0  0  0  0  0  0
   23.8152   19.4060   -7.4662 N   0  0  0  0  0  0  0  0  0  0  0  0
   25.6984   21.3854   -1.9813 C   0  0  0  0  0  0  0  0  0  0  0  0
   24.4034   22.0055   -1.5513 N   0  0  0  0  0  0  0  0  0  0  0  0
   23.2844   21.0091   -1.1448 C   0  0  0  0  0  0  0  0  0  0  0  0
  1  2  1  6  0  0  0
  1  9  1  0  0  0  0
  1 35  1  0  0  0  0
  3  4  1  1  0  0  0
  3 11  1  0  0  0  0
  3 45  1  0  0  0  0
  5  6  1  0  0  0  0
  5 12  1  0  0  0  0
  5 37  1  1  0  0  0
  6 30  1  0  0  0  0
  7 14  1  0  0  0  0
  7 41  1  0  0  0  0
  7 23  1  1  0  0  0
  8 16  2  0  0  0  0
  8 42  1  0  0  0  0
  9 10  1  6  0  0  0
  9 18  1  0  0  0  0
 11 20  1  0  0  0  0
 12 13  1  6  0  0  0
 12 22  1  0  0  0  0
 13 47  1  0  0  0  0
 14 15  1  1  0  0  0
 14 24  1  0  0  0  0
 16 17  1  0  0  0  0
 17 26  2  0  0  0  0
 18 19  1  1  0  0  0
 18 27  1  0  0  0  0
 20 21  1  1  0  0  0
 20 29  1  0  0  0  0
 22 23  1  6  0  0  0
 22 30  1  0  0  0  0
 24 25  1  1  0  0  0
 24 31  1  0  0  0  0
 26 33  1  0  0  0  0
 27 28  1  6  0  0  0
 27 34  1  0  0  0  0
 29  2  1  6  0  0  0
 29 36  1  0  0  0  0
 30 38  1  1  0  0  0
 31 32  1  1  0  0  0
 31 40  1  0  0  0  0
 33 42  2  0  0  0  0
 34 35  1  0  0  0  0
 34 43  1  1  0  0  0
 36 37  1  1  0  0  0
 36 45  1  0  0  0  0
 38 39  1  0  0  0  0
 40 41  1  0  0  0  0
 40 48  1  1  0  0  0
 43 44  1  0  0  0  0
 45 46  1  6  0  0  0
 47 50  1  0  0  0  0
 48 49  1  0  0  0  0
 50 51  1  0  0  0  0
 51 52  1  0  0  0  0
 52  8  1  0  0  0  0
M  END
>  <CHROM.1>
46.60668876,154.38088133,-173.48980080,100.24780733,-42.79930650,-68.29807369
-120.34906723,-69.27631422,-70.12091245,99.48022158,64.63553521,165.89642394
88.30813971,-54.10097894,131.01257433,27.84003349,21.14288093,-2.63289308
1.07312041,0.33229563,1.58496027

>  <Name>
2be0_lig

>  <RI>
0

>  <Rbt.Current_Directory>
/home/itssahil/PROJECTS/Mol_Feturizer/New_Systems/rnas/2be0

>  <Rbt.Executable>
rbdock ($Id: //depot/dev/client3/rdock/2013.1/src/exe/rbdock.cxx#4 $)

>  <Rbt.Library>
libRbt.so (2013.1, Build901 2013/11/27)

>  <Rbt.Parameter_File>
/export/apps/rDock/src/rDock_2013.1_src/data/scripts/dock_solv.prm

>  <Rbt.Receptor>
prm/blind_docking_40.prm

>  <SCORE>
16.5008

>  <SCORE.INTER>
3.27599

>  <SCORE.INTER.CONST>
1

>  <SCORE.INTER.POLAR>
-0.336837

>  <SCORE.INTER.ROT>
15

>  <SCORE.INTER.SOLV>
24.934

>  <SCORE.INTER.VDW>
-18.6046

>  <SCORE.INTER.norm>
0.0629998

>  <SCORE.INTRA>
0.958874

>  <SCORE.INTRA.DIHEDRAL>
-21.7793

>  <SCORE.INTRA.DIHEDRAL.0>
47.8724

>  <SCORE.INTRA.POLAR>
0

>  <SCORE.INTRA.POLAR.0>
0

>  <SCORE.INTRA.REPUL>
0.0139308

>  <SCORE.INTRA.REPUL.0>
0

>  <SCORE.INTRA.SOLV>
7.46537

>  <SCORE.INTRA.SOLV.lig_0>
-115.677

>  <SCORE.INTRA.VDW>
8.04617

>  <SCORE.INTRA.VDW.0>
-7.4833

>  <SCORE.INTRA.norm>
0.0184399

>  <SCORE.RESTR>
12.2659

>  <SCORE.RESTR.CAVITY>
12.2659

>  <SCORE.RESTR.norm>
0.235883

>  <SCORE.SYSTEM>
0

>  <SCORE.SYSTEM.CONST>
0

>  <SCORE.SYSTEM.DIHEDRAL>
0

>  <SCORE.SYSTEM.SOLV>
0

>  <SCORE.SYSTEM.norm>
0

>  <SCORE.heavy>
52

>  <SCORE.norm>
0.317322

>  <RMSD>
23.935

$$$$
2be0_lig
 OpenBabel11021811423D
libRbt.so/2013.1/901 2013/11/27
 52 56  0  0  0  0  0  0  0  0999 V2000
   24.9723   20.2120   -7.5151 C   0  0  2  0  0  0  0  0  0  0  0  0
   25.0029   19.7910   -6.1717 O   0  0  0  0  0  0  0  0  0  0  0  0
   21.2110   18.4082   -4.4166 C   0  0  2  0  0  0  0  0  0  0  0  0
   20.1338   17.4780   -3.9764 N   0  0  0  0  0  0  0  0  0  0  0  0
   25.7859   19.9150   -3.1627 C   0  0  2  0  0  0  0  0  0  0  0  0
   27.1777   19.5432   -3.2333 O   0  0  0  0  0  0  0  0  0  0  0  0
   27.6671   20.5692    0.7012 C   0  0  1  0  0  0  0  0  0  0  0  0
   30.9591   22.3966   -4.5926 C   0  0  0  0  0  0  0  0  0  0  0  0
   26.3401   19.8956   -8.2463 C   0  0  2  0  0  0  0  0  0  0  0  0
   26.6621   18.4743   -8.1017 N   0  0  0  0  0  0  0  0  0  0  0  0
   21.4680   18.2080   -5.9794 C   0  0  0  0  0  0  0  0  0  0  0  0
   25.5147   20.3423   -1.7114 C   0  0  2  0  0  0  0  0  0  0  0  0
   25.9185   21.7824   -1.6898 O   0  0  0  0  0  0  0  0  0  0  0  0
   28.1033   20.3342    2.2491 C   0  0  2  0  0  0  0  0  0  0  0  0
   26.8806   20.4208    3.1112 N   0  0  0  0  0  0  0  0  0  0  0  0
   32.1512   23.1054   -4.9550 C   0  0  0  0  0  0  0  0  0  0  0  0
   32.6048   23.0771   -6.2998 N   0  0  0  0  0  0  0  0  0  0  0  0
   27.4936   20.8331   -7.6577 C   0  0  1  0  0  0  0  0  0  0  0  0
   28.7112   20.5289   -8.3202 O   0  0  0  0  0  0  0  0  0  0  0  0
   22.6553   19.2024   -6.5003 C   0  0  2  0  0  0  0  0  0  0  0  0
   22.8948   19.0337   -7.9058 N   0  0  0  0  0  0  0  0  0  0  0  0
   26.3824   19.2932   -0.9908 C   0  0  2  0  0  0  0  0  0  0  0  0
   26.7087   19.5490    0.3674 O   0  0  0  0  0  0  0  0  0  0  0  0
   29.1321   21.4414    2.6294 C   0  0  1  0  0  0  0  0  0  0  0  0
   30.2881   21.2512    1.7379 O   0  0  0  0  0  0  0  0  0  0  0  0
   31.9276   22.3667   -7.3317 C   0  0  0  0  0  0  0  0  0  0  0  0
   27.0775   22.3186   -7.8635 C   0  0  2  0  0  0  0  0  0  0  0  0
   28.1106   23.2400   -7.3315 O   0  0  0  0  0  0  0  0  0  0  0  0
   23.9893   18.9135   -5.6962 C   0  0  2  0  0  0  0  0  0  0  0  0
   27.6150   19.1527   -1.9154 C   0  0  1  0  0  0  0  0  0  0  0  0
   28.4678   22.9120    2.4251 C   0  0  2  0  0  0  0  0  0  0  0  0
   27.3113   23.1090    3.3128 O   0  0  0  0  0  0  0  0  0  0  0  0
   30.7434   21.6486   -7.0336 C   0  0  0  0  0  0  0  0  0  0  0  0
   25.7135   22.6140   -7.1287 C   0  0  2  0  0  0  0  0  0  0  0  0
   24.7480   21.6816   -7.6883 O   0  0  0  0  0  0  0  0  0  0  0  0
   23.6805   19.1129   -4.1718 C   0  0  2  0  0  0  0  0  0  0  0  0
   24.9346   18.8438   -3.5569 O   0  0  0  0  0  0  0  0  0  0  0  0
   28.1051   17.7093   -2.0179 C   0  0  0  0  0  0  0  0  0  0  0  0
   28.9727   17.4391   -3.0929 O   0  0  0  0  0  0  0  0  0  0  0  0
   28.0102   23.0815    0.9036 C   0  0  1  0  0  0  0  0  0  0  0  0
   27.0499   21.9605    0.5630 O   0  0  0  0  0  0  0  0  0  0  0  0
   30.2289   21.6460   -5.6445 C   0  0  0  0  0  0  0  0  0  0  0  0
   25.3625   24.0217   -7.3762 C   0  0  0  0  0  0  0  0  0  0  0  0
   24.0304   24.1564   -7.3740 O   0  0  0  0  0  0  0  0  0  0  0  0
   22.5462   18.1120   -3.6935 C   0  0  1  0  0  0  0  0  0  0  0  0
   22.2770   18.3081   -2.3442 O   0  0  0  0  0  0  0  0  0  0  0  0
   27.0672   22.4243   -2.3715 C   0  0  0  0  0  0  0  0  0  0  0  0
   27.3763   24.4930    0.7718 C   0  0  0  0  0  0  0  0  0  0  0  0
   27.0130   24.7601   -0.5977 N   0  0  0  0  0  0  0  0  0  0  0  0
   28.3421   21.8955   -1.7064 C   0  0  0  0  0  0  0  0  0  0  0  0
   29.3110   21.4574   -2.7628 N   0  0  0  0  0  0  0  0  0  0  0  0
   30.4685   22.4472   -3.0639 C   0  0  0  0  0  0  0  0  0  0  0  0
  1  2  1  1  0  0  0
  1  9  1  0  0  0  0
  1 35  1  0  0  0  0
  3  4  1  1  0  0  0
  3 11  1  0  0  0  0
  3 45  1  0  0  0  0
  5  6  1  0  0  0  0
  5 12  1  0  0  0  0
  5 37  1  1  0  0  0
  6 30  1  0  0  0  0
  7 14  1  0  0  0  0
  7 41  1  0  0  0  0
  7 23  1  1  0  0  0
  8 16  2  0  0  0  0
  8 42  1  0  0  0  0
  9 10  1  1  0  0  0
  9 18  1  0  0  0  0
 11 20  1  0  0  0  0
 12 13  1  6  0  0  0
 12 22  1  0  0  0  0
 13 47  1  0  0  0  0
 14 15  1  1  0  0  0
 14 24  1  0  0  0  0
 16 17  1  0  0  0  0
 17 26  2  0  0  0  0
 18 19  1  6  0  0  0
 18 27  1  0  0  0  0
 20 21  1  6  0  0  0
 20 29  1  0  0  0  0
 22 23  1  1  0  0  0
 22 30  1  0  0  0  0
 24 25  1  6  0  0  0
 24 31  1  0  0  0  0
 26 33  1  0  0  0  0
 27 28  1  1  0  0  0
 27 34  1  0  0  0  0
 29  2  1  6  0  0  0
 29 36  1  0  0  0  0
 30 38  1  6  0  0  0
 31 32  1  1  0  0  0
 31 40  1  0  0  0  0
 33 42  2  0  0  0  0
 34 35  1  0  0  0  0
 34 43  1  6  0  0  0
 36 37  1  1  0  0  0
 36 45  1  0  0  0  0
 38 39  1  0  0  0  0
 40 41  1  0  0  0  0
 40 48  1  1  0  0  0
 43 44  1  0  0  0  0
 45 46  1  1  0  0  0
 47 50  1  0  0  0  0
 48 49  1  0  0  0  0
 50 51  1  0  0  0  0
 51 52  1  0  0  0  0
 52  8  1  0  0  0  0
M  END
>  <CHROM.1>
-125.30097360,-149.59856958,-164.95456119,-38.71265528,-67.68868401,-72.82172156
-30.63351142,47.39058751,150.08200704,99.21784387,176.29445761,131.78410849
101.69235918,-148.57728440,-170.52259517,26.77077786,20.86315697,-3.52342639
2.01211276,-0.47073506,-1.54460275

>  <Name>
2be0_lig

>  <RI>
0

>  <Rbt.Current_Directory>
/home/itssahil/PROJECTS/Mol_Feturizer/New_Systems/rnas/2be0

>  <Rbt.Executable>
rbdock ($Id: //depot/dev/client3/rdock/2013.1/src/exe/rbdock.cxx#4 $)

>  <Rbt.Library>
libRbt.so (2013.1, Build901 2013/11/27)

>  <Rbt.Parameter_File>
/export/apps/rDock/src/rDock_2013.1_src/data/scripts/dock_solv.prm

>  <Rbt.Receptor>
prm/blind_docking_40.prm

>  <SCORE>
38.485

>  <SCORE.INTER>
12.9627

>  <SCORE.INTER.CONST>
1

>  <SCORE.INTER.POLAR>
0

>  <SCORE.INTER.ROT>
15

>  <SCORE.INTER.SOLV>
22.586

>  <SCORE.INTER.VDW>
-12.4869

>  <SCORE.INTER.norm>
0.249282

>  <SCORE.INTRA>
8.36624

>  <SCORE.INTRA.DIHEDRAL>
-13.4682

>  <SCORE.INTRA.DIHEDRAL.0>
47.8724

>  <SCORE.INTRA.POLAR>
0

>  <SCORE.INTRA.POLAR.0>
0

>  <SCORE.INTRA.REPUL>
0

>  <SCORE.INTRA.REPUL.0>
0

>  <SCORE.INTRA.SOLV>
5.19615

>  <SCORE.INTRA.SOLV.lig_0>
-115.677

>  <SCORE.INTRA.VDW>
12.5023

>  <SCORE.INTRA.VDW.0>
-7.4833

>  <SCORE.INTRA.norm>
0.160889

>  <SCORE.RESTR>
17.1561

>  <SCORE.RESTR.CAVITY>
17.1561

>  <SCORE.RESTR.norm>
0.329925

>  <SCORE.SYSTEM>
0

>  <SCORE.SYSTEM.CONST>
0

>  <SCORE.SYSTEM.DIHEDRAL>
0

>  <SCORE.SYSTEM.SOLV>
0

>  <SCORE.SYSTEM.norm>
0

>  <SCORE.heavy>
52

>  <SCORE.norm>
0.740097

>  <RMSD>
23.988

$$$$
2be0_lig
 OpenBabel11021811423D
libRbt.so/2013.1/901 2013/11/27
 52 56  0  0  0  0  0  0  0  0999 V2000
   30.9904   21.3653   -1.9031 C   0  0  2  0  0  0  0  0  0  0  0  0
   29.8986   22.2421   -2.0515 O   0  0  0  0  0  0  0  0  0  0  0  0
   29.3520   23.4455    2.1466 C   0  0  2  0  0  0  0  0  0  0  0  0
   28.7815   24.1334    3.3386 N   0  0  0  0  0  0  0  0  0  0  0  0
   27.4092   21.4111   -1.7004 C   0  0  2  0  0  0  0  0  0  0  0  0
   26.9922   22.7905   -1.6390 O   0  0  0  0  0  0  0  0  0  0  0  0
   23.2560   19.8139   -1.7313 C   0  0  1  0  0  0  0  0  0  0  0  0
   28.3460   20.9231   -7.6910 C   0  0  0  0  0  0  0  0  0  0  0  0
   31.4132   20.7359   -3.2926 C   0  0  2  0  0  0  0  0  0  0  0  0
   31.6670   21.8028   -4.2631 N   0  0  0  0  0  0  0  0  0  0  0  0
   29.7876   24.5406    1.0699 C   0  0  0  0  0  0  0  0  0  0  0  0
   26.1610   20.5862   -2.0526 C   0  0  2  0  0  0  0  0  0  0  0  0
   26.1068   20.6545   -3.5458 O   0  0  0  0  0  0  0  0  0  0  0  0
   22.8916   19.6705   -3.3086 C   0  0  2  0  0  0  0  0  0  0  0  0
   21.8661   20.7050   -3.6608 N   0  0  0  0  0  0  0  0  0  0  0  0
   28.5503   21.7783   -8.8231 C   0  0  0  0  0  0  0  0  0  0  0  0
   29.7461   22.5364   -8.9251 N   0  0  0  0  0  0  0  0  0  0  0  0
   30.2776   19.7287   -3.7941 C   0  0  1  0  0  0  0  0  0  0  0  0
   30.6719   19.1819   -5.0430 O   0  0  0  0  0  0  0  0  0  0  0  0
   30.4069   23.8249   -0.2621 C   0  0  2  0  0  0  0  0  0  0  0  0
   30.8050   24.7998   -1.2380 N   0  0  0  0  0  0  0  0  0  0  0  0
   25.1247   21.3569   -1.2130 C   0  0  2  0  0  0  0  0  0  0  0  0
   23.7558   21.1478   -1.5274 O   0  0  0  0  0  0  0  0  0  0  0  0
   22.3355   18.2334   -3.5422 C   0  0  1  0  0  0  0  0  0  0  0  0
   23.4233   17.3089   -3.1826 O   0  0  0  0  0  0  0  0  0  0  0  0
   30.7763   22.4954   -7.9427 C   0  0  0  0  0  0  0  0  0  0  0  0
   30.0822   18.6251   -2.7142 C   0  0  2  0  0  0  0  0  0  0  0  0
   29.0339   17.6592   -3.1229 O   0  0  0  0  0  0  0  0  0  0  0  0
   29.3329   22.8477   -0.8955 C   0  0  2  0  0  0  0  0  0  0  0  0
   25.5802   22.8295   -1.3466 C   0  0  1  0  0  0  0  0  0  0  0  0
   21.0232   17.9868   -2.6132 C   0  0  2  0  0  0  0  0  0  0  0  0
   19.9318   18.9078   -2.9668 O   0  0  0  0  0  0  0  0  0  0  0  0
   30.6309   21.6675   -6.8023 C   0  0  0  0  0  0  0  0  0  0  0  0
   29.6621   19.2713   -1.3382 C   0  0  2  0  0  0  0  0  0  0  0  0
   30.7222   20.2060   -0.9953 O   0  0  0  0  0  0  0  0  0  0  0  0
   28.9323   21.8024    0.2026 C   0  0  2  0  0  0  0  0  0  0  0  0
   27.9870   20.9810   -0.4721 O   0  0  0  0  0  0  0  0  0  0  0  0
   25.4162   23.6108   -0.0440 C   0  0  0  0  0  0  0  0  0  0  0  0
   26.3240   24.6698    0.1455 O   0  0  0  0  0  0  0  0  0  0  0  0
   21.4150   18.1852   -1.0770 C   0  0  1  0  0  0  0  0  0  0  0  0
   21.9933   19.5745   -0.9042 O   0  0  0  0  0  0  0  0  0  0  0  0
   29.4006   20.8569   -6.6487 C   0  0  0  0  0  0  0  0  0  0  0  0
   29.5139   18.1856   -0.3557 C   0  0  0  0  0  0  0  0  0  0  0  0
   29.1664   18.7012    0.8301 O   0  0  0  0  0  0  0  0  0  0  0  0
   28.3074   22.5286    1.4673 C   0  0  1  0  0  0  0  0  0  0  0  0
   27.9674   21.5904    2.4346 O   0  0  0  0  0  0  0  0  0  0  0  0
   26.2517   21.8450   -4.4165 C   0  0  0  0  0  0  0  0  0  0  0  0
   20.1265   17.9494   -0.2428 C   0  0  0  0  0  0  0  0  0  0  0  0
   19.6020   16.6279   -0.4821 N   0  0  0  0  0  0  0  0  0  0  0  0
   25.7410   21.4543   -5.8071 C   0  0  0  0  0  0  0  0  0  0  0  0
   26.3236   20.1299   -6.1986 N   0  0  0  0  0  0  0  0  0  0  0  0
   26.9842   20.0759   -7.6025 C   0  0  0  0  0  0  0  0  0  0  0  0
  1  2  1  6  0  0  0
  1  9  1  0  0  0  0
  1 35  1  0  0  0  0
  3  4  1  1  0  0  0
  3 11  1  0  0  0  0
  3 45  1  0  0  0  0
  5  6  1  0  0  0  0
  5 12  1  0  0  0  0
  5 37  1  1  0  0  0
  6 30  1  0  0  0  0
  7 14  1  0  0  0  0
  7 41  1  0  0  0  0
  7 23  1  6  0  0  0
  8 16  2  0  0  0  0
  8 42  1  0  0  0  0
  9 10  1  6  0  0  0
  9 18  1  0  0  0  0
 11 20  1  0  0  0  0
 12 13  1  6  0  0  0
 12 22  1  0  0  0  0
 13 47  1  0  0  0  0
 14 15  1  1  0  0  0
 14 24  1  0  0  0  0
 16 17  1  0  0  0  0
 17 26  2  0  0  0  0
 18 19  1  6  0  0  0
 18 27  1  0  0  0  0
 20 21  1  6  0  0  0
 20 29  1  0  0  0  0
 22 23  1  6  0  0  0
 22 30  1  0  0  0  0
 24 25  1  1  0  0  0
 24 31  1  0  0  0  0
 26 33  1  0  0  0  0
 27 28  1  6  0  0  0
 27 34  1  0  0  0  0
 29  2  1  6  0  0  0
 29 36  1  0  0  0  0
 30 38  1  1  0  0  0
 31 32  1  6  0  0  0
 31 40  1  0  0  0  0
 33 42  2  0  0  0  0
 34 35  1  0  0  0  0
 34 43  1  1  0  0  0
 36 37  1  6  0  0  0
 36 45  1  0  0  0  0
 38 39  1  0  0  0  0
 40 41  1  0  0  0  0
 40 48  1  1  0  0  0
 43 44  1  0  0  0  0
 45 46  1  1  0  0  0
 47 50  1  0  0  0  0
 48 49  1  0  0  0  0
 50 51  1  0  0  0  0
 51 52  1  0  0  0  0
 52  8  1  0  0  0  0
M  END
>  <CHROM.1>
176.64391996,-45.07375848,-110.91364943,-46.97361502,-164.72371258,45.93253172
65.82739528,34.78659734,179.54305772,-14.77179608,58.60367357,-46.78904663
-129.77245183,69.41337334,-134.52689855,27.04984917,20.86482237,-2.40507949
-0.04145281,0.35615795,1.34353384

>  <Name>
2be0_lig

>  <RI>
0

>  <Rbt.Current_Directory>
/home/itssahil/PROJECTS/Mol_Feturizer/New_Systems/rnas/2be0

>  <Rbt.Executable>
rbdock ($Id: //depot/dev/client3/rdock/2013.1/src/exe/rbdock.cxx#4 $)

>  <Rbt.Library>
libRbt.so (2013.1, Build901 2013/11/27)

>  <Rbt.Parameter_File>
/export/apps/rDock/src/rDock_2013.1_src/data/scripts/dock_solv.prm

>  <Rbt.Receptor>
prm/blind_docking_40.prm

>  <SCORE>
-0.0972197

>  <SCORE.INTER>
-12.8275

>  <SCORE.INTER.CONST>
1

>  <SCORE.INTER.POLAR>
-0.925663

>  <SCORE.INTER.ROT>
15

>  <SCORE.INTER.SOLV>
26.9577

>  <SCORE.INTER.VDW>
-28.052

>  <SCORE.INTER.norm>
-0.246682

>  <SCORE.INTRA>
-1.01323

>  <SCORE.INTRA.DIHEDRAL>
-25.924

>  <SCORE.INTRA.DIHEDRAL.0>
47.8724

>  <SCORE.INTRA.POLAR>
0

>  <SCORE.INTRA.POLAR.0>
0

>  <SCORE.INTRA.REPUL>
0

>  <SCORE.INTRA.REPUL.0>
0

>  <SCORE.INTRA.SOLV>
2.52338

>  <SCORE.INTRA.SOLV.lig_0>
-115.677

>  <SCORE.INTRA.VDW>
10.6871

>  <SCORE.INTRA.VDW.0>
-7.4833

>  <SCORE.INTRA.norm>
-0.0194851

>  <SCORE.RESTR>
13.7435

>  <SCORE.RESTR.CAVITY>
13.7435

>  <SCORE.RESTR.norm>
0.264298

>  <SCORE.SYSTEM>
0

>  <SCORE.SYSTEM.CONST>
0

>  <SCORE.SYSTEM.DIHEDRAL>
0

>  <SCORE.SYSTEM.SOLV>
0

>  <SCORE.SYSTEM.norm>
0

>  <SCORE.heavy>
52

>  <SCORE.norm>
-0.00186961

>  <RMSD>
23.990

$$$$
2be0_lig
 OpenBabel11021811423D
libRbt.so/2013.1/901 2013/11/27
 52 56  0  0  0  0  0  0  0  0999 V2000
   28.0099   20.7222   -5.1619 C   0  0  2  0  0  0  0  0  0  0  0  0
   27.7089   21.3808   -3.9543 O   0  0  0  0  0  0  0  0  0  0  0  0
   29.7150   18.6831   -1.1137 C   0  0  2  0  0  0  0  0  0  0  0  0
   30.1719   18.1123    0.1843 N   0  0  0  0  0  0  0  0  0  0  0  0
   25.4796   19.6638   -1.6138 C   0  0  2  0  0  0  0  0  0  0  0  0
   25.0113   21.0260   -1.6878 O   0  0  0  0  0  0  0  0  0  0  0  0
   26.7195   22.1548    1.8245 C   0  0  1  0  0  0  0  0  0  0  0  0
   22.3511   19.2272   -3.1060 C   0  0  0  0  0  0  0  0  0  0  0  0
   28.8874   21.6366   -6.1103 C   0  0  2  0  0  0  0  0  0  0  0  0
   30.0823   22.0896   -5.3951 N   0  0  0  0  0  0  0  0  0  0  0  0
   30.1825   20.2065   -1.2082 C   0  0  0  0  0  0  0  0  0  0  0  0
   26.2646   19.5361   -0.2985 C   0  0  2  0  0  0  0  0  0  0  0  0
   25.2037   19.2448    0.7149 O   0  0  0  0  0  0  0  0  0  0  0  0
   26.7427   23.6819    1.2688 C   0  0  2  0  0  0  0  0  0  0  0  0
   28.1642   24.1536    1.2197 N   0  0  0  0  0  0  0  0  0  0  0  0
   22.3011   20.1469   -4.2044 C   0  0  0  0  0  0  0  0  0  0  0  0
   22.8384   19.7692   -5.4629 N   0  0  0  0  0  0  0  0  0  0  0  0
   28.0073   22.8614   -6.6406 C   0  0  1  0  0  0  0  0  0  0  0  0
   28.8134   23.6719   -7.4817 O   0  0  0  0  0  0  0  0  0  0  0  0
   29.6876   20.8751   -2.6146 C   0  0  2  0  0  0  0  0  0  0  0  0
   30.1039   22.2456   -2.7130 N   0  0  0  0  0  0  0  0  0  0  0  0
   26.9603   20.9104   -0.3050 C   0  0  2  0  0  0  0  0  0  0  0  0
   27.5118   21.3599    0.9240 O   0  0  0  0  0  0  0  0  0  0  0  0
   25.8988   24.5582    2.2430 C   0  0  1  0  0  0  0  0  0  0  0  0
   24.5297   24.0188    2.1988 O   0  0  0  0  0  0  0  0  0  0  0  0
   23.4394   18.5000   -5.7000 C   0  0  0  0  0  0  0  0  0  0  0  0
   26.7711   22.2926   -7.3959 C   0  0  2  0  0  0  0  0  0  0  0  0
   25.9111   23.3859   -7.9098 O   0  0  0  0  0  0  0  0  0  0  0  0
   28.1094   20.7908   -2.7235 C   0  0  2  0  0  0  0  0  0  0  0  0
   25.8827   21.8539   -0.8903 C   0  0  1  0  0  0  0  0  0  0  0  0
   26.5163   24.4723    3.7453 C   0  0  2  0  0  0  0  0  0  0  0  0
   27.8850   25.0094    3.7970 O   0  0  0  0  0  0  0  0  0  0  0  0
   23.5164   17.5493   -4.6525 C   0  0  0  0  0  0  0  0  0  0  0  0
   25.9105   21.3846   -6.4355 C   0  0  2  0  0  0  0  0  0  0  0  0
   26.8057   20.3399   -5.9644 O   0  0  0  0  0  0  0  0  0  0  0  0
   27.7034   19.2800   -2.6146 C   0  0  2  0  0  0  0  0  0  0  0  0
   26.2869   19.3234   -2.7362 O   0  0  0  0  0  0  0  0  0  0  0  0
   26.4755   22.9070   -1.8250 C   0  0  0  0  0  0  0  0  0  0  0  0
   25.7040   24.0724   -1.9913 O   0  0  0  0  0  0  0  0  0  0  0  0
   26.5193   22.9505    4.2322 C   0  0  1  0  0  0  0  0  0  0  0  0
   27.3087   22.1284    3.2344 O   0  0  0  0  0  0  0  0  0  0  0  0
   22.9706   17.8954   -3.3196 C   0  0  0  0  0  0  0  0  0  0  0  0
   24.7728   20.8606   -7.2082 C   0  0  0  0  0  0  0  0  0  0  0  0
   23.9768   21.8735   -7.5731 O   0  0  0  0  0  0  0  0  0  0  0  0
   28.1720   18.6719   -1.2260 C   0  0  1  0  0  0  0  0  0  0  0  0
   27.8143   17.3311   -1.1493 O   0  0  0  0  0  0  0  0  0  0  0  0
   23.7845   18.8872    0.4817 C   0  0  0  0  0  0  0  0  0  0  0  0
   27.1270   22.9292    5.6612 C   0  0  0  0  0  0  0  0  0  0  0  0
   26.2574   23.6039    6.5924 N   0  0  0  0  0  0  0  0  0  0  0  0
   22.9782   20.1896    0.5111 C   0  0  0  0  0  0  0  0  0  0  0  0
   22.6748   20.6202   -0.8922 N   0  0  0  0  0  0  0  0  0  0  0  0
   21.7341   19.6808   -1.6940 C   0  0  0  0  0  0  0  0  0  0  0  0
  1  2  1  1  0  0  0
  1  9  1  0  0  0  0
  1 35  1  0  0  0  0
  3  4  1  1  0  0  0
  3 11  1  0  0  0  0
  3 45  1  0  0  0  0
  5  6  1  0  0  0  0
  5 12  1  0  0  0  0
  5 37  1  6  0  0  0
  6 30  1  0  0  0  0
  7 14  1  0  0  0  0
  7 41  1  0  0  0  0
  7 23  1  6  0  0  0
  8 16  2  0  0  0  0
  8 42  1  0  0  0  0
  9 10  1  1  0  0  0
  9 18  1  0  0  0  0
 11 20  1  0  0  0  0
 12 13  1  1  0  0  0
 12 22  1  0  0  0  0
 13 47  1  0  0  0  0
 14 15  1  1  0  0  0
 14 24  1  0  0  0  0
 16 17  1  0  0  0  0
 17 26  2  0  0  0  0
 18 19  1  6  0  0  0
 18 27  1  0  0  0  0
 20 21  1  1  0  0  0
 20 29  1  0  0  0  0
 22 23  1  1  0  0  0
 22 30  1  0  0  0  0
 24 25  1  1  0  0  0
 24 31  1  0  0  0  0
 26 33  1  0  0  0  0
 27 28  1  1  0  0  0
 27 34  1  0  0  0  0
 29  2  1  6  0  0  0
 29 36  1  0  0  0  0
 30 38  1  6  0  0  0
 31 32  1  6  0  0  0
 31 40  1  0  0  0  0
 33 42  2  0  0  0  0
 34 35  1  0  0  0  0
 34 43  1  6  0  0  0
 36 37  1  1  0  0  0
 36 45  1  0  0  0  0
 38 39  1  0  0  0  0
 40 41  1  0  0  0  0
 40 48  1  1  0  0  0
 43 44  1  0  0  0  0
 45 46  1  6  0  0  0
 47 50  1  0  0  0  0
 48 49  1  0  0  0  0
 50 51  1  0  0  0  0
 51 52  1  0  0  0  0
 52  8  1  0  0  0  0
M  END
>  <CHROM.1>
-121.51118424,102.23937528,-80.07141924,11.28184288,-92.86618914,-90.98579331
69.91543997,86.89941677,-64.99027684,-80.35473929,66.72449915,101.09421366
65.74756338,-126.60198725,-78.62578065,26.36237095,21.20203238,-1.80727806
-1.66033662,0.46388809,1.41610881

>  <Name>
2be0_lig

>  <RI>
0

>  <Rbt.Current_Directory>
/home/itssahil/PROJECTS/Mol_Feturizer/New_Systems/rnas/2be0

>  <Rbt.Executable>
rbdock ($Id: //depot/dev/client3/rdock/2013.1/src/exe/rbdock.cxx#4 $)

>  <Rbt.Library>
libRbt.so (2013.1, Build901 2013/11/27)

>  <Rbt.Parameter_File>
/export/apps/rDock/src/rDock_2013.1_src/data/scripts/dock_solv.prm

>  <Rbt.Receptor>
prm/blind_docking_40.prm

>  <SCORE>
40.5977

>  <SCORE.INTER>
-1.22953

>  <SCORE.INTER.CONST>
1

>  <SCORE.INTER.POLAR>
-0.307198

>  <SCORE.INTER.ROT>
15

>  <SCORE.INTER.SOLV>
22.661

>  <SCORE.INTER.VDW>
-20.9494

>  <SCORE.INTER.norm>
-0.0236447

>  <SCORE.INTRA>
24.7849

>  <SCORE.INTRA.DIHEDRAL>
-7.90404

>  <SCORE.INTRA.DIHEDRAL.0>
47.8724

>  <SCORE.INTRA.POLAR>
0

>  <SCORE.INTRA.POLAR.0>
0

>  <SCORE.INTRA.REPUL>
0.0164965

>  <SCORE.INTRA.REPUL.0>
0

>  <SCORE.INTRA.SOLV>
8.05072

>  <SCORE.INTRA.SOLV.lig_0>
-115.677

>  <SCORE.INTRA.VDW>
24.6291

>  <SCORE.INTRA.VDW.0>
-7.4833

>  <SCORE.INTRA.norm>
0.476634

>  <SCORE.RESTR>
17.0423

>  <SCORE.RESTR.CAVITY>
17.0423

>  <SCORE.RESTR.norm>
0.327736

>  <SCORE.SYSTEM>
0

>  <SCORE.SYSTEM.CONST>
0

>  <SCORE.SYSTEM.DIHEDRAL>
0

>  <SCORE.SYSTEM.SOLV>
0

>  <SCORE.SYSTEM.norm>
0

>  <SCORE.heavy>
52

>  <SCORE.norm>
0.780725

>  <RMSD>
24.005

$$$$
2be0_lig
 OpenBabel11021811423D
libRbt.so/2013.1/901 2013/11/27
 52 56  0  0  0  0  0  0  0  0999 V2000
   28.1289   21.8098   -3.7392 C   0  0  2  0  0  0  0  0  0  0  0  0
   28.2405   20.5936   -3.0384 O   0  0  0  0  0  0  0  0  0  0  0  0
   30.6996   19.0206    0.2554 C   0  0  2  0  0  0  0  0  0  0  0  0
   31.8956   18.7675    1.1069 N   0  0  0  0  0  0  0  0  0  0  0  0
   27.5315   22.6454   -0.1962 C   0  0  2  0  0  0  0  0  0  0  0  0
   27.6687   24.0177    0.2260 O   0  0  0  0  0  0  0  0  0  0  0  0
   26.6114   23.0414    4.0495 C   0  0  1  0  0  0  0  0  0  0  0  0
   22.6201   19.8013   -2.9155 C   0  0  0  0  0  0  0  0  0  0  0  0
   26.8916   21.7912   -4.7264 C   0  0  2  0  0  0  0  0  0  0  0  0
   25.6747   21.4446   -3.9891 N   0  0  0  0  0  0  0  0  0  0  0  0
   31.0200   18.5718   -1.2426 C   0  0  0  0  0  0  0  0  0  0  0  0
   27.1497   21.8339    1.0521 C   0  0  2  0  0  0  0  0  0  0  0  0
   25.6627   21.9794    1.1223 O   0  0  0  0  0  0  0  0  0  0  0  0
   27.1323   24.5138    4.4989 C   0  0  2  0  0  0  0  0  0  0  0  0
   28.2613   24.3482    5.4703 N   0  0  0  0  0  0  0  0  0  0  0  0
   23.8095   19.0038   -2.8501 C   0  0  0  0  0  0  0  0  0  0  0  0
   24.4926   18.6605   -4.0462 N   0  0  0  0  0  0  0  0  0  0  0  0
   27.1756   20.7720   -5.9249 C   0  0  1  0  0  0  0  0  0  0  0  0
   26.0529   20.7645   -6.7930 O   0  0  0  0  0  0  0  0  0  0  0  0
   29.7353   18.8467   -2.2140 C   0  0  2  0  0  0  0  0  0  0  0  0
   30.0100   18.4449   -3.5647 N   0  0  0  0  0  0  0  0  0  0  0  0
   28.0387   22.5551    2.0829 C   0  0  2  0  0  0  0  0  0  0  0  0
   27.7278   22.3561    3.4541 O   0  0  0  0  0  0  0  0  0  0  0  0
   25.9358   25.2637    5.1586 C   0  0  1  0  0  0  0  0  0  0  0  0
   24.9018   25.3829    4.1174 O   0  0  0  0  0  0  0  0  0  0  0  0
   24.0515   19.0717   -5.3363 C   0  0  0  0  0  0  0  0  0  0  0  0
   28.4727   21.2200   -6.6591 C   0  0  2  0  0  0  0  0  0  0  0  0
   28.7912   20.3068   -7.7832 O   0  0  0  0  0  0  0  0  0  0  0  0
   29.3585   20.3851   -2.1841 C   0  0  2  0  0  0  0  0  0  0  0  0
   27.9771   24.0349    1.6350 C   0  0  1  0  0  0  0  0  0  0  0  0
   25.3880   24.4208    6.4374 C   0  0  2  0  0  0  0  0  0  0  0  0
   26.4165   24.2973    7.4821 O   0  0  0  0  0  0  0  0  0  0  0  0
   22.8829   19.8624   -5.4634 C   0  0  0  0  0  0  0  0  0  0  0  0
   29.6930   21.2328   -5.6599 C   0  0  2  0  0  0  0  0  0  0  0  0
   29.3197   22.1378   -4.5845 O   0  0  0  0  0  0  0  0  0  0  0  0
   29.0647   20.7757   -0.6941 C   0  0  2  0  0  0  0  0  0  0  0  0
   28.7298   22.1549   -0.7886 O   0  0  0  0  0  0  0  0  0  0  0  0
   29.3202   24.7467    1.7886 C   0  0  0  0  0  0  0  0  0  0  0  0
   30.1546   24.7169    0.6554 O   0  0  0  0  0  0  0  0  0  0  0  0
   24.9328   22.9659    5.9591 C   0  0  1  0  0  0  0  0  0  0  0  0
   26.1093   22.2923    5.2834 O   0  0  0  0  0  0  0  0  0  0  0  0
   22.1333   20.2469   -4.2450 C   0  0  0  0  0  0  0  0  0  0  0  0
   30.8809   21.6830   -6.4031 C   0  0  0  0  0  0  0  0  0  0  0  0
   30.7684   22.9892   -6.6751 O   0  0  0  0  0  0  0  0  0  0  0  0
   30.3414   20.5250    0.2139 C   0  0  1  0  0  0  0  0  0  0  0  0
   30.0618   20.8659    1.5319 O   0  0  0  0  0  0  0  0  0  0  0  0
   24.7068   22.1871    0.0089 C   0  0  0  0  0  0  0  0  0  0  0  0
   24.4322   22.2070    7.2181 C   0  0  0  0  0  0  0  0  0  0  0  0
   25.4993   22.0529    8.1754 N   0  0  0  0  0  0  0  0  0  0  0  0
   23.6867   21.0456    0.0684 C   0  0  0  0  0  0  0  0  0  0  0  0
   22.5152   21.3774   -0.8057 N   0  0  0  0  0  0  0  0  0  0  0  0
   21.8686   20.1758   -1.5461 C   0  0  0  0  0  0  0  0  0  0  0  0
  1  2  1  6  0  0  0
  1  9  1  0  0  0  0
  1 35  1  0  0  0  0
  3  4  1  1  0  0  0
  3 11  1  0  0  0  0
  3 45  1  0  0  0  0
  5  6  1  0  0  0  0
  5 12  1  0  0  0  0
  5 37  1  1  0  0  0
  6 30  1  0  0  0  0
  7 14  1  0  0  0  0
  7 41  1  0  0  0  0
  7 23  1  1  0  0  0
  8 16  2  0  0  0  0
  8 42  1  0  0  0  0
  9 10  1  1  0  0  0
  9 18  1  0  0  0  0
 11 20  1  0  0  0  0
 12 13  1  1  0  0  0
 12 22  1  0  0  0  0
 13 47  1  0  0  0  0
 14 15  1  1  0  0  0
 14 24  1  0  0  0  0
 16 17  1  0  0  0  0
 17 26  2  0  0  0  0
 18 19  1  6  0  0  0
 18 27  1  0  0  0  0
 20 21  1  6  0  0  0
 20 29  1  0  0  0  0
 22 23  1  1  0  0  0
 22 30  1  0  0  0  0
 24 25  1  6  0  0  0
 24 31  1  0  0  0  0
 26 33  1  0  0  0  0
 27 28  1  6  0  0  0
 27 34  1  0  0  0  0
 29  2  1  6  0  0  0
 29 36  1  0  0  0  0
 30 38  1  6  0  0  0
 31 32  1  1  0  0  0
 31 40  1  0  0  0  0
 33 42  2  0  0  0  0
 34 35  1  0  0  0  0
 34 43  1  6  0  0  0
 36 37  1  6  0  0  0
 36 45  1  0  0  0  0
 38 39  1  0  0  0  0
 40 41  1  0  0  0  0
 40 48  1  1  0  0  0
 43 44  1  0  0  0  0
 45 46  1  1  0  0  0
 47 50  1  0  0  0  0
 48 49  1  0  0  0  0
 50 51  1  0  0  0  0
 51 52  1  0  0  0  0
 52  8  1  0  0  0  0
M  END
>  <CHROM.1>
174.94455846,149.92598809,-84.47206043,28.80669519,122.97108044,-76.76989538
-146.87669176,-24.53708868,71.26922319,128.72418441,-62.30276646,166.20070896
144.42468715,-83.79264980,81.12653918,27.17015554,21.69770264,-0.46167975
-1.45803230,0.07585231,1.28949956

>  <Name>
2be0_lig

>  <RI>
0

>  <Rbt.Current_Directory>
/home/itssahil/PROJECTS/Mol_Feturizer/New_Systems/rnas/2be0

>  <Rbt.Executable>
rbdock ($Id: //depot/dev/client3/rdock/2013.1/src/exe/rbdock.cxx#4 $)

>  <Rbt.Library>
libRbt.so (2013.1, Build901 2013/11/27)

>  <Rbt.Parameter_File>
/export/apps/rDock/src/rDock_2013.1_src/data/scripts/dock_solv.prm

>  <Rbt.Receptor>
prm/blind_docking_40.prm

>  <SCORE>
14.7468

>  <SCORE.INTER>
-0.0164647

>  <SCORE.INTER.CONST>
1

>  <SCORE.INTER.POLAR>
-0.150848

>  <SCORE.INTER.ROT>
15

>  <SCORE.INTER.SOLV>
25.6434

>  <SCORE.INTER.VDW>
-21.6559

>  <SCORE.INTER.norm>
-0.000316628

>  <SCORE.INTRA>
-0.305467

>  <SCORE.INTRA.DIHEDRAL>
-11.8237

>  <SCORE.INTRA.DIHEDRAL.0>
47.8724

>  <SCORE.INTRA.POLAR>
0

>  <SCORE.INTRA.POLAR.0>
0

>  <SCORE.INTRA.REPUL>
0

>  <SCORE.INTRA.REPUL.0>
0

>  <SCORE.INTRA.SOLV>
5.9598

>  <SCORE.INTRA.SOLV.lig_0>
-115.677

>  <SCORE.INTRA.VDW>
2.62647

>  <SCORE.INTRA.VDW.0>
-7.4833

>  <SCORE.INTRA.norm>
-0.00587436

>  <SCORE.RESTR>
15.0687

>  <SCORE.RESTR.CAVITY>
15.0687

>  <SCORE.RESTR.norm>
0.289783

>  <SCORE.SYSTEM>
0

>  <SCORE.SYSTEM.CONST>
0

>  <SCORE.SYSTEM.DIHEDRAL>
0

>  <SCORE.SYSTEM.SOLV>
0

>  <SCORE.SYSTEM.norm>
0

>  <SCORE.heavy>
52

>  <SCORE.norm>
0.283592

>  <RMSD>
24.017

$$$$
2be0_lig
 OpenBabel11021811423D
libRbt.so/2013.1/901 2013/11/27
 52 56  0  0  0  0  0  0  0  0999 V2000
   28.0351   21.5064   -3.7085 C   0  0  2  0  0  0  0  0  0  0  0  0
   28.3911   20.2458   -3.1918 O   0  0  0  0  0  0  0  0  0  0  0  0
   31.2896   18.8493   -0.1886 C   0  0  2  0  0  0  0  0  0  0  0  0
   32.5855   18.6751    0.5255 N   0  0  0  0  0  0  0  0  0  0  0  0
   27.6804   22.1936   -0.7167 C   0  0  2  0  0  0  0  0  0  0  0  0
   27.5456   23.5900   -0.3815 O   0  0  0  0  0  0  0  0  0  0  0  0
   27.0853   23.2089    3.8346 C   0  0  1  0  0  0  0  0  0  0  0  0
   21.7043   19.5597   -1.2533 C   0  0  0  0  0  0  0  0  0  0  0  0
   26.8998   21.3771   -4.8041 C   0  0  2  0  0  0  0  0  0  0  0  0
   25.7585   20.6450   -4.2509 N   0  0  0  0  0  0  0  0  0  0  0  0
   31.4691   18.4085   -1.7123 C   0  0  0  0  0  0  0  0  0  0  0  0
   27.1496   21.3962    0.4854 C   0  0  2  0  0  0  0  0  0  0  0  0
   25.6758   21.3312    0.2383 O   0  0  0  0  0  0  0  0  0  0  0  0
   27.0335   22.5774    5.3312 C   0  0  2  0  0  0  0  0  0  0  0  0
   25.8172   21.7094    5.4446 N   0  0  0  0  0  0  0  0  0  0  0  0
   21.7084   18.5164   -2.2363 C   0  0  0  0  0  0  0  0  0  0  0  0
   20.9882   17.3176   -1.9926 N   0  0  0  0  0  0  0  0  0  0  0  0
   27.4906   20.6669   -6.1089 C   0  0  1  0  0  0  0  0  0  0  0  0
   26.4566   20.5539   -7.0744 O   0  0  0  0  0  0  0  0  0  0  0  0
   30.0706   18.5982   -2.5358 C   0  0  2  0  0  0  0  0  0  0  0  0
   30.2182   18.2029   -3.9081 N   0  0  0  0  0  0  0  0  0  0  0  0
   27.6973   22.2850    1.6180 C   0  0  2  0  0  0  0  0  0  0  0  0
   27.1297   22.1091    2.9077 O   0  0  0  0  0  0  0  0  0  0  0  0
   26.9713   23.7582    6.3466 C   0  0  1  0  0  0  0  0  0  0  0  0
   28.2127   24.5270    6.1587 O   0  0  0  0  0  0  0  0  0  0  0  0
   20.2469   17.0877   -0.7986 C   0  0  0  0  0  0  0  0  0  0  0  0
   28.6853   21.5138   -6.6357 C   0  0  2  0  0  0  0  0  0  0  0  0
   29.2796   20.9004   -7.8480 O   0  0  0  0  0  0  0  0  0  0  0  0
   29.6072   20.1115   -2.4663 C   0  0  2  0  0  0  0  0  0  0  0  0
   27.5416   23.7179    1.0553 C   0  0  1  0  0  0  0  0  0  0  0  0
   25.6611   24.6762    6.0527 C   0  0  2  0  0  0  0  0  0  0  0  0
   24.4164   23.9142    6.2382 O   0  0  0  0  0  0  0  0  0  0  0  0
   20.2052   18.0831    0.2086 C   0  0  0  0  0  0  0  0  0  0  0  0
   29.8047   21.6316   -5.5310 C   0  0  2  0  0  0  0  0  0  0  0  0
   29.1621   22.2331   -4.3733 O   0  0  0  0  0  0  0  0  0  0  0  0
   29.4567   20.4956   -0.9535 C   0  0  2  0  0  0  0  0  0  0  0  0
   29.0307   21.8515   -1.0121 O   0  0  0  0  0  0  0  0  0  0  0  0
   28.7173   24.6205    1.4257 C   0  0  0  0  0  0  0  0  0  0  0  0
   29.7269   24.7305    0.4511 O   0  0  0  0  0  0  0  0  0  0  0  0
   25.7289   25.2357    4.5576 C   0  0  1  0  0  0  0  0  0  0  0  0
   25.8358   24.0595    3.6090 O   0  0  0  0  0  0  0  0  0  0  0  0
   20.9410   19.3521    0.0026 C   0  0  0  0  0  0  0  0  0  0  0  0
   30.8935   22.4576   -6.0771 C   0  0  0  0  0  0  0  0  0  0  0  0
   32.0729   21.9232   -5.7364 O   0  0  0  0  0  0  0  0  0  0  0  0
   30.8388   20.3291   -0.1921 C   0  0  1  0  0  0  0  0  0  0  0  0
   30.6864   20.6632    1.1483 O   0  0  0  0  0  0  0  0  0  0  0  0
   24.7153   22.4529    0.1131 C   0  0  0  0  0  0  0  0  0  0  0  0
   24.4530   26.0915    4.3317 C   0  0  0  0  0  0  0  0  0  0  0  0
   23.2669   25.2972    4.5346 N   0  0  0  0  0  0  0  0  0  0  0  0
   23.3676   21.9572    0.6471 C   0  0  0  0  0  0  0  0  0  0  0  0
   22.3528   21.9865   -0.4556 N   0  0  0  0  0  0  0  0  0  0  0  0
   22.5267   20.9058   -1.5565 C   0  0  0  0  0  0  0  0  0  0  0  0
  1  2  1  6  0  0  0
  1  9  1  0  0  0  0
  1 35  1  0  0  0  0
  3  4  1  1  0  0  0
  3 11  1  0  0  0  0
  3 45  1  0  0  0  0
  5  6  1  0  0  0  0
  5 12  1  0  0  0  0
  5 37  1  1  0  0  0
  6 30  1  0  0  0  0
  7 14  1  0  0  0  0
  7 41  1  0  0  0  0
  7 23  1  6  0  0  0
  8 16  2  0  0  0  0
  8 42  1  0  0  0  0
  9 10  1  1  0  0  0
  9 18  1  0  0  0  0
 11 20  1  0  0  0  0
 12 13  1  6  0  0  0
 12 22  1  0  0  0  0
 13 47  1  0  0  0  0
 14 15  1  6  0  0  0
 14 24  1  0  0  0  0
 16 17  1  0  0  0  0
 17 26  2  0  0  0  0
 18 19  1  6  0  0  0
 18 27  1  0  0  0  0
 20 21  1  6  0  0  0
 20 29  1  0  0  0  0
 22 23  1  1  0  0  0
 22 30  1  0  0  0  0
 24 25  1  6  0  0  0
 24 31  1  0  0  0  0
 26 33  1  0  0  0  0
 27 28  1  6  0  0  0
 27 34  1  0  0  0  0
 29  2  1  6  0  0  0
 29 36  1  0  0  0  0
 30 38  1  6  0  0  0
 31 32  1  6  0  0  0
 31 40  1  0  0  0  0
 33 42  2  0  0  0  0
 34 35  1  0  0  0  0
 34 43  1  6  0  0  0
 36 37  1  6  0  0  0
 36 45  1  0  0  0  0
 38 39  1  0  0  0  0
 40 41  1  0  0  0  0
 40 48  1  6  0  0  0
 43 44  1  0  0  0  0
 45 46  1  1  0  0  0
 47 50  1  0  0  0  0
 48 49  1  0  0  0  0
 50 51  1  0  0  0  0
 51 52  1  0  0  0  0
 52  8  1  0  0  0  0
M  END
>  <CHROM.1>
163.89692149,160.19136463,-154.95828499,-60.16513952,-148.60137929,-151.26609499
-156.31526069,-20.21557657,-138.43184040,106.40617148,-58.83507302,-117.59395801
71.88871292,91.50908483,175.89163722,26.99009292,21.58702289,-0.40200982
1.17513210,-0.21447017,-1.97225297

>  <Name>
2be0_lig

>  <RI>
0

>  <Rbt.Current_Directory>
/home/itssahil/PROJECTS/Mol_Feturizer/New_Systems/rnas/2be0

>  <Rbt.Executable>
rbdock ($Id: //depot/dev/client3/rdock/2013.1/src/exe/rbdock.cxx#4 $)

>  <Rbt.Library>
libRbt.so (2013.1, Build901 2013/11/27)

>  <Rbt.Parameter_File>
/export/apps/rDock/src/rDock_2013.1_src/data/scripts/dock_solv.prm

>  <Rbt.Receptor>
prm/blind_docking_40.prm

>  <SCORE>
16.0489

>  <SCORE.INTER>
-0.0546452

>  <SCORE.INTER.CONST>
1

>  <SCORE.INTER.POLAR>
-0.586756

>  <SCORE.INTER.ROT>
15

>  <SCORE.INTER.SOLV>
19.3011

>  <SCORE.INTER.VDW>
-18.1143

>  <SCORE.INTER.norm>
-0.00105087

>  <SCORE.INTRA>
-2.74929

>  <SCORE.INTRA.DIHEDRAL>
-10.7905

>  <SCORE.INTRA.DIHEDRAL.0>
47.8724

>  <SCORE.INTRA.POLAR>
0

>  <SCORE.INTRA.POLAR.0>
0

>  <SCORE.INTRA.REPUL>
0

>  <SCORE.INTRA.REPUL.0>
0

>  <SCORE.INTRA.SOLV>
-1.07337

>  <SCORE.INTRA.SOLV.lig_0>
-115.677

>  <SCORE.INTRA.VDW>
3.18266

>  <SCORE.INTRA.VDW.0>
-7.4833

>  <SCORE.INTRA.norm>
-0.052871

>  <SCORE.RESTR>
18.8529

>  <SCORE.RESTR.CAVITY>
18.8529

>  <SCORE.RESTR.norm>
0.362555

>  <SCORE.SYSTEM>
0

>  <SCORE.SYSTEM.CONST>
0

>  <SCORE.SYSTEM.DIHEDRAL>
0

>  <SCORE.SYSTEM.SOLV>
0

>  <SCORE.SYSTEM.norm>
0

>  <SCORE.heavy>
52

>  <SCORE.norm>
0.308633

>  <RMSD>
24.017

$$$$
2be0_lig
 OpenBabel11021811423D
libRbt.so/2013.1/901 2013/11/27
 52 56  0  0  0  0  0  0  0  0999 V2000
   26.3473   20.1982   -0.3590 C   0  0  2  0  0  0  0  0  0  0  0  0
   25.0289   19.7491   -0.5658 O   0  0  0  0  0  0  0  0  0  0  0  0
   23.1672   19.2354   -4.5207 C   0  0  2  0  0  0  0  0  0  0  0  0
   22.4265   19.5709   -5.7691 N   0  0  0  0  0  0  0  0  0  0  0  0
   27.5656   20.2472   -3.6488 C   0  0  2  0  0  0  0  0  0  0  0  0
   28.1193   18.9430   -3.3789 O   0  0  0  0  0  0  0  0  0  0  0  0
   30.7572   21.7160   -0.4540 C   0  0  1  0  0  0  0  0  0  0  0  0
   26.9565   21.6368   -7.2079 C   0  0  0  0  0  0  0  0  0  0  0  0
   26.7220   20.1876    1.1790 C   0  0  2  0  0  0  0  0  0  0  0  0
   26.4790   18.8564    1.7389 N   0  0  0  0  0  0  0  0  0  0  0  0
   22.2460   19.5698   -3.2606 C   0  0  0  0  0  0  0  0  0  0  0  0
   28.6735   21.2696   -3.3491 C   0  0  2  0  0  0  0  0  0  0  0  0
   29.4568   21.3194   -4.6225 O   0  0  0  0  0  0  0  0  0  0  0  0
   30.7831   20.5886    0.7163 C   0  0  2  0  0  0  0  0  0  0  0  0
   29.4898   19.8323    0.6836 N   0  0  0  0  0  0  0  0  0  0  0  0
   26.9824   20.3001   -7.7249 C   0  0  0  0  0  0  0  0  0  0  0  0
   25.7695   19.6718   -8.1111 N   0  0  0  0  0  0  0  0  0  0  0  0
   25.8897   21.3188    1.9427 C   0  0  1  0  0  0  0  0  0  0  0  0
   26.2340   21.2875    3.3191 O   0  0  0  0  0  0  0  0  0  0  0  0
   23.0288   19.2286   -1.8675 C   0  0  2  0  0  0  0  0  0  0  0  0
   22.2096   19.5230   -0.7258 N   0  0  0  0  0  0  0  0  0  0  0  0
   29.2814   20.5995   -2.1024 C   0  0  2  0  0  0  0  0  0  0  0  0
   30.5753   21.0292   -1.7054 O   0  0  0  0  0  0  0  0  0  0  0  0
   30.9661   21.3197    2.0805 C   0  0  1  0  0  0  0  0  0  0  0  0
   32.2647   22.0092    2.0059 O   0  0  0  0  0  0  0  0  0  0  0  0
   24.4999   20.3087   -8.0096 C   0  0  0  0  0  0  0  0  0  0  0  0
   26.2158   22.6959    1.2950 C   0  0  2  0  0  0  0  0  0  0  0  0
   25.4671   23.7889    1.9614 O   0  0  0  0  0  0  0  0  0  0  0  0
   24.3717   20.0651   -1.7871 C   0  0  2  0  0  0  0  0  0  0  0  0
   29.1959   19.0898   -2.4303 C   0  0  1  0  0  0  0  0  0  0  0  0
   29.7517   22.3768    2.3125 C   0  0  2  0  0  0  0  0  0  0  0  0
   28.4504   21.6947    2.3878 O   0  0  0  0  0  0  0  0  0  0  0  0
   24.4119   21.6303   -7.5068 C   0  0  0  0  0  0  0  0  0  0  0  0
   25.8364   22.6867   -0.2358 C   0  0  2  0  0  0  0  0  0  0  0  0
   26.5955   21.5974   -0.8292 O   0  0  0  0  0  0  0  0  0  0  0  0
   25.2322   19.7091   -3.0488 C   0  0  2  0  0  0  0  0  0  0  0  0
   26.4023   20.4970   -2.8664 O   0  0  0  0  0  0  0  0  0  0  0  0
   28.8315   18.2478   -1.2087 C   0  0  0  0  0  0  0  0  0  0  0  0
   27.9120   17.2079   -1.4423 O   0  0  0  0  0  0  0  0  0  0  0  0
   29.7332   23.4355    1.1160 C   0  0  1  0  0  0  0  0  0  0  0  0
   29.6017   22.6811   -0.1910 O   0  0  0  0  0  0  0  0  0  0  0  0
   25.6492   22.3295   -7.0893 C   0  0  0  0  0  0  0  0  0  0  0  0
   26.1860   24.0020   -0.7960 C   0  0  0  0  0  0  0  0  0  0  0  0
   25.8075   24.0554   -2.0792 O   0  0  0  0  0  0  0  0  0  0  0  0
   24.4551   20.0811   -4.3811 C   0  0  1  0  0  0  0  0  0  0  0  0
   25.2259   19.7504   -5.4893 O   0  0  0  0  0  0  0  0  0  0  0  0
   30.2176   20.2283   -5.2759 C   0  0  0  0  0  0  0  0  0  0  0  0
   28.5521   24.4074    1.3843 C   0  0  0  0  0  0  0  0  0  0  0  0
   28.6183   24.9277    2.7273 N   0  0  0  0  0  0  0  0  0  0  0  0
   29.7435   20.1535   -6.7308 C   0  0  0  0  0  0  0  0  0  0  0  0
   29.5894   21.5407   -7.2772 N   0  0  0  0  0  0  0  0  0  0  0  0
   28.3443   22.3234   -6.7801 C   0  0  0  0  0  0  0  0  0  0  0  0
  1  2  1  1  0  0  0
  1  9  1  0  0  0  0
  1 35  1  0  0  0  0
  3  4  1  6  0  0  0
  3 11  1  0  0  0  0
  3 45  1  0  0  0  0
  5  6  1  0  0  0  0
  5 12  1  0  0  0  0
  5 37  1  1  0  0  0
  6 30  1  0  0  0  0
  7 14  1  0  0  0  0
  7 41  1  0  0  0  0
  7 23  1  6  0  0  0
  8 16  2  0  0  0  0
  8 42  1  0  0  0  0
  9 10  1  1  0  0  0
  9 18  1  0  0  0  0
 11 20  1  0  0  0  0
 12 13  1  6  0  0  0
 12 22  1  0  0  0  0
 13 47  1  0  0  0  0
 14 15  1  1  0  0  0
 14 24  1  0  0  0  0
 16 17  1  0  0  0  0
 17 26  2  0  0  0  0
 18 19  1  1  0  0  0
 18 27  1  0  0  0  0
 20 21  1  1  0  0  0
 20 29  1  0  0  0  0
 22 23  1  6  0  0  0
 22 30  1  0  0  0  0
 24 25  1  6  0  0  0
 24 31  1  0  0  0  0
 26 33  1  0  0  0  0
 27 28  1  1  0  0  0
 27 34  1  0  0  0  0
 29  2  1  1  0  0  0
 29 36  1  0  0  0  0
 30 38  1  1  0  0  0
 31 32  1  6  0  0  0
 31 40  1  0  0  0  0
 33 42  2  0  0  0  0
 34 35  1  0  0  0  0
 34 43  1  6  0  0  0
 36 37  1  1  0  0  0
 36 45  1  0  0  0  0
 38 39  1  0  0  0  0
 40 41  1  0  0  0  0
 40 48  1  1  0  0  0
 43 44  1  0  0  0  0
 45 46  1  6  0  0  0
 47 50  1  0  0  0  0
 48 49  1  0  0  0  0
 50 51  1  0  0  0  0
 51 52  1  0  0  0  0
 52  8  1  0  0  0  0
M  END
>  <CHROM.1>
160.78747105,-64.34138774,79.99318364,-62.67028698,127.98724085,114.37277719
169.77424714,22.54835795,-176.54954562,166.31721203,51.04366174,41.76570522
-74.69945284,-62.79257706,12.62023907,27.18639371,20.98140562,-2.02014694
1.21430720,0.16341714,1.42196335

>  <Name>
2be0_lig

>  <RI>
0

>  <Rbt.Current_Directory>
/home/itssahil/PROJECTS/Mol_Feturizer/New_Systems/rnas/2be0

>  <Rbt.Executable>
rbdock ($Id: //depot/dev/client3/rdock/2013.1/src/exe/rbdock.cxx#4 $)

>  <Rbt.Library>
libRbt.so (2013.1, Build901 2013/11/27)

>  <Rbt.Parameter_File>
/export/apps/rDock/src/rDock_2013.1_src/data/scripts/dock_solv.prm

>  <Rbt.Receptor>
prm/blind_docking_40.prm

>  <SCORE>
10.832

>  <SCORE.INTER>
-5.17804

>  <SCORE.INTER.CONST>
1

>  <SCORE.INTER.POLAR>
-1.02218

>  <SCORE.INTER.ROT>
15

>  <SCORE.INTER.SOLV>
23.439

>  <SCORE.INTER.VDW>
-21.4578

>  <SCORE.INTER.norm>
-0.0995776

>  <SCORE.INTRA>
4.51137

>  <SCORE.INTRA.DIHEDRAL>
-22.5125

>  <SCORE.INTRA.DIHEDRAL.0>
47.8724

>  <SCORE.INTRA.POLAR>
0

>  <SCORE.INTRA.POLAR.0>
0

>  <SCORE.INTRA.REPUL>
0.0838952

>  <SCORE.INTRA.REPUL.0>
0

>  <SCORE.INTRA.SOLV>
12.8735

>  <SCORE.INTRA.SOLV.lig_0>
-115.677

>  <SCORE.INTRA.VDW>
8.9114

>  <SCORE.INTRA.VDW.0>
-7.4833

>  <SCORE.INTRA.norm>
0.0867572

>  <SCORE.RESTR>
11.4987

>  <SCORE.RESTR.CAVITY>
11.4987

>  <SCORE.RESTR.norm>
0.221129

>  <SCORE.SYSTEM>
0

>  <SCORE.SYSTEM.CONST>
0

>  <SCORE.SYSTEM.DIHEDRAL>
0

>  <SCORE.SYSTEM.SOLV>
0

>  <SCORE.SYSTEM.norm>
0

>  <SCORE.heavy>
52

>  <SCORE.norm>
0.208308

>  <RMSD>
24.050

$$$$
2be0_lig
 OpenBabel11021811423D
libRbt.so/2013.1/901 2013/11/27
 52 56  0  0  0  0  0  0  0  0999 V2000
   29.7034   20.0789    0.6107 C   0  0  2  0  0  0  0  0  0  0  0  0
   29.5328   20.7850   -0.5956 O   0  0  0  0  0  0  0  0  0  0  0  0
   30.7595   19.1865   -4.5086 C   0  0  2  0  0  0  0  0  0  0  0  0
   30.7226   18.3805   -5.7609 N   0  0  0  0  0  0  0  0  0  0  0  0
   27.2065   21.4640   -3.4300 C   0  0  2  0  0  0  0  0  0  0  0  0
   26.2298   22.5151   -3.2824 O   0  0  0  0  0  0  0  0  0  0  0  0
   23.9295   19.7062   -1.2737 C   0  0  1  0  0  0  0  0  0  0  0  0
   25.7837   21.3099   -7.4067 C   0  0  0  0  0  0  0  0  0  0  0  0
   28.4899   19.0981    0.8773 C   0  0  2  0  0  0  0  0  0  0  0  0
   28.3021   18.2169   -0.2772 N   0  0  0  0  0  0  0  0  0  0  0  0
   30.6818   18.2044   -3.2525 C   0  0  0  0  0  0  0  0  0  0  0  0
   26.6635   20.2445   -2.6682 C   0  0  2  0  0  0  0  0  0  0  0  0
   25.7701   19.5784   -3.6660 O   0  0  0  0  0  0  0  0  0  0  0  0
   23.0710   20.9549   -1.8610 C   0  0  2  0  0  0  0  0  0  0  0  0
   22.7429   21.8852   -0.7329 N   0  0  0  0  0  0  0  0  0  0  0  0
   26.0172   22.5510   -6.7285 C   0  0  0  0  0  0  0  0  0  0  0  0
   27.3137   23.1289   -6.7460 N   0  0  0  0  0  0  0  0  0  0  0  0
   27.1746   19.9466    1.2024 C   0  0  1  0  0  0  0  0  0  0  0  0
   26.0982   19.0502    1.4305 O   0  0  0  0  0  0  0  0  0  0  0  0
   30.7053   19.0520   -1.8558 C   0  0  2  0  0  0  0  0  0  0  0  0
   30.6381   18.1795   -0.7175 N   0  0  0  0  0  0  0  0  0  0  0  0
   26.0496   20.9760   -1.4595 C   0  0  2  0  0  0  0  0  0  0  0  0
   25.1178   20.2500   -0.6713 O   0  0  0  0  0  0  0  0  0  0  0  0
   21.7728   20.3817   -2.5053 C   0  0  1  0  0  0  0  0  0  0  0  0
   22.2121   19.5027   -3.6016 O   0  0  0  0  0  0  0  0  0  0  0  0
   28.4204   22.5302   -7.4129 C   0  0  0  0  0  0  0  0  0  0  0  0
   27.4567   20.8411    2.4444 C   0  0  2  0  0  0  0  0  0  0  0  0
   26.2694   21.6582    2.7934 O   0  0  0  0  0  0  0  0  0  0  0  0
   29.4872   20.0643   -1.8211 C   0  0  2  0  0  0  0  0  0  0  0  0
   25.4707   22.2695   -2.0807 C   0  0  1  0  0  0  0  0  0  0  0  0
   20.9189   19.5547   -1.3950 C   0  0  2  0  0  0  0  0  0  0  0  0
   20.4767   20.4269   -0.2958 O   0  0  0  0  0  0  0  0  0  0  0  0
   28.2499   21.3037   -8.1012 C   0  0  0  0  0  0  0  0  0  0  0  0
   28.6682   21.8101    2.1597 C   0  0  2  0  0  0  0  0  0  0  0  0
   29.7940   20.9538    1.8216 O   0  0  0  0  0  0  0  0  0  0  0  0
   29.6045   20.9955   -3.0773 C   0  0  2  0  0  0  0  0  0  0  0  0
   28.4827   21.8588   -2.9372 O   0  0  0  0  0  0  0  0  0  0  0  0
   25.6614   23.4862   -1.1766 C   0  0  0  0  0  0  0  0  0  0  0  0
   26.9733   23.6956   -0.7117 O   0  0  0  0  0  0  0  0  0  0  0  0
   21.8160   18.3689   -0.8101 C   0  0  1  0  0  0  0  0  0  0  0  0
   23.0857   18.9646   -0.2376 O   0  0  0  0  0  0  0  0  0  0  0  0
   26.9160   20.6594   -8.1121 C   0  0  0  0  0  0  0  0  0  0  0  0
   28.9002   22.6117    3.3720 C   0  0  0  0  0  0  0  0  0  0  0  0
   27.9214   23.5158    3.5032 O   0  0  0  0  0  0  0  0  0  0  0  0
   29.5476   20.1436   -4.4146 C   0  0  1  0  0  0  0  0  0  0  0  0
   29.6631   20.9814   -5.5174 O   0  0  0  0  0  0  0  0  0  0  0  0
   24.8488   20.2106   -4.6397 C   0  0  0  0  0  0  0  0  0  0  0  0
   20.9565   17.6250    0.2479 C   0  0  0  0  0  0  0  0  0  0  0  0
   21.7653   17.2366    1.3765 N   0  0  0  0  0  0  0  0  0  0  0  0
   24.0999   19.0810   -5.3542 C   0  0  0  0  0  0  0  0  0  0  0  0
   24.2784   19.2232   -6.8356 N   0  0  0  0  0  0  0  0  0  0  0  0
   24.3064   20.6800   -7.3714 C   0  0  0  0  0  0  0  0  0  0  0  0
  1  2  1  6  0  0  0
  1  9  1  0  0  0  0
  1 35  1  0  0  0  0
  3  4  1  6  0  0  0
  3 11  1  0  0  0  0
  3 45  1  0  0  0  0
  5  6  1  0  0  0  0
  5 12  1  0  0  0  0
  5 37  1  1  0  0  0
  6 30  1  0  0  0  0
  7 14  1  0  0  0  0
  7 41  1  0  0  0  0
  7 23  1  1  0  0  0
  8 16  2  0  0  0  0
  8 42  1  0  0  0  0
  9 10  1  6  0  0  0
  9 18  1  0  0  0  0
 11 20  1  0  0  0  0
 12 13  1  6  0  0  0
 12 22  1  0  0  0  0
 13 47  1  0  0  0  0
 14 15  1  1  0  0  0
 14 24  1  0  0  0  0
 16 17  1  0  0  0  0
 17 26  2  0  0  0  0
 18 19  1  1  0  0  0
 18 27  1  0  0  0  0
 20 21  1  1  0  0  0
 20 29  1  0  0  0  0
 22 23  1  6  0  0  0
 22 30  1  0  0  0  0
 24 25  1  6  0  0  0
 24 31  1  0  0  0  0
 26 33  1  0  0  0  0
 27 28  1  6  0  0  0
 27 34  1  0  0  0  0
 29  2  1  1  0  0  0
 29 36  1  0  0  0  0
 30 38  1  1  0  0  0
 31 32  1  1  0  0  0
 31 40  1  0  0  0  0
 33 42  2  0  0  0  0
 34 35  1  0  0  0  0
 34 43  1  1  0  0  0
 36 37  1  6  0  0  0
 36 45  1  0  0  0  0
 38 39  1  0  0  0  0
 40 41  1  0  0  0  0
 40 48  1  1  0  0  0
 43 44  1  0  0  0  0
 45 46  1  6  0  0  0
 47 50  1  0  0  0  0
 48 49  1  0  0  0  0
 50 51  1  0  0  0  0
 51 52  1  0  0  0  0
 52  8  1  0  0  0  0
M  END
>  <CHROM.1>
-62.94422672,-175.60900288,-61.31430563,-39.46273359,-176.12806765,-58.08676565
-48.36144230,-64.90299648,-72.70986611,-85.45532251,-141.27141264,-125.05177434
-36.49760461,89.91894962,-125.09751409,26.45663994,20.50326204,-2.10906023
-1.87840472,-0.11189350,-1.55320925

>  <Name>
2be0_lig

>  <RI>
0

>  <Rbt.Current_Directory>
/home/itssahil/PROJECTS/Mol_Feturizer/New_Systems/rnas/2be0

>  <Rbt.Executable>
rbdock ($Id: //depot/dev/client3/rdock/2013.1/src/exe/rbdock.cxx#4 $)

>  <Rbt.Library>
libRbt.so (2013.1, Build901 2013/11/27)

>  <Rbt.Parameter_File>
/export/apps/rDock/src/rDock_2013.1_src/data/scripts/dock_solv.prm

>  <Rbt.Receptor>
prm/blind_docking_40.prm

>  <SCORE>
15.4346

>  <SCORE.INTER>
1.64536

>  <SCORE.INTER.CONST>
1

>  <SCORE.INTER.POLAR>
0

>  <SCORE.INTER.ROT>
15

>  <SCORE.INTER.SOLV>
28.1262

>  <SCORE.INTER.VDW>
-21.8785

>  <SCORE.INTER.norm>
0.0316416

>  <SCORE.INTRA>
2.06896

>  <SCORE.INTRA.DIHEDRAL>
-30.4816

>  <SCORE.INTRA.DIHEDRAL.0>
47.8724

>  <SCORE.INTRA.POLAR>
0

>  <SCORE.INTRA.POLAR.0>
0

>  <SCORE.INTRA.REPUL>
0.117927

>  <SCORE.INTRA.REPUL.0>
0

>  <SCORE.INTRA.SOLV>
10.6488

>  <SCORE.INTRA.SOLV.lig_0>
-115.677

>  <SCORE.INTRA.VDW>
11.3957

>  <SCORE.INTRA.VDW.0>
-7.4833

>  <SCORE.INTRA.norm>
0.0397878

>  <SCORE.RESTR>
11.7203

>  <SCORE.RESTR.CAVITY>
11.7203

>  <SCORE.RESTR.norm>
0.22539

>  <SCORE.SYSTEM>
0

>  <SCORE.SYSTEM.CONST>
0

>  <SCORE.SYSTEM.DIHEDRAL>
0

>  <SCORE.SYSTEM.SOLV>
0

>  <SCORE.SYSTEM.norm>
0

>  <SCORE.heavy>
52

>  <SCORE.norm>
0.296819

>  <RMSD>
24.085

$$$$
2be0_lig
 OpenBabel11021811423D
libRbt.so/2013.1/901 2013/11/27
 52 56  0  0  0  0  0  0  0  0999 V2000
   29.8033   20.3644    0.4628 C   0  0  2  0  0  0  0  0  0  0  0  0
   29.3841   21.0528   -0.6918 O   0  0  0  0  0  0  0  0  0  0  0  0
   31.6869   22.1473   -4.2794 C   0  0  2  0  0  0  0  0  0  0  0  0
   32.5244   21.9921   -5.5017 N   0  0  0  0  0  0  0  0  0  0  0  0
   27.2401   21.2998   -4.1847 C   0  0  2  0  0  0  0  0  0  0  0  0
   26.8668   22.6869   -4.0541 O   0  0  0  0  0  0  0  0  0  0  0  0
   23.3683   19.8140   -2.3588 C   0  0  1  0  0  0  0  0  0  0  0  0
   27.1912   20.7925   -7.8476 C   0  0  0  0  0  0  0  0  0  0  0  0
   28.9317   19.0652    0.7037 C   0  0  2  0  0  0  0  0  0  0  0  0
   28.9491   18.2272   -0.4972 N   0  0  0  0  0  0  0  0  0  0  0  0
   32.4399   21.4776   -3.0414 C   0  0  0  0  0  0  0  0  0  0  0  0
   25.9480   20.4786   -4.0486 C   0  0  2  0  0  0  0  0  0  0  0  0
   25.3874   20.4764   -5.4353 O   0  0  0  0  0  0  0  0  0  0  0  0
   22.0592   19.4938   -3.2672 C   0  0  2  0  0  0  0  0  0  0  0  0
   21.0440   20.5732   -3.0441 N   0  0  0  0  0  0  0  0  0  0  0  0
   26.7710   22.0470   -7.2959 C   0  0  0  0  0  0  0  0  0  0  0  0
   27.6600   23.1536   -7.3078 N   0  0  0  0  0  0  0  0  0  0  0  0
   27.4459   19.4842    1.1192 C   0  0  1  0  0  0  0  0  0  0  0  0
   26.6800   18.3069    1.3228 O   0  0  0  0  0  0  0  0  0  0  0  0
   31.5459   21.6141   -1.6805 C   0  0  2  0  0  0  0  0  0  0  0  0
   32.2136   21.0172   -0.5584 N   0  0  0  0  0  0  0  0  0  0  0  0
   25.2590   21.3046   -2.9458 C   0  0  2  0  0  0  0  0  0  0  0  0
   23.8653   21.1022   -2.7640 O   0  0  0  0  0  0  0  0  0  0  0  0
   21.5013   18.1059   -2.8295 C   0  0  1  0  0  0  0  0  0  0  0  0
   22.5673   17.1290   -3.1066 O   0  0  0  0  0  0  0  0  0  0  0  0
   28.9760   23.0851   -7.8477 C   0  0  0  0  0  0  0  0  0  0  0  0
   27.5190   20.3574    2.4054 C   0  0  2  0  0  0  0  0  0  0  0  0
   26.1659   20.7817    2.8391 O   0  0  0  0  0  0  0  0  0  0  0  0
   30.1377   20.9197   -1.8909 C   0  0  2  0  0  0  0  0  0  0  0  0
   25.6392   22.7619   -3.3004 C   0  0  1  0  0  0  0  0  0  0  0  0
   21.1242   18.1316   -1.2474 C   0  0  2  0  0  0  0  0  0  0  0  0
   20.0595   19.1061   -0.9629 O   0  0  0  0  0  0  0  0  0  0  0  0
   29.4464   21.8718   -8.4078 C   0  0  0  0  0  0  0  0  0  0  0  0
   28.3912   21.6457    2.1459 C   0  0  2  0  0  0  0  0  0  0  0  0
   29.6970   21.1658    1.7225 O   0  0  0  0  0  0  0  0  0  0  0  0
   29.4468   21.6047   -3.1208 C   0  0  2  0  0  0  0  0  0  0  0  0
   28.2030   20.9199   -3.2070 O   0  0  0  0  0  0  0  0  0  0  0  0
   25.9283   23.6069   -2.0608 C   0  0  0  0  0  0  0  0  0  0  0  0
   26.3996   22.8971   -0.9404 O   0  0  0  0  0  0  0  0  0  0  0  0
   22.4264   18.4972   -0.3968 C   0  0  1  0  0  0  0  0  0  0  0  0
   22.9616   19.8274   -0.8856 O   0  0  0  0  0  0  0  0  0  0  0  0
   28.5571   20.6872   -8.4188 C   0  0  0  0  0  0  0  0  0  0  0  0
   28.4413   22.4172    3.3982 C   0  0  0  0  0  0  0  0  0  0  0  0
   29.0796   23.5746    3.1840 O   0  0  0  0  0  0  0  0  0  0  0  0
   30.3262   21.4267   -4.4294 C   0  0  1  0  0  0  0  0  0  0  0  0
   29.7059   22.0474   -5.5071 O   0  0  0  0  0  0  0  0  0  0  0  0
   24.1469   19.8288   -5.9233 C   0  0  0  0  0  0  0  0  0  0  0  0
   22.0049   18.5179    1.0976 C   0  0  0  0  0  0  0  0  0  0  0  0
   23.1565   18.6933    1.9472 N   0  0  0  0  0  0  0  0  0  0  0  0
   23.8073   20.4620   -7.2765 C   0  0  0  0  0  0  0  0  0  0  0  0
   24.7440   19.9368   -8.3222 N   0  0  0  0  0  0  0  0  0  0  0  0
   26.1639   19.5578   -7.8219 C   0  0  0  0  0  0  0  0  0  0  0  0
  1  2  1  6  0  0  0
  1  9  1  0  0  0  0
  1 35  1  0  0  0  0
  3  4  1  6  0  0  0
  3 11  1  0  0  0  0
  3 45  1  0  0  0  0
  5  6  1  0  0  0  0
  5 12  1  0  0  0  0
  5 37  1  1  0  0  0
  6 30  1  0  0  0  0
  7 14  1  0  0  0  0
  7 41  1  0  0  0  0
  7 23  1  6  0  0  0
  8 16  2  0  0  0  0
  8 42  1  0  0  0  0
  9 10  1  6  0  0  0
  9 18  1  0  0  0  0
 11 20  1  0  0  0  0
 12 13  1  6  0  0  0
 12 22  1  0  0  0  0
 13 47  1  0  0  0  0
 14 15  1  1  0  0  0
 14 24  1  0  0  0  0
 16 17  1  0  0  0  0
 17 26  2  0  0  0  0
 18 19  1  1  0  0  0
 18 27  1  0  0  0  0
 20 21  1  1  0  0  0
 20 29  1  0  0  0  0
 22 23  1  6  0  0  0
 22 30  1  0  0  0  0
 24 25  1  1  0  0  0
 24 31  1  0  0  0  0
 26 33  1  0  0  0  0
 27 28  1  6  0  0  0
 27 34  1  0  0  0  0
 29  2  1  1  0  0  0
 29 36  1  0  0  0  0
 30 38  1  1  0  0  0
 31 32  1  6  0  0  0
 31 40  1  0  0  0  0
 33 42  2  0  0  0  0
 34 35  1  0  0  0  0
 34 43  1  1  0  0  0
 36 37  1  6  0  0  0
 36 45  1  0  0  0  0
 38 39  1  0  0  0  0
 40 41  1  0  0  0  0
 40 48  1  1  0  0  0
 43 44  1  0  0  0  0
 45 46  1  6  0  0  0
 47 50  1  0  0  0  0
 48 49  1  0  0  0  0
 50 51  1  0  0  0  0
 51 52  1  0  0  0  0
 52  8  1  0  0  0  0
M  END
>  <CHROM.1>
-101.80468729,-57.71791232,-136.39125778,179.55762240,163.26628328,62.78164360
-67.68095085,-88.61893990,-174.81786926,177.19610818,173.56324230,74.63576752
-30.57254314,-88.06321970,47.49692738,26.71689618,20.72485377,-2.55200722
-2.36556858,-0.29386609,-1.48178276

>  <Name>
2be0_lig

>  <RI>
0

>  <Rbt.Current_Directory>
/home/itssahil/PROJECTS/Mol_Feturizer/New_Systems/rnas/2be0

>  <Rbt.Executable>
rbdock ($Id: //depot/dev/client3/rdock/2013.1/src/exe/rbdock.cxx#4 $)

>  <Rbt.Library>
libRbt.so (2013.1, Build901 2013/11/27)

>  <Rbt.Parameter_File>
/export/apps/rDock/src/rDock_2013.1_src/data/scripts/dock_solv.prm

>  <Rbt.Receptor>
prm/blind_docking_40.prm

>  <SCORE>
-2.1547

>  <SCORE.INTER>
-9.30555

>  <SCORE.INTER.CONST>
1

>  <SCORE.INTER.POLAR>
-0.942739

>  <SCORE.INTER.ROT>
15

>  <SCORE.INTER.SOLV>
19.3533

>  <SCORE.INTER.VDW>
-23.1123

>  <SCORE.INTER.norm>
-0.178953

>  <SCORE.INTRA>
-7.82225

>  <SCORE.INTRA.DIHEDRAL>
-28.8211

>  <SCORE.INTRA.DIHEDRAL.0>
47.8724

>  <SCORE.INTRA.POLAR>
0

>  <SCORE.INTRA.POLAR.0>
0

>  <SCORE.INTRA.REPUL>
0.241707

>  <SCORE.INTRA.REPUL.0>
0

>  <SCORE.INTRA.SOLV>
2.2322

>  <SCORE.INTRA.SOLV.lig_0>
-115.677

>  <SCORE.INTRA.VDW>
4.26366

>  <SCORE.INTRA.VDW.0>
-7.4833

>  <SCORE.INTRA.norm>
-0.150428

>  <SCORE.RESTR>
14.9731

>  <SCORE.RESTR.CAVITY>
14.9731

>  <SCORE.RESTR.norm>
0.287944

>  <SCORE.SYSTEM>
0

>  <SCORE.SYSTEM.CONST>
0

>  <SCORE.SYSTEM.DIHEDRAL>
0

>  <SCORE.SYSTEM.SOLV>
0

>  <SCORE.SYSTEM.norm>
0

>  <SCORE.heavy>
52

>  <SCORE.norm>
-0.0414366

>  <RMSD>
24.087

$$$$
2be0_lig
 OpenBabel11021811423D
libRbt.so/2013.1/901 2013/11/27
 52 56  0  0  0  0  0  0  0  0999 V2000
   29.9682   23.7094    1.4581 C   0  0  2  0  0  0  0  0  0  0  0  0
   28.5811   23.7984    1.2323 O   0  0  0  0  0  0  0  0  0  0  0  0
   27.1425   21.3633    4.6045 C   0  0  2  0  0  0  0  0  0  0  0  0
   26.1977   20.7391    5.5726 N   0  0  0  0  0  0  0  0  0  0  0  0
   26.6508   20.2076    0.4874 C   0  0  2  0  0  0  0  0  0  0  0  0
   27.3109   18.9594    0.1934 O   0  0  0  0  0  0  0  0  0  0  0  0
   26.9832   20.3107   -4.3029 C   0  0  1  0  0  0  0  0  0  0  0  0
   23.1056   18.8043   -5.8267 C   0  0  0  0  0  0  0  0  0  0  0  0
   30.7872   24.2057    0.1977 C   0  0  2  0  0  0  0  0  0  0  0  0
   30.3557   25.5549   -0.1736 N   0  0  0  0  0  0  0  0  0  0  0  0
   26.9728   22.9497    4.6575 C   0  0  0  0  0  0  0  0  0  0  0  0
   25.8002   20.5596   -0.7435 C   0  0  2  0  0  0  0  0  0  0  0  0
   24.5257   19.8113   -0.5134 O   0  0  0  0  0  0  0  0  0  0  0  0
   27.3010   21.8963   -4.1415 C   0  0  2  0  0  0  0  0  0  0  0  0
   26.0032   22.6378   -4.0336 N   0  0  0  0  0  0  0  0  0  0  0  0
   23.3737   18.7937   -7.2348 C   0  0  0  0  0  0  0  0  0  0  0  0
   23.5572   17.5566   -7.9064 N   0  0  0  0  0  0  0  0  0  0  0  0
   30.6052   23.1674   -1.0042 C   0  0  1  0  0  0  0  0  0  0  0  0
   31.3400   23.6339   -2.1252 O   0  0  0  0  0  0  0  0  0  0  0  0
   27.9841   23.6733    3.5974 C   0  0  2  0  0  0  0  0  0  0  0  0
   27.8428   25.1015    3.6369 N   0  0  0  0  0  0  0  0  0  0  0  0
   26.7733   20.0940   -1.8432 C   0  0  2  0  0  0  0  0  0  0  0  0
   26.2344   19.9044   -3.1432 O   0  0  0  0  0  0  0  0  0  0  0  0
   28.1008   22.3541   -5.3984 C   0  0  1  0  0  0  0  0  0  0  0  0
   29.3523   21.5788   -5.3934 O   0  0  0  0  0  0  0  0  0  0  0  0
   23.4900   16.2976   -7.2444 C   0  0  0  0  0  0  0  0  0  0  0  0
   31.0976   21.7693   -0.5298 C   0  0  2  0  0  0  0  0  0  0  0  0
   30.9494   20.7590   -1.6051 O   0  0  0  0  0  0  0  0  0  0  0  0
   27.6888   23.1511    2.1312 C   0  0  2  0  0  0  0  0  0  0  0  0
   27.4135   18.8216   -1.2388 C   0  0  1  0  0  0  0  0  0  0  0  0
   27.2351   22.0645   -6.7446 C   0  0  2  0  0  0  0  0  0  0  0  0
   25.9825   22.8360   -6.7563 O   0  0  0  0  0  0  0  0  0  0  0  0
   23.2269   16.2452   -5.8534 C   0  0  0  0  0  0  0  0  0  0  0  0
   30.2707   21.2926    0.7259 C   0  0  2  0  0  0  0  0  0  0  0  0
   30.4523   22.3210    1.7379 O   0  0  0  0  0  0  0  0  0  0  0  0
   27.8581   21.5921    2.1366 C   0  0  2  0  0  0  0  0  0  0  0  0
   27.5855   21.2395    0.7858 O   0  0  0  0  0  0  0  0  0  0  0  0
   28.9003   18.7037   -1.5698 C   0  0  0  0  0  0  0  0  0  0  0  0
   29.1985   18.3425   -2.8971 O   0  0  0  0  0  0  0  0  0  0  0  0
   26.9042   20.5042   -6.8380 C   0  0  1  0  0  0  0  0  0  0  0  0
   26.1701   20.0926   -5.5784 O   0  0  0  0  0  0  0  0  0  0  0  0
   23.0287   17.5089   -5.1063 C   0  0  0  0  0  0  0  0  0  0  0  0
   30.7938   19.9808    1.1399 C   0  0  0  0  0  0  0  0  0  0  0  0
   32.0218   20.1314    1.6518 O   0  0  0  0  0  0  0  0  0  0  0  0
   26.8414   20.9208    3.1530 C   0  0  1  0  0  0  0  0  0  0  0  0
   27.0109   19.5414    3.1537 O   0  0  0  0  0  0  0  0  0  0  0  0
   23.2476   19.9247   -1.2548 C   0  0  0  0  0  0  0  0  0  0  0  0
   26.0708   20.2905   -8.1308 C   0  0  0  0  0  0  0  0  0  0  0  0
   25.9469   18.8851   -8.4281 N   0  0  0  0  0  0  0  0  0  0  0  0
   23.5191   19.4823   -2.6963 C   0  0  0  0  0  0  0  0  0  0  0  0
   22.4853   20.0775   -3.6039 N   0  0  0  0  0  0  0  0  0  0  0  0
   22.9008   20.2186   -5.0931 C   0  0  0  0  0  0  0  0  0  0  0  0
  1  2  1  6  0  0  0
  1  9  1  0  0  0  0
  1 35  1  0  0  0  0
  3  4  1  1  0  0  0
  3 11  1  0  0  0  0
  3 45  1  0  0  0  0
  5  6  1  0  0  0  0
  5 12  1  0  0  0  0
  5 37  1  6  0  0  0
  6 30  1  0  0  0  0
  7 14  1  0  0  0  0
  7 41  1  0  0  0  0
  7 23  1  1  0  0  0
  8 16  2  0  0  0  0
  8 42  1  0  0  0  0
  9 10  1  6  0  0  0
  9 18  1  0  0  0  0
 11 20  1  0  0  0  0
 12 13  1  1  0  0  0
 12 22  1  0  0  0  0
 13 47  1  0  0  0  0
 14 15  1  6  0  0  0
 14 24  1  0  0  0  0
 16 17  1  0  0  0  0
 17 26  2  0  0  0  0
 18 19  1  6  0  0  0
 18 27  1  0  0  0  0
 20 21  1  6  0  0  0
 20 29  1  0  0  0  0
 22 23  1  6  0  0  0
 22 30  1  0  0  0  0
 24 25  1  6  0  0  0
 24 31  1  0  0  0  0
 26 33  1  0  0  0  0
 27 28  1  6  0  0  0
 27 34  1  0  0  0  0
 29  2  1  6  0  0  0
 29 36  1  0  0  0  0
 30 38  1  1  0  0  0
 31 32  1  1  0  0  0
 31 40  1  0  0  0  0
 33 42  2  0  0  0  0
 34 35  1  0  0  0  0
 34 43  1  1  0  0  0
 36 37  1  6  0  0  0
 36 45  1  0  0  0  0
 38 39  1  0  0  0  0
 40 41  1  0  0  0  0
 40 48  1  6  0  0  0
 43 44  1  0  0  0  0
 45 46  1  1  0  0  0
 47 50  1  0  0  0  0
 48 49  1  0  0  0  0
 50 51  1  0  0  0  0
 51 52  1  0  0  0  0
 52  8  1  0  0  0  0
M  END
>  <CHROM.1>
167.29925987,-99.61701843,-57.39021841,169.59893313,63.49850670,140.04328736
55.70951438,170.01649281,69.59789416,-129.60247226,169.01163216,-157.08568074
156.50025336,66.51796219,174.52047012,27.19064322,20.86009425,-1.75784368
-1.05668207,-0.54488093,-1.63562478

>  <Name>
2be0_lig

>  <RI>
0

>  <Rbt.Current_Directory>
/home/itssahil/PROJECTS/Mol_Feturizer/New_Systems/rnas/2be0

>  <Rbt.Executable>
rbdock ($Id: //depot/dev/client3/rdock/2013.1/src/exe/rbdock.cxx#4 $)

>  <Rbt.Library>
libRbt.so (2013.1, Build901 2013/11/27)

>  <Rbt.Parameter_File>
/export/apps/rDock/src/rDock_2013.1_src/data/scripts/dock_solv.prm

>  <Rbt.Receptor>
prm/blind_docking_40.prm

>  <SCORE>
8.32309

>  <SCORE.INTER>
-3.29985

>  <SCORE.INTER.CONST>
1

>  <SCORE.INTER.POLAR>
-0.889012

>  <SCORE.INTER.ROT>
15

>  <SCORE.INTER.SOLV>
34.1039

>  <SCORE.INTER.VDW>
-24.2045

>  <SCORE.INTER.norm>
-0.0634586

>  <SCORE.INTRA>
-7.87058

>  <SCORE.INTRA.DIHEDRAL>
-24.5106

>  <SCORE.INTRA.DIHEDRAL.0>
47.8724

>  <SCORE.INTRA.POLAR>
0

>  <SCORE.INTRA.POLAR.0>
0

>  <SCORE.INTRA.REPUL>
0

>  <SCORE.INTRA.REPUL.0>
0

>  <SCORE.INTRA.SOLV>
2.91438

>  <SCORE.INTRA.SOLV.lig_0>
-115.677

>  <SCORE.INTRA.VDW>
2.92754

>  <SCORE.INTRA.VDW.0>
-7.4833

>  <SCORE.INTRA.norm>
-0.151357

>  <SCORE.RESTR>
19.4935

>  <SCORE.RESTR.CAVITY>
19.4935

>  <SCORE.RESTR.norm>
0.374875

>  <SCORE.SYSTEM>
0

>  <SCORE.SYSTEM.CONST>
0

>  <SCORE.SYSTEM.DIHEDRAL>
0

>  <SCORE.SYSTEM.SOLV>
0

>  <SCORE.SYSTEM.norm>
0

>  <SCORE.heavy>
52

>  <SCORE.norm>
0.160059

>  <RMSD>
24.088

$$$$
2be0_lig
 OpenBabel11021811423D
libRbt.so/2013.1/901 2013/11/27
 52 56  0  0  0  0  0  0  0  0999 V2000
   28.0571   22.4111   -4.2452 C   0  0  2  0  0  0  0  0  0  0  0  0
   27.4455   21.5596   -3.3051 O   0  0  0  0  0  0  0  0  0  0  0  0
   27.6316   24.1426    0.2536 C   0  0  2  0  0  0  0  0  0  0  0  0
   27.4617   24.5893    1.6646 N   0  0  0  0  0  0  0  0  0  0  0  0
   29.2320   20.1167   -0.6816 C   0  0  2  0  0  0  0  0  0  0  0  0
   30.0481   18.9914   -1.0665 O   0  0  0  0  0  0  0  0  0  0  0  0
   25.7929   18.3582   -3.3223 C   0  0  1  0  0  0  0  0  0  0  0  0
   26.9264   23.0780    4.9485 C   0  0  0  0  0  0  0  0  0  0  0  0
   27.4134   22.2364   -5.6808 C   0  0  2  0  0  0  0  0  0  0  0  0
   25.9634   22.4247   -5.5999 N   0  0  0  0  0  0  0  0  0  0  0  0
   26.2080   23.7295   -0.3389 C   0  0  0  0  0  0  0  0  0  0  0  0
   27.7678   19.6763   -0.8389 C   0  0  2  0  0  0  0  0  0  0  0  0
   27.4673   18.9928    0.4572 O   0  0  0  0  0  0  0  0  0  0  0  0
   25.4297   19.9006   -2.9612 C   0  0  2  0  0  0  0  0  0  0  0  0
   25.0074   19.9711   -1.5251 N   0  0  0  0  0  0  0  0  0  0  0  0
   27.3320   24.4526    4.9755 C   0  0  0  0  0  0  0  0  0  0  0  0
   27.3551   25.1549    6.2089 N   0  0  0  0  0  0  0  0  0  0  0  0
   27.7983   20.8015   -6.2713 C   0  0  1  0  0  0  0  0  0  0  0  0
   27.2062   20.6622   -7.5535 O   0  0  0  0  0  0  0  0  0  0  0  0
   26.3530   23.2189   -1.8843 C   0  0  2  0  0  0  0  0  0  0  0  0
   25.0784   22.8462   -2.4299 N   0  0  0  0  0  0  0  0  0  0  0  0
   27.9090   18.8450   -2.1280 C   0  0  2  0  0  0  0  0  0  0  0  0
   26.8512   17.9495   -2.4370 O   0  0  0  0  0  0  0  0  0  0  0  0
   24.2742   20.3532   -3.9041 C   0  0  1  0  0  0  0  0  0  0  0  0
   24.8027   20.2598   -5.2750 O   0  0  0  0  0  0  0  0  0  0  0  0
   26.9879   24.5574    7.4483 C   0  0  0  0  0  0  0  0  0  0  0  0
   29.3495   20.6918   -6.3345 C   0  0  2  0  0  0  0  0  0  0  0  0
   29.7691   19.3753   -6.8728 O   0  0  0  0  0  0  0  0  0  0  0  0
   27.3409   21.9822   -1.9510 C   0  0  2  0  0  0  0  0  0  0  0  0
   29.2841   18.1558   -1.9601 C   0  0  1  0  0  0  0  0  0  0  0  0
   22.9822   19.3853   -3.7048 C   0  0  2  0  0  0  0  0  0  0  0  0
   22.4488   19.4731   -2.3366 O   0  0  0  0  0  0  0  0  0  0  0  0
   26.5795   23.2013    7.4840 C   0  0  0  0  0  0  0  0  0  0  0  0
   29.9718   20.8688   -4.8961 C   0  0  2  0  0  0  0  0  0  0  0  0
   29.5233   22.1690   -4.4237 O   0  0  0  0  0  0  0  0  0  0  0  0
   28.7158   22.4366   -1.3493 C   0  0  2  0  0  0  0  0  0  0  0  0
   29.5165   21.2672   -1.4708 O   0  0  0  0  0  0  0  0  0  0  0  0
   30.0619   18.0793   -3.2729 C   0  0  0  0  0  0  0  0  0  0  0  0
   29.7489   16.9837   -4.0993 O   0  0  0  0  0  0  0  0  0  0  0  0
   23.3958   17.8750   -4.0226 C   0  0  1  0  0  0  0  0  0  0  0  0
   24.5498   17.4926   -3.1190 O   0  0  0  0  0  0  0  0  0  0  0  0
   26.5375   22.4248    6.2233 C   0  0  0  0  0  0  0  0  0  0  0  0
   31.4353   20.7773   -5.0225 C   0  0  0  0  0  0  0  0  0  0  0  0
   31.7909   19.4951   -5.1716 O   0  0  0  0  0  0  0  0  0  0  0  0
   28.5436   22.8965    0.1595 C   0  0  1  0  0  0  0  0  0  0  0  0
   29.7678   23.3055    0.6746 O   0  0  0  0  0  0  0  0  0  0  0  0
   27.1437   19.6076    1.7662 C   0  0  0  0  0  0  0  0  0  0  0  0
   22.1314   16.9999   -3.8058 C   0  0  0  0  0  0  0  0  0  0  0  0
   21.5202   17.2976   -2.5344 N   0  0  0  0  0  0  0  0  0  0  0  0
   28.2263   20.6523    2.0562 C   0  0  0  0  0  0  0  0  0  0  0  0
   28.0152   21.2222    3.4264 N   0  0  0  0  0  0  0  0  0  0  0  0
   26.9112   22.3078    3.5389 C   0  0  0  0  0  0  0  0  0  0  0  0
  1  2  1  1  0  0  0
  1  9  1  0  0  0  0
  1 35  1  0  0  0  0
  3  4  1  1  0  0  0
  3 11  1  0  0  0  0
  3 45  1  0  0  0  0
  5  6  1  0  0  0  0
  5 12  1  0  0  0  0
  5 37  1  6  0  0  0
  6 30  1  0  0  0  0
  7 14  1  0  0  0  0
  7 41  1  0  0  0  0
  7 23  1  1  0  0  0
  8 16  2  0  0  0  0
  8 42  1  0  0  0  0
  9 10  1  1  0  0  0
  9 18  1  0  0  0  0
 11 20  1  0  0  0  0
 12 13  1  1  0  0  0
 12 22  1  0  0  0  0
 13 47  1  0  0  0  0
 14 15  1  1  0  0  0
 14 24  1  0  0  0  0
 16 17  1  0  0  0  0
 17 26  2  0  0  0  0
 18 19  1  6  0  0  0
 18 27  1  0  0  0  0
 20 21  1  1  0  0  0
 20 29  1  0  0  0  0
 22 23  1  1  0  0  0
 22 30  1  0  0  0  0
 24 25  1  6  0  0  0
 24 31  1  0  0  0  0
 26 33  1  0  0  0  0
 27 28  1  1  0  0  0
 27 34  1  0  0  0  0
 29  2  1  6  0  0  0
 29 36  1  0  0  0  0
 30 38  1  6  0  0  0
 31 32  1  1  0  0  0
 31 40  1  0  0  0  0
 33 42  2  0  0  0  0
 34 35  1  0  0  0  0
 34 43  1  6  0  0  0
 36 37  1  1  0  0  0
 36 45  1  0  0  0  0
 38 39  1  0  0  0  0
 40 41  1  0  0  0  0
 40 48  1  1  0  0  0
 43 44  1  0  0  0  0
 45 46  1  6  0  0  0
 47 50  1  0  0  0  0
 48 49  1  0  0  0  0
 50 51  1  0  0  0  0
 51 52  1  0  0  0  0
 52  8  1  0  0  0  0
M  END
>  <CHROM.1>
-147.93608294,172.95987961,-40.27398265,78.97036000,-50.90688612,94.90247715
66.63492888,159.15813104,-76.69455728,-68.47190094,-49.26246872,-175.07492034
-79.43925840,-168.75805036,110.50797758,27.24230727,20.82192856,-1.56365246
-1.57668963,0.34953663,1.20544814

>  <Name>
2be0_lig

>  <RI>
0

>  <Rbt.Current_Directory>
/home/itssahil/PROJECTS/Mol_Feturizer/New_Systems/rnas/2be0

>  <Rbt.Executable>
rbdock ($Id: //depot/dev/client3/rdock/2013.1/src/exe/rbdock.cxx#4 $)

>  <Rbt.Library>
libRbt.so (2013.1, Build901 2013/11/27)

>  <Rbt.Parameter_File>
/export/apps/rDock/src/rDock_2013.1_src/data/scripts/dock_solv.prm

>  <Rbt.Receptor>
prm/blind_docking_40.prm

>  <SCORE>
1.46457

>  <SCORE.INTER>
-2.28952

>  <SCORE.INTER.CONST>
1

>  <SCORE.INTER.POLAR>
-1.35562

>  <SCORE.INTER.ROT>
15

>  <SCORE.INTER.SOLV>
29.0761

>  <SCORE.INTER.VDW>
-20.2996

>  <SCORE.INTER.norm>
-0.0440292

>  <SCORE.INTRA>
0.00832071

>  <SCORE.INTRA.DIHEDRAL>
-30.54

>  <SCORE.INTRA.DIHEDRAL.0>
47.8724

>  <SCORE.INTRA.POLAR>
0

>  <SCORE.INTRA.POLAR.0>
0

>  <SCORE.INTRA.REPUL>
0

>  <SCORE.INTRA.REPUL.0>
0

>  <SCORE.INTRA.SOLV>
17.0164

>  <SCORE.INTRA.SOLV.lig_0>
-115.677

>  <SCORE.INTRA.VDW>
6.77011

>  <SCORE.INTRA.VDW.0>
-7.4833

>  <SCORE.INTRA.norm>
0.000160014

>  <SCORE.RESTR>
3.74577

>  <SCORE.RESTR.CAVITY>
3.74577

>  <SCORE.RESTR.norm>
0.0720341

>  <SCORE.SYSTEM>
0

>  <SCORE.SYSTEM.CONST>
0

>  <SCORE.SYSTEM.DIHEDRAL>
0

>  <SCORE.SYSTEM.SOLV>
0

>  <SCORE.SYSTEM.norm>
0

>  <SCORE.heavy>
52

>  <SCORE.norm>
0.0281649

>  <RMSD>
24.129

$$$$
2be0_lig
 OpenBabel11021811423D
libRbt.so/2013.1/901 2013/11/27
 52 56  0  0  0  0  0  0  0  0999 V2000
   27.7678   20.2441    2.0424 C   0  0  2  0  0  0  0  0  0  0  0  0
   27.0613   20.5104    0.8539 O   0  0  0  0  0  0  0  0  0  0  0  0
   29.4636   18.2465   -2.0573 C   0  0  2  0  0  0  0  0  0  0  0  0
   29.8061   17.4738   -3.2841 N   0  0  0  0  0  0  0  0  0  0  0  0
   27.6545   22.1122   -2.6683 C   0  0  2  0  0  0  0  0  0  0  0  0
   27.0293   23.4116   -2.6981 O   0  0  0  0  0  0  0  0  0  0  0  0
   23.6449   19.9427   -2.6878 C   0  0  1  0  0  0  0  0  0  0  0  0
   28.3059   20.9549   -7.4048 C   0  0  0  0  0  0  0  0  0  0  0  0
   27.9018   21.5455    2.9335 C   0  0  2  0  0  0  0  0  0  0  0  0
   26.5762   22.1194    3.1748 N   0  0  0  0  0  0  0  0  0  0  0  0
   28.2638   17.5167   -1.2980 C   0  0  0  0  0  0  0  0  0  0  0  0
   26.5970   21.1009   -3.1390 C   0  0  2  0  0  0  0  0  0  0  0  0
   26.7133   21.1419   -4.6297 O   0  0  0  0  0  0  0  0  0  0  0  0
   22.9405   19.4272   -4.0588 C   0  0  2  0  0  0  0  0  0  0  0  0
   21.7958   20.3386   -4.3828 N   0  0  0  0  0  0  0  0  0  0  0  0
   29.3935   20.6563   -6.5200 C   0  0  0  0  0  0  0  0  0  0  0  0
   30.6327   21.3308   -6.6763 N   0  0  0  0  0  0  0  0  0  0  0  0
   28.8834   22.5864    2.2203 C   0  0  1  0  0  0  0  0  0  0  0  0
   28.9838   23.7474    3.0303 O   0  0  0  0  0  0  0  0  0  0  0  0
   27.8472   18.3424    0.0491 C   0  0  2  0  0  0  0  0  0  0  0  0
   26.7699   17.6947    0.7428 N   0  0  0  0  0  0  0  0  0  0  0  0
   25.3626   21.7131   -2.4504 C   0  0  2  0  0  0  0  0  0  0  0  0
   24.0890   21.2922   -2.9165 O   0  0  0  0  0  0  0  0  0  0  0  0
   22.4417   17.9699   -3.8215 C   0  0  1  0  0  0  0  0  0  0  0  0
   23.6413   17.1678   -3.5301 O   0  0  0  0  0  0  0  0  0  0  0  0
   30.8615   22.3080   -7.6866 C   0  0  0  0  0  0  0  0  0  0  0  0
   30.2661   21.9022    2.0146 C   0  0  2  0  0  0  0  0  0  0  0  0
   31.2219   22.8212    1.3507 O   0  0  0  0  0  0  0  0  0  0  0  0
   27.4193   19.8182   -0.3361 C   0  0  2  0  0  0  0  0  0  0  0  0
   25.6028   23.2366   -2.5744 C   0  0  1  0  0  0  0  0  0  0  0  0
   21.3951   17.9358   -2.5767 C   0  0  2  0  0  0  0  0  0  0  0  0
   20.1936   18.7358   -2.8607 O   0  0  0  0  0  0  0  0  0  0  0  0
   29.8233   22.6455   -8.5896 C   0  0  0  0  0  0  0  0  0  0  0  0
   30.1120   20.6085    1.1257 C   0  0  2  0  0  0  0  0  0  0  0  0
   29.1650   19.7539    1.8242 O   0  0  0  0  0  0  0  0  0  0  0  0
   28.6246   20.4843   -1.0861 C   0  0  2  0  0  0  0  0  0  0  0  0
   28.1386   21.7910   -1.3683 O   0  0  0  0  0  0  0  0  0  0  0  0
   25.1670   23.9991   -1.3243 C   0  0  0  0  0  0  0  0  0  0  0  0
   26.0134   23.8657   -0.2076 O   0  0  0  0  0  0  0  0  0  0  0  0
   22.1131   18.4952   -1.2635 C   0  0  1  0  0  0  0  0  0  0  0  0
   22.6228   19.8921   -1.5527 O   0  0  0  0  0  0  0  0  0  0  0  0
   28.5110   21.9691   -8.4689 C   0  0  0  0  0  0  0  0  0  0  0  0
   31.4427   19.9959    0.9848 C   0  0  0  0  0  0  0  0  0  0  0  0
   31.4814   19.2660   -0.1371 O   0  0  0  0  0  0  0  0  0  0  0  0
   28.9820   19.6753   -2.4034 C   0  0  1  0  0  0  0  0  0  0  0  0
   30.0577   20.2718   -3.0505 O   0  0  0  0  0  0  0  0  0  0  0  0
   27.0097   22.3073   -5.4959 C   0  0  0  0  0  0  0  0  0  0  0  0
   21.0674   18.4494   -0.1164 C   0  0  0  0  0  0  0  0  0  0  0  0
   21.7227   18.4467    1.1678 N   0  0  0  0  0  0  0  0  0  0  0  0
   25.8606   22.4280   -6.5021 C   0  0  0  0  0  0  0  0  0  0  0  0
   25.6824   21.1215   -7.2148 N   0  0  0  0  0  0  0  0  0  0  0  0
   26.9147   20.1774   -7.2037 C   0  0  0  0  0  0  0  0  0  0  0  0
  1  2  1  6  0  0  0
  1  9  1  0  0  0  0
  1 35  1  0  0  0  0
  3  4  1  6  0  0  0
  3 11  1  0  0  0  0
  3 45  1  0  0  0  0
  5  6  1  0  0  0  0
  5 12  1  0  0  0  0
  5 37  1  1  0  0  0
  6 30  1  0  0  0  0
  7 14  1  0  0  0  0
  7 41  1  0  0  0  0
  7 23  1  6  0  0  0
  8 16  2  0  0  0  0
  8 42  1  0  0  0  0
  9 10  1  6  0  0  0
  9 18  1  0  0  0  0
 11 20  1  0  0  0  0
 12 13  1  6  0  0  0
 12 22  1  0  0  0  0
 13 47  1  0  0  0  0
 14 15  1  1  0  0  0
 14 24  1  0  0  0  0
 16 17  1  0  0  0  0
 17 26  2  0  0  0  0
 18 19  1  1  0  0  0
 18 27  1  0  0  0  0
 20 21  1  6  0  0  0
 20 29  1  0  0  0  0
 22 23  1  6  0  0  0
 22 30  1  0  0  0  0
 24 25  1  1  0  0  0
 24 31  1  0  0  0  0
 26 33  1  0  0  0  0
 27 28  1  6  0  0  0
 27 34  1  0  0  0  0
 29  2  1  1  0  0  0
 29 36  1  0  0  0  0
 30 38  1  1  0  0  0
 31 32  1  6  0  0  0
 31 40  1  0  0  0  0
 33 42  2  0  0  0  0
 34 35  1  0  0  0  0
 34 43  1  1  0  0  0
 36 37  1  6  0  0  0
 36 45  1  0  0  0  0
 38 39  1  0  0  0  0
 40 41  1  0  0  0  0
 40 48  1  1  0  0  0
 43 44  1  0  0  0  0
 45 46  1  1  0  0  0
 47 50  1  0  0  0  0
 48 49  1  0  0  0  0
 50 51  1  0  0  0  0
 51 52  1  0  0  0  0
 52  8  1  0  0  0  0
M  END
>  <CHROM.1>
145.80672402,171.46763878,-137.66976378,-35.56529685,-123.61754063,68.46651965
35.70801633,-42.09561230,-155.14806656,-100.87991375,158.46078297,-53.98170619
-21.37698175,-40.05860101,132.49933221,26.85524844,20.61048435,-2.11144919
0.92780622,0.27327475,1.63397696

>  <Name>
2be0_lig

>  <RI>
0

>  <Rbt.Current_Directory>
/home/itssahil/PROJECTS/Mol_Feturizer/New_Systems/rnas/2be0

>  <Rbt.Executable>
rbdock ($Id: //depot/dev/client3/rdock/2013.1/src/exe/rbdock.cxx#4 $)

>  <Rbt.Library>
libRbt.so (2013.1, Build901 2013/11/27)

>  <Rbt.Parameter_File>
/export/apps/rDock/src/rDock_2013.1_src/data/scripts/dock_solv.prm

>  <Rbt.Receptor>
prm/blind_docking_40.prm

>  <SCORE>
30.4374

>  <SCORE.INTER>
13.5886

>  <SCORE.INTER.CONST>
1

>  <SCORE.INTER.POLAR>
-0.979796

>  <SCORE.INTER.ROT>
15

>  <SCORE.INTER.SOLV>
27.812

>  <SCORE.INTER.VDW>
-10.5456

>  <SCORE.INTER.norm>
0.261319

>  <SCORE.INTRA>
7.7505

>  <SCORE.INTRA.DIHEDRAL>
-12.5557

>  <SCORE.INTRA.DIHEDRAL.0>
47.8724

>  <SCORE.INTRA.POLAR>
0

>  <SCORE.INTRA.POLAR.0>
0

>  <SCORE.INTRA.REPUL>
0.0327832

>  <SCORE.INTRA.REPUL.0>
0

>  <SCORE.INTRA.SOLV>
0.182586

>  <SCORE.INTRA.SOLV.lig_0>
-115.677

>  <SCORE.INTRA.VDW>
13.7731

>  <SCORE.INTRA.VDW.0>
-7.4833

>  <SCORE.INTRA.norm>
0.149048

>  <SCORE.RESTR>
9.0983

>  <SCORE.RESTR.CAVITY>
9.0983

>  <SCORE.RESTR.norm>
0.174967

>  <SCORE.SYSTEM>
0

>  <SCORE.SYSTEM.CONST>
0

>  <SCORE.SYSTEM.DIHEDRAL>
0

>  <SCORE.SYSTEM.SOLV>
0

>  <SCORE.SYSTEM.norm>
0

>  <SCORE.heavy>
52

>  <SCORE.norm>
0.585334

>  <RMSD>
24.132

$$$$
2be0_lig
 OpenBabel11021811423D
libRbt.so/2013.1/901 2013/11/27
 52 56  0  0  0  0  0  0  0  0999 V2000
   26.4514   22.3630   -2.1020 C   0  0  2  0  0  0  0  0  0  0  0  0
   27.7383   21.8297   -1.8963 O   0  0  0  0  0  0  0  0  0  0  0  0
   31.5118   21.3425   -4.1085 C   0  0  2  0  0  0  0  0  0  0  0  0
   32.5050   21.4454   -5.2142 N   0  0  0  0  0  0  0  0  0  0  0  0
   29.2260   24.0308   -0.5593 C   0  0  2  0  0  0  0  0  0  0  0  0
   30.1941   24.7886    0.1950 O   0  0  0  0  0  0  0  0  0  0  0  0
   30.3937   20.1074    1.3210 C   0  0  1  0  0  0  0  0  0  0  0  0
   26.6016   24.8600    6.5614 C   0  0  0  0  0  0  0  0  0  0  0  0
   25.3297   21.2913   -1.7871 C   0  0  2  0  0  0  0  0  0  0  0  0
   25.5172   20.7604   -0.4352 N   0  0  0  0  0  0  0  0  0  0  0  0
   30.1867   20.6435   -4.6597 C   0  0  0  0  0  0  0  0  0  0  0  0
   29.0852   22.6701    0.1415 C   0  0  2  0  0  0  0  0  0  0  0  0
   28.0732   22.9310    1.2116 O   0  0  0  0  0  0  0  0  0  0  0  0
   31.0557   19.5765   -0.0651 C   0  0  2  0  0  0  0  0  0  0  0  0
   30.6039   20.4649   -1.1843 N   0  0  0  0  0  0  0  0  0  0  0  0
   27.4543   23.8933    7.1885 C   0  0  0  0  0  0  0  0  0  0  0  0
   28.2045   24.2575    8.3373 N   0  0  0  0  0  0  0  0  0  0  0  0
   25.3635   20.1373   -2.8930 C   0  0  1  0  0  0  0  0  0  0  0  0
   24.3569   19.1843   -2.5886 O   0  0  0  0  0  0  0  0  0  0  0  0
   29.0640   20.5242   -3.4786 C   0  0  2  0  0  0  0  0  0  0  0  0
   27.8673   19.8947   -3.9612 N   0  0  0  0  0  0  0  0  0  0  0  0
   30.5612   22.4472    0.5218 C   0  0  2  0  0  0  0  0  0  0  0  0
   30.8310   21.4650    1.5113 O   0  0  0  0  0  0  0  0  0  0  0  0
   30.5793   18.1099   -0.2917 C   0  0  1  0  0  0  0  0  0  0  0  0
   31.0893   17.3319    0.8493 O   0  0  0  0  0  0  0  0  0  0  0  0
   28.1575   25.5590    8.9134 C   0  0  0  0  0  0  0  0  0  0  0  0
   25.1446   20.7848   -4.2912 C   0  0  2  0  0  0  0  0  0  0  0  0
   25.1697   19.7600   -5.3628 O   0  0  0  0  0  0  0  0  0  0  0  0
   28.7172   21.9652   -2.9194 C   0  0  2  0  0  0  0  0  0  0  0  0
   31.0518   23.8658    0.8973 C   0  0  1  0  0  0  0  0  0  0  0  0
   28.9550   18.0569   -0.3604 C   0  0  2  0  0  0  0  0  0  0  0  0
   28.4381   18.8329   -1.4984 O   0  0  0  0  0  0  0  0  0  0  0  0
   27.3317   26.5558    8.3378 C   0  0  0  0  0  0  0  0  0  0  0  0
   26.2706   21.8490   -4.5862 C   0  0  2  0  0  0  0  0  0  0  0  0
   26.1974   22.8186   -3.5049 O   0  0  0  0  0  0  0  0  0  0  0  0
   30.0499   22.6100   -2.4023 C   0  0  2  0  0  0  0  0  0  0  0  0
   29.6215   23.8772   -1.9185 O   0  0  0  0  0  0  0  0  0  0  0  0
   32.4788   24.1337    0.4219 C   0  0  0  0  0  0  0  0  0  0  0  0
   33.4040   23.1027    0.6715 O   0  0  0  0  0  0  0  0  0  0  0  0
   28.3467   18.6318    1.0006 C   0  0  1  0  0  0  0  0  0  0  0  0
   28.8714   20.0381    1.2050 O   0  0  0  0  0  0  0  0  0  0  0  0
   26.5294   26.2262    7.1370 C   0  0  0  0  0  0  0  0  0  0  0  0
   25.9992   22.4398   -5.9066 C   0  0  0  0  0  0  0  0  0  0  0  0
   27.1007   23.0549   -6.3551 O   0  0  0  0  0  0  0  0  0  0  0  0
   31.1050   22.7385   -3.5803 C   0  0  1  0  0  0  0  0  0  0  0  0
   32.2830   23.3016   -3.1042 O   0  0  0  0  0  0  0  0  0  0  0  0
   28.2693   22.9311    2.6805 C   0  0  0  0  0  0  0  0  0  0  0  0
   26.8004   18.5670    0.8731 C   0  0  0  0  0  0  0  0  0  0  0  0
   26.1715   19.0312    2.0846 N   0  0  0  0  0  0  0  0  0  0  0  0
   27.3399   24.0016    3.2617 C   0  0  0  0  0  0  0  0  0  0  0  0
   26.5203   23.4046    4.3656 N   0  0  0  0  0  0  0  0  0  0  0  0
   25.7633   24.4197    5.2638 C   0  0  0  0  0  0  0  0  0  0  0  0
  1  2  1  6  0  0  0
  1  9  1  0  0  0  0
  1 35  1  0  0  0  0
  3  4  1  6  0  0  0
  3 11  1  0  0  0  0
  3 45  1  0  0  0  0
  5  6  1  0  0  0  0
  5 12  1  0  0  0  0
  5 37  1  6  0  0  0
  6 30  1  0  0  0  0
  7 14  1  0  0  0  0
  7 41  1  0  0  0  0
  7 23  1  6  0  0  0
  8 16  2  0  0  0  0
  8 42  1  0  0  0  0
  9 10  1  1  0  0  0
  9 18  1  0  0  0  0
 11 20  1  0  0  0  0
 12 13  1  1  0  0  0
 12 22  1  0  0  0  0
 13 47  1  0  0  0  0
 14 15  1  6  0  0  0
 14 24  1  0  0  0  0
 16 17  1  0  0  0  0
 17 26  2  0  0  0  0
 18 19  1  1  0  0  0
 18 27  1  0  0  0  0
 20 21  1  6  0  0  0
 20 29  1  0  0  0  0
 22 23  1  1  0  0  0
 22 30  1  0  0  0  0
 24 25  1  1  0  0  0
 24 31  1  0  0  0  0
 26 33  1  0  0  0  0
 27 28  1  6  0  0  0
 27 34  1  0  0  0  0
 29  2  1  1  0  0  0
 29 36  1  0  0  0  0
 30 38  1  6  0  0  0
 31 32  1  6  0  0  0
 31 40  1  0  0  0  0
 33 42  2  0  0  0  0
 34 35  1  0  0  0  0
 34 43  1  6  0  0  0
 36 37  1  6  0  0  0
 36 45  1  0  0  0  0
 38 39  1  0  0  0  0
 40 41  1  0  0  0  0
 40 48  1  6  0  0  0
 43 44  1  0  0  0  0
 45 46  1  1  0  0  0
 47 50  1  0  0  0  0
 48 49  1  0  0  0  0
 50 51  1  0  0  0  0
 51 52  1  0  0  0  0
 52  8  1  0  0  0  0
M  END
>  <CHROM.1>
129.58626779,108.71290344,57.75599616,-112.72957619,145.83464086,57.34002464
-114.09502356,-161.81644533,-162.90134699,90.73598810,178.16165952,128.36868426
166.89599532,-92.13619617,-34.46958159,28.51270314,21.88021809,-0.19271927
1.53484662,-0.15433564,-1.90365027

>  <Name>
2be0_lig

>  <RI>
0

>  <Rbt.Current_Directory>
/home/itssahil/PROJECTS/Mol_Feturizer/New_Systems/rnas/2be0

>  <Rbt.Executable>
rbdock ($Id: //depot/dev/client3/rdock/2013.1/src/exe/rbdock.cxx#4 $)

>  <Rbt.Library>
libRbt.so (2013.1, Build901 2013/11/27)

>  <Rbt.Parameter_File>
/export/apps/rDock/src/rDock_2013.1_src/data/scripts/dock_solv.prm

>  <Rbt.Receptor>
prm/blind_docking_40.prm

>  <SCORE>
42.092

>  <SCORE.INTER>
17.6565

>  <SCORE.INTER.CONST>
1

>  <SCORE.INTER.POLAR>
0

>  <SCORE.INTER.ROT>
15

>  <SCORE.INTER.SOLV>
20.6122

>  <SCORE.INTER.VDW>
-8.69974

>  <SCORE.INTER.norm>
0.339548

>  <SCORE.INTRA>
13.1343

>  <SCORE.INTRA.DIHEDRAL>
-3.83128

>  <SCORE.INTRA.DIHEDRAL.0>
47.8724

>  <SCORE.INTRA.POLAR>
0

>  <SCORE.INTRA.POLAR.0>
0

>  <SCORE.INTRA.REPUL>
0.263588

>  <SCORE.INTRA.REPUL.0>
0

>  <SCORE.INTRA.SOLV>
15.9819

>  <SCORE.INTRA.SOLV.lig_0>
-115.677

>  <SCORE.INTRA.VDW>
5.74105

>  <SCORE.INTRA.VDW.0>
-7.4833

>  <SCORE.INTRA.norm>
0.252583

>  <SCORE.RESTR>
11.3012

>  <SCORE.RESTR.CAVITY>
11.3012

>  <SCORE.RESTR.norm>
0.217331

>  <SCORE.SYSTEM>
0

>  <SCORE.SYSTEM.CONST>
0

>  <SCORE.SYSTEM.DIHEDRAL>
0

>  <SCORE.SYSTEM.SOLV>
0

>  <SCORE.SYSTEM.norm>
0

>  <SCORE.heavy>
52

>  <SCORE.norm>
0.809461

>  <RMSD>
24.205

$$$$
2be0_lig
 OpenBabel11021811423D
libRbt.so/2013.1/901 2013/11/27
 52 56  0  0  0  0  0  0  0  0999 V2000
   28.2648   23.6128   -0.6118 C   0  0  2  0  0  0  0  0  0  0  0  0
   28.8305   22.4985   -1.2608 O   0  0  0  0  0  0  0  0  0  0  0  0
   30.4030   18.5135   -0.2519 C   0  0  2  0  0  0  0  0  0  0  0  0
   30.8524   17.3584    0.5747 N   0  0  0  0  0  0  0  0  0  0  0  0
   26.4054   21.2701   -1.5912 C   0  0  2  0  0  0  0  0  0  0  0  0
   24.9770   21.2306   -1.3953 O   0  0  0  0  0  0  0  0  0  0  0  0
   23.9344   18.8106   -4.7553 C   0  0  1  0  0  0  0  0  0  0  0  0
   31.1510   21.4785   -4.6614 C   0  0  0  0  0  0  0  0  0  0  0  0
   29.3763   24.4872    0.0994 C   0  0  2  0  0  0  0  0  0  0  0  0
   30.4112   24.8562   -0.8688 N   0  0  0  0  0  0  0  0  0  0  0  0
   31.2335   19.8107    0.1674 C   0  0  0  0  0  0  0  0  0  0  0  0
   26.6640   20.8601   -3.0498 C   0  0  2  0  0  0  0  0  0  0  0  0
   26.5073   22.1411   -3.8060 O   0  0  0  0  0  0  0  0  0  0  0  0
   23.7220   18.8211   -6.3666 C   0  0  2  0  0  0  0  0  0  0  0  0
   23.8431   20.2317   -6.8579 N   0  0  0  0  0  0  0  0  0  0  0  0
   32.0106   20.3459   -4.8431 C   0  0  0  0  0  0  0  0  0  0  0  0
   33.2590   20.5086   -5.4990 N   0  0  0  0  0  0  0  0  0  0  0  0
   29.9795   23.6825    1.3422 C   0  0  1  0  0  0  0  0  0  0  0  0
   30.9779   24.4794    1.9605 O   0  0  0  0  0  0  0  0  0  0  0  0
   30.7598   21.1063   -0.7082 C   0  0  2  0  0  0  0  0  0  0  0  0
   31.5012   22.2800   -0.3420 N   0  0  0  0  0  0  0  0  0  0  0  0
   25.5939   19.7596   -3.1784 C   0  0  2  0  0  0  0  0  0  0  0  0
   25.2407   19.3539   -4.4926 O   0  0  0  0  0  0  0  0  0  0  0  0
   22.3041   18.2473   -6.6658 C   0  0  1  0  0  0  0  0  0  0  0  0
   22.3055   16.8650   -6.1593 O   0  0  0  0  0  0  0  0  0  0  0  0
   33.7144   21.7617   -5.9994 C   0  0  0  0  0  0  0  0  0  0  0  0
   28.8194   23.3434    2.3227 C   0  0  2  0  0  0  0  0  0  0  0  0
   29.3185   22.5903    3.4986 O   0  0  0  0  0  0  0  0  0  0  0  0
   29.2125   21.3663   -0.4892 C   0  0  2  0  0  0  0  0  0  0  0  0
   24.4082   20.3158   -2.3546 C   0  0  1  0  0  0  0  0  0  0  0  0
   21.1716   19.1456   -5.9199 C   0  0  2  0  0  0  0  0  0  0  0  0
   21.1647   20.5289   -6.4209 O   0  0  0  0  0  0  0  0  0  0  0  0
   32.9082   22.9168   -5.8479 C   0  0  0  0  0  0  0  0  0  0  0  0
   27.7228   22.4731    1.5963 C   0  0  2  0  0  0  0  0  0  0  0  0
   27.2782   23.2599    0.4569 O   0  0  0  0  0  0  0  0  0  0  0  0
   28.4461   20.0627   -0.9042 C   0  0  2  0  0  0  0  0  0  0  0  0
   27.0851   20.4112   -0.6815 O   0  0  0  0  0  0  0  0  0  0  0  0
   23.6890   19.2270   -1.5600 C   0  0  0  0  0  0  0  0  0  0  0  0
   22.4683   19.6112   -0.9739 O   0  0  0  0  0  0  0  0  0  0  0  0
   21.4465   19.1473   -4.3460 C   0  0  1  0  0  0  0  0  0  0  0  0
   22.8488   19.6666   -4.1038 O   0  0  0  0  0  0  0  0  0  0  0  0
   31.5958   22.7996   -5.1710 C   0  0  0  0  0  0  0  0  0  0  0  0
   26.6463   22.2036    2.5631 C   0  0  0  0  0  0  0  0  0  0  0  0
   26.1899   23.3614    3.0570 O   0  0  0  0  0  0  0  0  0  0  0  0
   28.9080   18.8328   -0.0145 C   0  0  1  0  0  0  0  0  0  0  0  0
   28.2278   17.6842   -0.4012 O   0  0  0  0  0  0  0  0  0  0  0  0
   27.3792   22.6917   -4.8705 C   0  0  0  0  0  0  0  0  0  0  0  0
   20.3460   20.0255   -3.6910 C   0  0  0  0  0  0  0  0  0  0  0  0
   20.6226   21.4250   -3.8996 N   0  0  0  0  0  0  0  0  0  0  0  0
   27.8906   21.5063   -5.6956 C   0  0  0  0  0  0  0  0  0  0  0  0
   28.6759   20.5851   -4.8116 N   0  0  0  0  0  0  0  0  0  0  0  0
   29.7449   21.2652   -3.9145 C   0  0  0  0  0  0  0  0  0  0  0  0
  1  2  1  1  0  0  0
  1  9  1  0  0  0  0
  1 35  1  0  0  0  0
  3  4  1  1  0  0  0
  3 11  1  0  0  0  0
  3 45  1  0  0  0  0
  5  6  1  0  0  0  0
  5 12  1  0  0  0  0
  5 37  1  1  0  0  0
  6 30  1  0  0  0  0
  7 14  1  0  0  0  0
  7 41  1  0  0  0  0
  7 23  1  6  0  0  0
  8 16  2  0  0  0  0
  8 42  1  0  0  0  0
  9 10  1  6  0  0  0
  9 18  1  0  0  0  0
 11 20  1  0  0  0  0
 12 13  1  6  0  0  0
 12 22  1  0  0  0  0
 13 47  1  0  0  0  0
 14 15  1  1  0  0  0
 14 24  1  0  0  0  0
 16 17  1  0  0  0  0
 17 26  2  0  0  0  0
 18 19  1  1  0  0  0
 18 27  1  0  0  0  0
 20 21  1  1  0  0  0
 20 29  1  0  0  0  0
 22 23  1  6  0  0  0
 22 30  1  0  0  0  0
 24 25  1  1  0  0  0
 24 31  1  0  0  0  0
 26 33  1  0  0  0  0
 27 28  1  1  0  0  0
 27 34  1  0  0  0  0
 29  2  1  6  0  0  0
 29 36  1  0  0  0  0
 30 38  1  1  0  0  0
 31 32  1  6  0  0  0
 31 40  1  0  0  0  0
 33 42  2  0  0  0  0
 34 35  1  0  0  0  0
 34 43  1  1  0  0  0
 36 37  1  1  0  0  0
 36 45  1  0  0  0  0
 38 39  1  0  0  0  0
 40 41  1  0  0  0  0
 40 48  1  1  0  0  0
 43 44  1  0  0  0  0
 45 46  1  6  0  0  0
 47 50  1  0  0  0  0
 48 49  1  0  0  0  0
 50 51  1  0  0  0  0
 51 52  1  0  0  0  0
 52  8  1  0  0  0  0
M  END
>  <CHROM.1>
77.99154550,165.20470928,165.40422613,134.68620212,35.74423998,-153.18171530
-121.36654954,74.30116388,55.18043553,75.46310414,-76.28823688,-60.61026490
-48.43497914,-85.38626848,-76.07596417,27.20263926,20.97697133,-2.29789111
0.55478561,0.18870487,1.31123197

>  <Name>
2be0_lig

>  <RI>
0

>  <Rbt.Current_Directory>
/home/itssahil/PROJECTS/Mol_Feturizer/New_Systems/rnas/2be0

>  <Rbt.Executable>
rbdock ($Id: //depot/dev/client3/rdock/2013.1/src/exe/rbdock.cxx#4 $)

>  <Rbt.Library>
libRbt.so (2013.1, Build901 2013/11/27)

>  <Rbt.Parameter_File>
/export/apps/rDock/src/rDock_2013.1_src/data/scripts/dock_solv.prm

>  <Rbt.Receptor>
prm/blind_docking_40.prm

>  <SCORE>
29.9176

>  <SCORE.INTER>
7.19065

>  <SCORE.INTER.CONST>
1

>  <SCORE.INTER.POLAR>
-0.195742

>  <SCORE.INTER.ROT>
15

>  <SCORE.INTER.SOLV>
27.8129

>  <SCORE.INTER.VDW>
-17.4247

>  <SCORE.INTER.norm>
0.138282

>  <SCORE.INTRA>
1.21788

>  <SCORE.INTRA.DIHEDRAL>
-21.5769

>  <SCORE.INTRA.DIHEDRAL.0>
47.8724

>  <SCORE.INTRA.POLAR>
0

>  <SCORE.INTRA.POLAR.0>
0

>  <SCORE.INTRA.REPUL>
0

>  <SCORE.INTRA.REPUL.0>
0

>  <SCORE.INTRA.SOLV>
8.25163

>  <SCORE.INTRA.SOLV.lig_0>
-115.677

>  <SCORE.INTRA.VDW>
7.88049

>  <SCORE.INTRA.VDW.0>
-7.4833

>  <SCORE.INTRA.norm>
0.0234208

>  <SCORE.RESTR>
21.5091

>  <SCORE.RESTR.CAVITY>
21.5091

>  <SCORE.RESTR.norm>
0.413637

>  <SCORE.SYSTEM>
0

>  <SCORE.SYSTEM.CONST>
0

>  <SCORE.SYSTEM.DIHEDRAL>
0

>  <SCORE.SYSTEM.SOLV>
0

>  <SCORE.SYSTEM.norm>
0

>  <SCORE.heavy>
52

>  <SCORE.norm>
0.575339

>  <RMSD>
24.212

$$$$
2be0_lig
 OpenBabel11021811423D
libRbt.so/2013.1/901 2013/11/27
 52 56  0  0  0  0  0  0  0  0999 V2000
   29.3840   22.3047    0.9786 C   0  0  2  0  0  0  0  0  0  0  0  0
   28.0287   22.3126    0.5968 O   0  0  0  0  0  0  0  0  0  0  0  0
   26.8376   18.2381    1.7589 C   0  0  2  0  0  0  0  0  0  0  0  0
   26.0153   17.0001    1.8621 N   0  0  0  0  0  0  0  0  0  0  0  0
   27.6449   19.7417   -2.2196 C   0  0  2  0  0  0  0  0  0  0  0  0
   28.4374   19.3578   -3.3619 O   0  0  0  0  0  0  0  0  0  0  0  0
   27.2339   22.2771   -5.9776 C   0  0  1  0  0  0  0  0  0  0  0  0
   21.2188   19.6298   -2.2526 C   0  0  0  0  0  0  0  0  0  0  0  0
   29.8975   23.7670    1.3005 C   0  0  2  0  0  0  0  0  0  0  0  0
   29.0273   24.3887    2.3008 N   0  0  0  0  0  0  0  0  0  0  0  0
   25.9786   19.4807    2.2748 C   0  0  0  0  0  0  0  0  0  0  0  0
   26.6944   20.8528   -2.6932 C   0  0  2  0  0  0  0  0  0  0  0  0
   25.5355   20.1007   -3.2665 O   0  0  0  0  0  0  0  0  0  0  0  0
   25.7561   22.3763   -6.6465 C   0  0  2  0  0  0  0  0  0  0  0  0
   24.8724   21.3442   -6.0143 N   0  0  0  0  0  0  0  0  0  0  0  0
   21.9887   20.4764   -1.3893 C   0  0  0  0  0  0  0  0  0  0  0  0
   22.2810   20.0523   -0.0665 N   0  0  0  0  0  0  0  0  0  0  0  0
   29.9643   24.6222   -0.0486 C   0  0  1  0  0  0  0  0  0  0  0  0
   30.4190   25.9301    0.2624 O   0  0  0  0  0  0  0  0  0  0  0  0
   26.8417   20.8637    2.1644 C   0  0  2  0  0  0  0  0  0  0  0  0
   26.0805   21.9893    2.6279 N   0  0  0  0  0  0  0  0  0  0  0  0
   27.6586   21.6039   -3.6307 C   0  0  2  0  0  0  0  0  0  0  0  0
   27.0801   22.5034   -4.5649 O   0  0  0  0  0  0  0  0  0  0  0  0
   25.9053   22.1195   -8.1764 C   0  0  1  0  0  0  0  0  0  0  0  0
   26.7721   23.1929   -8.6901 O   0  0  0  0  0  0  0  0  0  0  0  0
   21.8408   18.8058    0.4632 C   0  0  0  0  0  0  0  0  0  0  0  0
   30.9158   23.9000   -1.0462 C   0  0  2  0  0  0  0  0  0  0  0  0
   31.0155   24.6471   -2.3234 O   0  0  0  0  0  0  0  0  0  0  0  0
   27.2824   21.1034    0.6618 C   0  0  2  0  0  0  0  0  0  0  0  0
   28.4813   20.4672   -4.2827 C   0  0  1  0  0  0  0  0  0  0  0  0
   26.5672   20.6559   -8.4329 C   0  0  2  0  0  0  0  0  0  0  0  0
   25.7064   19.5780   -7.9216 O   0  0  0  0  0  0  0  0  0  0  0  0
   21.0772   17.9267   -0.3437 C   0  0  0  0  0  0  0  0  0  0  0  0
   30.3883   22.4458   -1.3538 C   0  0  2  0  0  0  0  0  0  0  0  0
   30.3093   21.7692   -0.0690 O   0  0  0  0  0  0  0  0  0  0  0  0
   28.1108   19.8538    0.2021 C   0  0  2  0  0  0  0  0  0  0  0  0
   28.4597   20.1807   -1.1375 O   0  0  0  0  0  0  0  0  0  0  0  0
   29.9520   20.8405   -4.4610 C   0  0  0  0  0  0  0  0  0  0  0  0
   30.7863   19.8085   -4.9302 O   0  0  0  0  0  0  0  0  0  0  0  0
   27.9947   20.5859   -7.7187 C   0  0  1  0  0  0  0  0  0  0  0  0
   27.8102   20.8872   -6.2456 O   0  0  0  0  0  0  0  0  0  0  0  0
   20.7446   18.3234   -1.7316 C   0  0  0  0  0  0  0  0  0  0  0  0
   31.3363   21.8079   -2.2814 C   0  0  0  0  0  0  0  0  0  0  0  0
   31.5754   22.6304   -3.3105 O   0  0  0  0  0  0  0  0  0  0  0  0
   27.2337   18.5348    0.2931 C   0  0  1  0  0  0  0  0  0  0  0  0
   27.9845   17.4360   -0.1074 O   0  0  0  0  0  0  0  0  0  0  0  0
   24.1247   20.5389   -3.3854 C   0  0  0  0  0  0  0  0  0  0  0  0
   28.5708   19.1690   -7.9871 C   0  0  0  0  0  0  0  0  0  0  0  0
   27.5929   18.3404   -8.6472 N   0  0  0  0  0  0  0  0  0  0  0  0
   23.3602   19.4172   -4.0958 C   0  0  0  0  0  0  0  0  0  0  0  0
   22.1112   19.9752   -4.7084 N   0  0  0  0  0  0  0  0  0  0  0  0
   20.9044   20.1346   -3.7448 C   0  0  0  0  0  0  0  0  0  0  0  0
  1  2  1  6  0  0  0
  1  9  1  0  0  0  0
  1 35  1  0  0  0  0
  3  4  1  6  0  0  0
  3 11  1  0  0  0  0
  3 45  1  0  0  0  0
  5  6  1  0  0  0  0
  5 12  1  0  0  0  0
  5 37  1  1  0  0  0
  6 30  1  0  0  0  0
  7 14  1  0  0  0  0
  7 41  1  0  0  0  0
  7 23  1  1  0  0  0
  8 16  2  0  0  0  0
  8 42  1  0  0  0  0
  9 10  1  1  0  0  0
  9 18  1  0  0  0  0
 11 20  1  0  0  0  0
 12 13  1  6  0  0  0
 12 22  1  0  0  0  0
 13 47  1  0  0  0  0
 14 15  1  1  0  0  0
 14 24  1  0  0  0  0
 16 17  1  0  0  0  0
 17 26  2  0  0  0  0
 18 19  1  1  0  0  0
 18 27  1  0  0  0  0
 20 21  1  6  0  0  0
 20 29  1  0  0  0  0
 22 23  1  6  0  0  0
 22 30  1  0  0  0  0
 24 25  1  1  0  0  0
 24 31  1  0  0  0  0
 26 33  1  0  0  0  0
 27 28  1  6  0  0  0
 27 34  1  0  0  0  0
 29  2  1  1  0  0  0
 29 36  1  0  0  0  0
 30 38  1  1  0  0  0
 31 32  1  1  0  0  0
 31 40  1  0  0  0  0
 33 42  2  0  0  0  0
 34 35  1  0  0  0  0
 34 43  1  6  0  0  0
 36 37  1  6  0  0  0
 36 45  1  0  0  0  0
 38 39  1  0  0  0  0
 40 41  1  0  0  0  0
 40 48  1  1  0  0  0
 43 44  1  0  0  0  0
 45 46  1  1  0  0  0
 47 50  1  0  0  0  0
 48 49  1  0  0  0  0
 50 51  1  0  0  0  0
 51 52  1  0  0  0  0
 52  8  1  0  0  0  0
M  END
>  <CHROM.1>
-161.04495431,-142.10084274,129.99230872,153.38695296,177.71441108,-117.82498738
79.88624807,57.91509223,-49.85501181,-93.67227881,-6.42199167,-158.41780051
-81.95934064,-1.35414213,77.78407577,27.00091530,20.91306904,-2.57031671
-1.10819223,-0.44878363,-1.57252043

>  <Name>
2be0_lig

>  <RI>
0

>  <Rbt.Current_Directory>
/home/itssahil/PROJECTS/Mol_Feturizer/New_Systems/rnas/2be0

>  <Rbt.Executable>
rbdock ($Id: //depot/dev/client3/rdock/2013.1/src/exe/rbdock.cxx#4 $)

>  <Rbt.Library>
libRbt.so (2013.1, Build901 2013/11/27)

>  <Rbt.Parameter_File>
/export/apps/rDock/src/rDock_2013.1_src/data/scripts/dock_solv.prm

>  <Rbt.Receptor>
prm/blind_docking_40.prm

>  <SCORE>
48.9578

>  <SCORE.INTER>
7.64498

>  <SCORE.INTER.CONST>
1

>  <SCORE.INTER.POLAR>
-0.979796

>  <SCORE.INTER.ROT>
15

>  <SCORE.INTER.SOLV>
32.583

>  <SCORE.INTER.VDW>
-16.0984

>  <SCORE.INTER.norm>
0.147019

>  <SCORE.INTRA>
26.6947

>  <SCORE.INTRA.DIHEDRAL>
-8.75799

>  <SCORE.INTRA.DIHEDRAL.0>
47.8724

>  <SCORE.INTRA.POLAR>
0

>  <SCORE.INTRA.POLAR.0>
0

>  <SCORE.INTRA.REPUL>
0

>  <SCORE.INTRA.REPUL.0>
0

>  <SCORE.INTRA.SOLV>
5.35003

>  <SCORE.INTRA.SOLV.lig_0>
-115.677

>  <SCORE.INTRA.VDW>
28.3987

>  <SCORE.INTRA.VDW.0>
-7.4833

>  <SCORE.INTRA.norm>
0.51336

>  <SCORE.RESTR>
14.618

>  <SCORE.RESTR.CAVITY>
14.618

>  <SCORE.RESTR.norm>
0.281116

>  <SCORE.SYSTEM>
0

>  <SCORE.SYSTEM.CONST>
0

>  <SCORE.SYSTEM.DIHEDRAL>
0

>  <SCORE.SYSTEM.SOLV>
0

>  <SCORE.SYSTEM.norm>
0

>  <SCORE.heavy>
52

>  <SCORE.norm>
0.941495

>  <RMSD>
24.257

$$$$
2be0_lig
 OpenBabel11021811423D
libRbt.so/2013.1/901 2013/11/27
 52 56  0  0  0  0  0  0  0  0999 V2000
   26.9430   19.4597    1.6568 C   0  0  2  0  0  0  0  0  0  0  0  0
   27.0565   19.7035    0.2746 O   0  0  0  0  0  0  0  0  0  0  0  0
   31.4399   19.6318   -0.1146 C   0  0  2  0  0  0  0  0  0  0  0  0
   32.7842   19.6155   -0.7565 N   0  0  0  0  0  0  0  0  0  0  0  0
   28.3218   22.4625   -1.4767 C   0  0  2  0  0  0  0  0  0  0  0  0
   27.5955   23.7025   -1.6002 O   0  0  0  0  0  0  0  0  0  0  0  0
   24.5701   20.0303   -2.5908 C   0  0  1  0  0  0  0  0  0  0  0  0
   26.4872   21.2411   -6.8776 C   0  0  0  0  0  0  0  0  0  0  0  0
   25.5066   19.8541    2.1925 C   0  0  2  0  0  0  0  0  0  0  0  0
   24.4791   19.1679    1.4065 N   0  0  0  0  0  0  0  0  0  0  0  0
   30.5867   18.3965   -0.6571 C   0  0  0  0  0  0  0  0  0  0  0  0
   27.5442   21.4113   -2.2846 C   0  0  2  0  0  0  0  0  0  0  0  0
   28.0562   21.5926   -3.6783 O   0  0  0  0  0  0  0  0  0  0  0  0
   24.0351   19.5270   -4.0406 C   0  0  2  0  0  0  0  0  0  0  0  0
   22.9576   20.4593   -4.5050 N   0  0  0  0  0  0  0  0  0  0  0  0
   25.0746   21.0921   -7.0705 C   0  0  0  0  0  0  0  0  0  0  0  0
   24.5809   20.0093   -7.8444 N   0  0  0  0  0  0  0  0  0  0  0  0
   25.3334   21.4427    2.1464 C   0  0  1  0  0  0  0  0  0  0  0  0
   24.0384   21.7744    2.6228 O   0  0  0  0  0  0  0  0  0  0  0  0
   29.0967   18.3863    0.0135 C   0  0  2  0  0  0  0  0  0  0  0  0
   28.3194   17.2780   -0.4649 N   0  0  0  0  0  0  0  0  0  0  0  0
   26.1120   21.8549   -1.9316 C   0  0  2  0  0  0  0  0  0  0  0  0
   25.0644   21.3711   -2.7592 O   0  0  0  0  0  0  0  0  0  0  0  0
   23.4834   18.0793   -3.8706 C   0  0  1  0  0  0  0  0  0  0  0  0
   24.6216   17.2553   -3.4315 O   0  0  0  0  0  0  0  0  0  0  0  0
   25.4295   19.0423   -8.4549 C   0  0  0  0  0  0  0  0  0  0  0  0
   26.4528   22.0883    3.0139 C   0  0  2  0  0  0  0  0  0  0  0  0
   26.3463   23.5674    3.0067 O   0  0  0  0  0  0  0  0  0  0  0  0
   28.3484   19.7423   -0.3194 C   0  0  2  0  0  0  0  0  0  0  0  0
   26.2157   23.3982   -1.8903 C   0  0  1  0  0  0  0  0  0  0  0  0
   22.2876   18.0655   -2.7680 C   0  0  2  0  0  0  0  0  0  0  0  0
   21.1466   18.8875   -3.2001 O   0  0  0  0  0  0  0  0  0  0  0  0
   26.8343   19.1373   -8.2982 C   0  0  0  0  0  0  0  0  0  0  0  0
   27.8751   21.6836    2.4653 C   0  0  2  0  0  0  0  0  0  0  0  0
   27.9158   20.2302    2.4936 O   0  0  0  0  0  0  0  0  0  0  0  0
   29.2304   20.9199    0.2230 C   0  0  2  0  0  0  0  0  0  0  0  0
   28.4654   22.0703   -0.1154 O   0  0  0  0  0  0  0  0  0  0  0  0
   25.3790   24.0087   -0.7672 C   0  0  0  0  0  0  0  0  0  0  0  0
   25.9117   23.8712    0.5284 O   0  0  0  0  0  0  0  0  0  0  0  0
   22.8443   18.6123   -1.3737 C   0  0  1  0  0  0  0  0  0  0  0  0
   23.4121   19.9993   -1.5939 O   0  0  0  0  0  0  0  0  0  0  0  0
   27.3998   20.2499   -7.5003 C   0  0  0  0  0  0  0  0  0  0  0  0
   28.8879   22.3034    3.3349 C   0  0  0  0  0  0  0  0  0  0  0  0
   28.9242   23.6224    3.1077 O   0  0  0  0  0  0  0  0  0  0  0  0
   30.6573   20.9179   -0.4708 C   0  0  1  0  0  0  0  0  0  0  0  0
   31.4298   21.9602    0.0277 O   0  0  0  0  0  0  0  0  0  0  0  0
   29.4632   21.6237   -4.1429 C   0  0  0  0  0  0  0  0  0  0  0  0
   21.6614   18.5868   -0.3679 C   0  0  0  0  0  0  0  0  0  0  0  0
   20.6762   19.5795   -0.7180 N   0  0  0  0  0  0  0  0  0  0  0  0
   29.4346   21.6245   -5.6747 C   0  0  0  0  0  0  0  0  0  0  0  0
   28.5410   22.7272   -6.1564 N   0  0  0  0  0  0  0  0  0  0  0  0
   27.0175   22.4749   -5.9962 C   0  0  0  0  0  0  0  0  0  0  0  0
  1  2  1  6  0  0  0
  1  9  1  0  0  0  0
  1 35  1  0  0  0  0
  3  4  1  6  0  0  0
  3 11  1  0  0  0  0
  3 45  1  0  0  0  0
  5  6  1  0  0  0  0
  5 12  1  0  0  0  0
  5 37  1  1  0  0  0
  6 30  1  0  0  0  0
  7 14  1  0  0  0  0
  7 41  1  0  0  0  0
  7 23  1  6  0  0  0
  8 16  2  0  0  0  0
  8 42  1  0  0  0  0
  9 10  1  6  0  0  0
  9 18  1  0  0  0  0
 11 20  1  0  0  0  0
 12 13  1  6  0  0  0
 12 22  1  0  0  0  0
 13 47  1  0  0  0  0
 14 15  1  1  0  0  0
 14 24  1  0  0  0  0
 16 17  1  0  0  0  0
 17 26  2  0  0  0  0
 18 19  1  1  0  0  0
 18 27  1  0  0  0  0
 20 21  1  6  0  0  0
 20 29  1  0  0  0  0
 22 23  1  6  0  0  0
 22 30  1  0  0  0  0
 24 25  1  1  0  0  0
 24 31  1  0  0  0  0
 26 33  1  0  0  0  0
 27 28  1  6  0  0  0
 27 34  1  0  0  0  0
 29  2  1  1  0  0  0
 29 36  1  0  0  0  0
 30 38  1  1  0  0  0
 31 32  1  6  0  0  0
 31 40  1  0  0  0  0
 33 42  2  0  0  0  0
 34 35  1  0  0  0  0
 34 43  1  1  0  0  0
 36 37  1  6  0  0  0
 36 45  1  0  0  0  0
 38 39  1  0  0  0  0
 40 41  1  0  0  0  0
 40 48  1  1  0  0  0
 43 44  1  0  0  0  0
 45 46  1  1  0  0  0
 47 50  1  0  0  0  0
 48 49  1  0  0  0  0
 50 51  1  0  0  0  0
 51 52  1  0  0  0  0
 52  8  1  0  0  0  0
M  END
>  <CHROM.1>
163.95703442,-175.75751127,-150.56958909,51.54346938,171.73413910,78.73411366
55.26805811,-40.95620013,-72.38212384,-69.64390480,-69.19122951,52.50880410
-74.38454985,-64.16997369,-165.60644150,26.57725199,20.72591475,-1.60591176
1.14366285,0.24490381,1.47124324

>  <Name>
2be0_lig

>  <RI>
0

>  <Rbt.Current_Directory>
/home/itssahil/PROJECTS/Mol_Feturizer/New_Systems/rnas/2be0

>  <Rbt.Executable>
rbdock ($Id: //depot/dev/client3/rdock/2013.1/src/exe/rbdock.cxx#4 $)

>  <Rbt.Library>
libRbt.so (2013.1, Build901 2013/11/27)

>  <Rbt.Parameter_File>
/export/apps/rDock/src/rDock_2013.1_src/data/scripts/dock_solv.prm

>  <Rbt.Receptor>
prm/blind_docking_40.prm

>  <SCORE>
20.2385

>  <SCORE.INTER>
12.3154

>  <SCORE.INTER.CONST>
1

>  <SCORE.INTER.POLAR>
-0.979796

>  <SCORE.INTER.ROT>
15

>  <SCORE.INTER.SOLV>
21.659

>  <SCORE.INTER.VDW>
-9.34341

>  <SCORE.INTER.norm>
0.236835

>  <SCORE.INTRA>
-10.321

>  <SCORE.INTRA.DIHEDRAL>
-36.6571

>  <SCORE.INTRA.DIHEDRAL.0>
47.8724

>  <SCORE.INTRA.POLAR>
0

>  <SCORE.INTRA.POLAR.0>
0

>  <SCORE.INTRA.REPUL>
0

>  <SCORE.INTRA.REPUL.0>
0

>  <SCORE.INTRA.SOLV>
5.00423

>  <SCORE.INTRA.SOLV.lig_0>
-115.677

>  <SCORE.INTRA.VDW>
5.50541

>  <SCORE.INTRA.VDW.0>
-7.4833

>  <SCORE.INTRA.norm>
-0.198481

>  <SCORE.RESTR>
18.2441

>  <SCORE.RESTR.CAVITY>
18.2441

>  <SCORE.RESTR.norm>
0.350848

>  <SCORE.SYSTEM>
0

>  <SCORE.SYSTEM.CONST>
0

>  <SCORE.SYSTEM.DIHEDRAL>
0

>  <SCORE.SYSTEM.SOLV>
0

>  <SCORE.SYSTEM.norm>
0

>  <SCORE.heavy>
52

>  <SCORE.norm>
0.389202

>  <RMSD>
24.278

$$$$
2be0_lig
 OpenBabel11021811423D
libRbt.so/2013.1/901 2013/11/27
 52 56  0  0  0  0  0  0  0  0999 V2000
   28.7254   22.5227    2.4753 C   0  0  2  0  0  0  0  0  0  0  0  0
   27.5835   22.4878    1.6521 O   0  0  0  0  0  0  0  0  0  0  0  0
   26.4933   18.2439    2.0667 C   0  0  2  0  0  0  0  0  0  0  0  0
   25.6723   17.0019    2.0128 N   0  0  0  0  0  0  0  0  0  0  0  0
   27.7756   19.9849   -1.7189 C   0  0  2  0  0  0  0  0  0  0  0  0
   29.0620   20.0452   -2.3683 O   0  0  0  0  0  0  0  0  0  0  0  0
   27.6210   21.5062   -5.8772 C   0  0  1  0  0  0  0  0  0  0  0  0
   21.9669   19.4505   -1.8988 C   0  0  0  0  0  0  0  0  0  0  0  0
   29.6102   23.8003    2.1742 C   0  0  2  0  0  0  0  0  0  0  0  0
   28.7902   25.0085    2.2858 N   0  0  0  0  0  0  0  0  0  0  0  0
   25.7312   19.3363    2.9466 C   0  0  0  0  0  0  0  0  0  0  0  0
   26.7376   20.4629   -2.7468 C   0  0  2  0  0  0  0  0  0  0  0  0
   26.4218   19.2257   -3.5260 O   0  0  0  0  0  0  0  0  0  0  0  0
   28.0116   22.7437   -6.8556 C   0  0  2  0  0  0  0  0  0  0  0  0
   26.7833   23.5653   -7.1048 N   0  0  0  0  0  0  0  0  0  0  0  0
   21.0577   18.4644   -2.4047 C   0  0  0  0  0  0  0  0  0  0  0  0
   20.4551   17.5397   -1.5121 N   0  0  0  0  0  0  0  0  0  0  0  0
   30.2788   23.6625    0.7286 C   0  0  1  0  0  0  0  0  0  0  0  0
   31.0605   24.8196    0.4753 O   0  0  0  0  0  0  0  0  0  0  0  0
   26.5939   20.7221    3.0191 C   0  0  2  0  0  0  0  0  0  0  0  0
   25.9199   21.7128    3.8100 N   0  0  0  0  0  0  0  0  0  0  0  0
   27.5566   21.5914   -3.4013 C   0  0  2  0  0  0  0  0  0  0  0  0
   27.1039   22.0710   -4.6589 O   0  0  0  0  0  0  0  0  0  0  0  0
   28.5611   22.1464   -8.1861 C   0  0  1  0  0  0  0  0  0  0  0  0
   29.7652   21.3800   -7.8255 O   0  0  0  0  0  0  0  0  0  0  0  0
   20.7104   17.5355   -0.1111 C   0  0  0  0  0  0  0  0  0  0  0  0
   31.1384   22.3654    0.7021 C   0  0  2  0  0  0  0  0  0  0  0  0
   31.7835   22.1805   -0.6204 O   0  0  0  0  0  0  0  0  0  0  0  0
   26.8332   21.2831    1.5571 C   0  0  2  0  0  0  0  0  0  0  0  0
   28.9942   21.0197   -3.4296 C   0  0  1  0  0  0  0  0  0  0  0  0
   27.4386   21.1896   -8.8719 C   0  0  2  0  0  0  0  0  0  0  0  0
   26.2319   21.9489   -9.2346 O   0  0  0  0  0  0  0  0  0  0  0  0
   21.5993   18.4872    0.4468 C   0  0  0  0  0  0  0  0  0  0  0  0
   30.2402   21.1047    1.0044 C   0  0  2  0  0  0  0  0  0  0  0  0
   29.6359   21.3471    2.3048 O   0  0  0  0  0  0  0  0  0  0  0  0
   27.5724   20.1714    0.7343 C   0  0  2  0  0  0  0  0  0  0  0  0
   27.7439   20.7815   -0.5391 O   0  0  0  0  0  0  0  0  0  0  0  0
   30.0499   22.0820   -3.1275 C   0  0  0  0  0  0  0  0  0  0  0  0
   29.8594   22.8028   -1.9336 O   0  0  0  0  0  0  0  0  0  0  0  0
   27.0493   20.0171   -7.8586 C   0  0  1  0  0  0  0  0  0  0  0  0
   26.5661   20.6405   -6.5653 O   0  0  0  0  0  0  0  0  0  0  0  0
   22.2547   19.4737   -0.4429 C   0  0  0  0  0  0  0  0  0  0  0  0
   31.1085   19.9165    0.9872 C   0  0  0  0  0  0  0  0  0  0  0  0
   32.0824   20.0624    1.8944 O   0  0  0  0  0  0  0  0  0  0  0  0
   26.6942   18.8521    0.6585 C   0  0  1  0  0  0  0  0  0  0  0  0
   27.3668   17.8741   -0.0644 O   0  0  0  0  0  0  0  0  0  0  0  0
   25.0922   18.7027   -3.9194 C   0  0  0  0  0  0  0  0  0  0  0  0
   25.9713   19.1466   -8.5598 C   0  0  0  0  0  0  0  0  0  0  0  0
   26.5864   18.2136   -9.4708 N   0  0  0  0  0  0  0  0  0  0  0  0
   24.3839   19.8106   -4.7057 C   0  0  0  0  0  0  0  0  0  0  0  0
   22.9371   19.8521   -4.3161 N   0  0  0  0  0  0  0  0  0  0  0  0
   22.6328   20.4849   -2.9316 C   0  0  0  0  0  0  0  0  0  0  0  0
  1  2  1  6  0  0  0
  1  9  1  0  0  0  0
  1 35  1  0  0  0  0
  3  4  1  6  0  0  0
  3 11  1  0  0  0  0
  3 45  1  0  0  0  0
  5  6  1  0  0  0  0
  5 12  1  0  0  0  0
  5 37  1  1  0  0  0
  6 30  1  0  0  0  0
  7 14  1  0  0  0  0
  7 41  1  0  0  0  0
  7 23  1  1  0  0  0
  8 16  2  0  0  0  0
  8 42  1  0  0  0  0
  9 10  1  6  0  0  0
  9 18  1  0  0  0  0
 11 20  1  0  0  0  0
 12 13  1  6  0  0  0
 12 22  1  0  0  0  0
 13 47  1  0  0  0  0
 14 15  1  6  0  0  0
 14 24  1  0  0  0  0
 16 17  1  0  0  0  0
 17 26  2  0  0  0  0
 18 19  1  1  0  0  0
 18 27  1  0  0  0  0
 20 21  1  1  0  0  0
 20 29  1  0  0  0  0
 22 23  1  6  0  0  0
 22 30  1  0  0  0  0
 24 25  1  1  0  0  0
 24 31  1  0  0  0  0
 26 33  1  0  0  0  0
 27 28  1  6  0  0  0
 27 34  1  0  0  0  0
 29  2  1  1  0  0  0
 29 36  1  0  0  0  0
 30 38  1  1  0  0  0
 31 32  1  1  0  0  0
 31 40  1  0  0  0  0
 33 42  2  0  0  0  0
 34 35  1  0  0  0  0
 34 43  1  1  0  0  0
 36 37  1  6  0  0  0
 36 45  1  0  0  0  0
 38 39  1  0  0  0  0
 40 41  1  0  0  0  0
 40 48  1  6  0  0  0
 43 44  1  0  0  0  0
 45 46  1  6  0  0  0
 47 50  1  0  0  0  0
 48 49  1  0  0  0  0
 50 51  1  0  0  0  0
 51 52  1  0  0  0  0
 52  8  1  0  0  0  0
M  END
>  <CHROM.1>
165.85606766,-115.25062467,-133.12804966,133.86916919,56.25767203,-92.60173837
47.10923327,-62.60928608,58.12690719,-150.07345358,81.43003095,-139.87628153
75.27309989,-117.25994092,-35.34238011,27.11796444,20.73146486,-1.99967883
-1.28264800,-0.47539464,-1.52282279

>  <Name>
2be0_lig

>  <RI>
0

>  <Rbt.Current_Directory>
/home/itssahil/PROJECTS/Mol_Feturizer/New_Systems/rnas/2be0

>  <Rbt.Executable>
rbdock ($Id: //depot/dev/client3/rdock/2013.1/src/exe/rbdock.cxx#4 $)

>  <Rbt.Library>
libRbt.so (2013.1, Build901 2013/11/27)

>  <Rbt.Parameter_File>
/export/apps/rDock/src/rDock_2013.1_src/data/scripts/dock_solv.prm

>  <Rbt.Receptor>
prm/blind_docking_40.prm

>  <SCORE>
9.88338

>  <SCORE.INTER>
-3.2231

>  <SCORE.INTER.CONST>
1

>  <SCORE.INTER.POLAR>
-0.470451

>  <SCORE.INTER.ROT>
15

>  <SCORE.INTER.SOLV>
31.655

>  <SCORE.INTER.VDW>
-24.7322

>  <SCORE.INTER.norm>
-0.0619826

>  <SCORE.INTRA>
-2.12629

>  <SCORE.INTRA.DIHEDRAL>
-11.1021

>  <SCORE.INTRA.DIHEDRAL.0>
47.8724

>  <SCORE.INTRA.POLAR>
0

>  <SCORE.INTRA.POLAR.0>
0

>  <SCORE.INTRA.REPUL>
0

>  <SCORE.INTRA.REPUL.0>
0

>  <SCORE.INTRA.SOLV>
-0.739381

>  <SCORE.INTRA.SOLV.lig_0>
-115.677

>  <SCORE.INTRA.VDW>
3.79446

>  <SCORE.INTRA.VDW.0>
-7.4833

>  <SCORE.INTRA.norm>
-0.0408902

>  <SCORE.RESTR>
15.2328

>  <SCORE.RESTR.CAVITY>
15.2328

>  <SCORE.RESTR.norm>
0.292938

>  <SCORE.SYSTEM>
0

>  <SCORE.SYSTEM.CONST>
0

>  <SCORE.SYSTEM.DIHEDRAL>
0

>  <SCORE.SYSTEM.SOLV>
0

>  <SCORE.SYSTEM.norm>
0

>  <SCORE.heavy>
52

>  <SCORE.norm>
0.190065

>  <RMSD>
24.281

$$$$
2be0_lig
 OpenBabel11021811423D
libRbt.so/2013.1/901 2013/11/27
 52 56  0  0  0  0  0  0  0  0999 V2000
   30.0694   20.9784   -4.0367 C   0  0  2  0  0  0  0  0  0  0  0  0
   29.5664   22.1485   -3.4361 O   0  0  0  0  0  0  0  0  0  0  0  0
   25.9351   23.0958   -1.1368 C   0  0  2  0  0  0  0  0  0  0  0  0
   24.8215   22.9403   -0.1595 N   0  0  0  0  0  0  0  0  0  0  0  0
   29.8923   23.1380    0.5380 C   0  0  2  0  0  0  0  0  0  0  0  0
   31.2661   22.9744    0.9459 O   0  0  0  0  0  0  0  0  0  0  0  0
   29.0065   18.6828    1.1743 C   0  0  1  0  0  0  0  0  0  0  0  0
   26.1771   25.7292    5.7780 C   0  0  0  0  0  0  0  0  0  0  0  0
   31.4421   21.2571   -4.7742 C   0  0  2  0  0  0  0  0  0  0  0  0
   32.3895   21.8716   -3.8419 N   0  0  0  0  0  0  0  0  0  0  0  0
   25.9205   21.8597   -2.1468 C   0  0  0  0  0  0  0  0  0  0  0  0
   29.1179   21.9337    1.0969 C   0  0  2  0  0  0  0  0  0  0  0  0
   28.7729   22.3558    2.4898 O   0  0  0  0  0  0  0  0  0  0  0  0
   28.8190   18.8351   -0.4329 C   0  0  2  0  0  0  0  0  0  0  0  0
   28.4149   20.2456   -0.7379 N   0  0  0  0  0  0  0  0  0  0  0  0
   25.7531   27.0969    5.8448 C   0  0  0  0  0  0  0  0  0  0  0  0
   26.1153   27.8916    6.9638 N   0  0  0  0  0  0  0  0  0  0  0  0
   31.1858   22.1745   -6.0581 C   0  0  1  0  0  0  0  0  0  0  0  0
   32.4279   22.4185   -6.6997 O   0  0  0  0  0  0  0  0  0  0  0  0
   27.1382   21.9852   -3.2291 C   0  0  2  0  0  0  0  0  0  0  0  0
   27.1348   20.8799   -4.1453 N   0  0  0  0  0  0  0  0  0  0  0  0
   30.1817   20.8432    0.8689 C   0  0  2  0  0  0  0  0  0  0  0  0
   30.0176   19.6238    1.5779 O   0  0  0  0  0  0  0  0  0  0  0  0
   27.7158   17.8304   -0.8830 C   0  0  1  0  0  0  0  0  0  0  0  0
   28.2231   16.4885   -0.5523 O   0  0  0  0  0  0  0  0  0  0  0  0
   26.8921   27.3945    8.0490 C   0  0  0  0  0  0  0  0  0  0  0  0
   30.1825   21.4435   -6.9968 C   0  0  2  0  0  0  0  0  0  0  0  0
   29.9013   22.2509   -8.2085 O   0  0  0  0  0  0  0  0  0  0  0  0
   28.5277   22.0414   -2.4703 C   0  0  2  0  0  0  0  0  0  0  0  0
   31.5119   21.5717    1.1753 C   0  0  1  0  0  0  0  0  0  0  0  0
   26.3253   18.1429   -0.0989 C   0  0  2  0  0  0  0  0  0  0  0  0
   25.8124   19.4828   -0.4244 O   0  0  0  0  0  0  0  0  0  0  0  0
   27.3407   26.0508    8.0379 C   0  0  0  0  0  0  0  0  0  0  0  0
   28.8225   21.1745   -6.2447 C   0  0  2  0  0  0  0  0  0  0  0  0
   29.1639   20.3865   -5.0711 O   0  0  0  0  0  0  0  0  0  0  0  0
   28.4855   23.2620   -1.4868 C   0  0  2  0  0  0  0  0  0  0  0  0
   29.7706   23.2227   -0.8781 O   0  0  0  0  0  0  0  0  0  0  0  0
   32.6360   21.1554    0.2281 C   0  0  0  0  0  0  0  0  0  0  0  0
   33.7988   21.9467    0.2834 O   0  0  0  0  0  0  0  0  0  0  0  0
   26.5667   18.0298    1.4764 C   0  0  1  0  0  0  0  0  0  0  0  0
   27.6761   18.9864    1.8624 O   0  0  0  0  0  0  0  0  0  0  0  0
   26.9885   25.1797    6.8927 C   0  0  0  0  0  0  0  0  0  0  0  0
   27.9261   20.4651   -7.1717 C   0  0  0  0  0  0  0  0  0  0  0  0
   28.5815   19.4390   -7.7287 O   0  0  0  0  0  0  0  0  0  0  0  0
   27.3123   23.0926   -0.4322 C   0  0  1  0  0  0  0  0  0  0  0  0
   27.2817   24.1863    0.4249 O   0  0  0  0  0  0  0  0  0  0  0  0
   27.6022   21.9575    3.3065 C   0  0  0  0  0  0  0  0  0  0  0  0
   25.2141   18.3478    2.1699 C   0  0  0  0  0  0  0  0  0  0  0  0
   24.9161   19.7555    2.0792 N   0  0  0  0  0  0  0  0  0  0  0  0
   27.5002   22.9519    4.4676 C   0  0  0  0  0  0  0  0  0  0  0  0
   26.0667   23.3425    4.6655 N   0  0  0  0  0  0  0  0  0  0  0  0
   25.7539   24.8540    4.4993 C   0  0  0  0  0  0  0  0  0  0  0  0
  1  2  1  6  0  0  0
  1  9  1  0  0  0  0
  1 35  1  0  0  0  0
  3  4  1  1  0  0  0
  3 11  1  0  0  0  0
  3 45  1  0  0  0  0
  5  6  1  0  0  0  0
  5 12  1  0  0  0  0
  5 37  1  6  0  0  0
  6 30  1  0  0  0  0
  7 14  1  0  0  0  0
  7 41  1  0  0  0  0
  7 23  1  1  0  0  0
  8 16  2  0  0  0  0
  8 42  1  0  0  0  0
  9 10  1  1  0  0  0
  9 18  1  0  0  0  0
 11 20  1  0  0  0  0
 12 13  1  1  0  0  0
 12 22  1  0  0  0  0
 13 47  1  0  0  0  0
 14 15  1  1  0  0  0
 14 24  1  0  0  0  0
 16 17  1  0  0  0  0
 17 26  2  0  0  0  0
 18 19  1  6  0  0  0
 18 27  1  0  0  0  0
 20 21  1  6  0  0  0
 20 29  1  0  0  0  0
 22 23  1  1  0  0  0
 22 30  1  0  0  0  0
 24 25  1  1  0  0  0
 24 31  1  0  0  0  0
 26 33  1  0  0  0  0
 27 28  1  6  0  0  0
 27 34  1  0  0  0  0
 29  2  1  6  0  0  0
 29 36  1  0  0  0  0
 30 38  1  6  0  0  0
 31 32  1  1  0  0  0
 31 40  1  0  0  0  0
 33 42  2  0  0  0  0
 34 35  1  0  0  0  0
 34 43  1  6  0  0  0
 36 37  1  1  0  0  0
 36 45  1  0  0  0  0
 38 39  1  0  0  0  0
 40 41  1  0  0  0  0
 40 48  1  1  0  0  0
 43 44  1  0  0  0  0
 45 46  1  1  0  0  0
 47 50  1  0  0  0  0
 48 49  1  0  0  0  0
 50 51  1  0  0  0  0
 51 52  1  0  0  0  0
 52  8  1  0  0  0  0
M  END
>  <CHROM.1>
-165.05856389,174.18791720,30.63054302,150.49043765,-164.04995973,74.24423974
-84.76297414,52.53702517,48.71580617,-123.36256114,-72.70945429,137.09224515
-119.62587587,-77.85937532,-170.20152716,28.42898115,21.79309881,-0.32156547
-1.11825415,0.95497521,0.86264659

>  <Name>
2be0_lig

>  <RI>
0

>  <Rbt.Current_Directory>
/home/itssahil/PROJECTS/Mol_Feturizer/New_Systems/rnas/2be0

>  <Rbt.Executable>
rbdock ($Id: //depot/dev/client3/rdock/2013.1/src/exe/rbdock.cxx#4 $)

>  <Rbt.Library>
libRbt.so (2013.1, Build901 2013/11/27)

>  <Rbt.Parameter_File>
/export/apps/rDock/src/rDock_2013.1_src/data/scripts/dock_solv.prm

>  <Rbt.Receptor>
prm/blind_docking_40.prm

>  <SCORE>
60.1522

>  <SCORE.INTER>
36.2057

>  <SCORE.INTER.CONST>
1

>  <SCORE.INTER.POLAR>
-0.765164

>  <SCORE.INTER.ROT>
15

>  <SCORE.INTER.SOLV>
17.447

>  <SCORE.INTER.VDW>
7.272

>  <SCORE.INTER.norm>
0.696263

>  <SCORE.INTRA>
10.3321

>  <SCORE.INTRA.DIHEDRAL>
-19.8365

>  <SCORE.INTRA.DIHEDRAL.0>
47.8724

>  <SCORE.INTRA.POLAR>
0

>  <SCORE.INTRA.POLAR.0>
0

>  <SCORE.INTRA.REPUL>
0

>  <SCORE.INTRA.REPUL.0>
0

>  <SCORE.INTRA.SOLV>
12.6498

>  <SCORE.INTRA.SOLV.lig_0>
-115.677

>  <SCORE.INTRA.VDW>
13.9255

>  <SCORE.INTRA.VDW.0>
-7.4833

>  <SCORE.INTRA.norm>
0.198695

>  <SCORE.RESTR>
13.6144

>  <SCORE.RESTR.CAVITY>
13.6144

>  <SCORE.RESTR.norm>
0.261815

>  <SCORE.SYSTEM>
0

>  <SCORE.SYSTEM.CONST>
0

>  <SCORE.SYSTEM.DIHEDRAL>
0

>  <SCORE.SYSTEM.SOLV>
0

>  <SCORE.SYSTEM.norm>
0

>  <SCORE.heavy>
52

>  <SCORE.norm>
1.15677

>  <RMSD>
24.282

$$$$
2be0_lig
 OpenBabel11021811423D
libRbt.so/2013.1/901 2013/11/27
 52 56  0  0  0  0  0  0  0  0999 V2000
   29.2513   20.7454   -4.3473 C   0  0  2  0  0  0  0  0  0  0  0  0
   29.5979   22.0762   -4.0444 O   0  0  0  0  0  0  0  0  0  0  0  0
   31.7899   21.9102   -0.2314 C   0  0  2  0  0  0  0  0  0  0  0  0
   32.2542   22.2986    1.1298 N   0  0  0  0  0  0  0  0  0  0  0  0
   27.4989   21.7897   -0.9865 C   0  0  2  0  0  0  0  0  0  0  0  0
   27.6075   21.4628    0.4141 O   0  0  0  0  0  0  0  0  0  0  0  0
   23.4954   19.8720   -1.4573 C   0  0  1  0  0  0  0  0  0  0  0  0
   27.9751   23.7809    2.9111 C   0  0  0  0  0  0  0  0  0  0  0  0
   29.5138   20.4179   -5.8736 C   0  0  2  0  0  0  0  0  0  0  0  0
   30.9007   20.7380   -6.2176 N   0  0  0  0  0  0  0  0  0  0  0  0
   32.0699   23.1135   -1.2423 C   0  0  0  0  0  0  0  0  0  0  0  0
   26.0335   21.5521   -1.3846 C   0  0  2  0  0  0  0  0  0  0  0  0
   25.3585   22.8347   -1.0150 O   0  0  0  0  0  0  0  0  0  0  0  0
   21.9991   19.7134   -0.8433 C   0  0  2  0  0  0  0  0  0  0  0  0
   21.9449   18.4570   -0.0283 N   0  0  0  0  0  0  0  0  0  0  0  0
   27.2629   24.5812    3.8635 C   0  0  0  0  0  0  0  0  0  0  0  0
   26.6806   23.9667    5.0030 N   0  0  0  0  0  0  0  0  0  0  0  0
   28.4715   21.2202   -6.7823 C   0  0  1  0  0  0  0  0  0  0  0  0
   28.7283   20.9191   -8.1452 O   0  0  0  0  0  0  0  0  0  0  0  0
   31.5608   22.7322   -2.7474 C   0  0  2  0  0  0  0  0  0  0  0  0
   31.8092   23.8062   -3.6673 N   0  0  0  0  0  0  0  0  0  0  0  0
   25.7675   20.2809   -0.5563 C   0  0  2  0  0  0  0  0  0  0  0  0
   24.4102   19.9193   -0.3476 O   0  0  0  0  0  0  0  0  0  0  0  0
   20.9974   19.6470   -2.0355 C   0  0  1  0  0  0  0  0  0  0  0  0
   21.1239   20.9282   -2.7496 O   0  0  0  0  0  0  0  0  0  0  0  0
   26.7647   22.5680    5.2575 C   0  0  0  0  0  0  0  0  0  0  0  0
   27.0300   20.8124   -6.3605 C   0  0  2  0  0  0  0  0  0  0  0  0
   26.0150   21.5301   -7.1690 O   0  0  0  0  0  0  0  0  0  0  0  0
   30.0117   22.4019   -2.7230 C   0  0  2  0  0  0  0  0  0  0  0  0
   26.5563   20.5341    0.7505 C   0  0  1  0  0  0  0  0  0  0  0  0
   21.3685   18.3946   -3.0048 C   0  0  2  0  0  0  0  0  0  0  0  0
   21.2447   17.1105   -2.2976 O   0  0  0  0  0  0  0  0  0  0  0  0
   27.4568   21.7266    4.3520 C   0  0  0  0  0  0  0  0  0  0  0  0
   26.7881   21.1457   -4.8380 C   0  0  2  0  0  0  0  0  0  0  0  0
   27.8111   20.4197   -4.1024 O   0  0  0  0  0  0  0  0  0  0  0  0
   29.7905   21.2250   -1.7106 C   0  0  2  0  0  0  0  0  0  0  0  0
   28.3864   21.0079   -1.7795 O   0  0  0  0  0  0  0  0  0  0  0  0
   27.2312   19.2692    1.2784 C   0  0  0  0  0  0  0  0  0  0  0  0
   28.1407   18.6551    0.3969 O   0  0  0  0  0  0  0  0  0  0  0  0
   22.8620   18.5661   -3.5462 C   0  0  1  0  0  0  0  0  0  0  0  0
   23.7946   18.6737   -2.3574 O   0  0  0  0  0  0  0  0  0  0  0  0
   28.0816   22.3193    3.1467 C   0  0  0  0  0  0  0  0  0  0  0  0
   25.4220   20.7199   -4.4937 C   0  0  0  0  0  0  0  0  0  0  0  0
   25.2775   19.4178   -4.7704 O   0  0  0  0  0  0  0  0  0  0  0  0
   30.2668   21.6399   -0.2551 C   0  0  1  0  0  0  0  0  0  0  0  0
   30.0739   20.5837    0.6274 O   0  0  0  0  0  0  0  0  0  0  0  0
   25.6158   23.7029    0.1582 C   0  0  0  0  0  0  0  0  0  0  0  0
   23.1628   17.3415   -4.4526 C   0  0  0  0  0  0  0  0  0  0  0  0
   23.3024   16.1455   -3.6596 N   0  0  0  0  0  0  0  0  0  0  0  0
   26.8038   24.6033   -0.1962 C   0  0  0  0  0  0  0  0  0  0  0  0
   28.0729   23.9665    0.2839 N   0  0  0  0  0  0  0  0  0  0  0  0
   28.6249   24.5032    1.6320 C   0  0  0  0  0  0  0  0  0  0  0  0
  1  2  1  6  0  0  0
  1  9  1  0  0  0  0
  1 35  1  0  0  0  0
  3  4  1  1  0  0  0
  3 11  1  0  0  0  0
  3 45  1  0  0  0  0
  5  6  1  0  0  0  0
  5 12  1  0  0  0  0
  5 37  1  6  0  0  0
  6 30  1  0  0  0  0
  7 14  1  0  0  0  0
  7 41  1  0  0  0  0
  7 23  1  1  0  0  0
  8 16  2  0  0  0  0
  8 42  1  0  0  0  0
  9 10  1  6  0  0  0
  9 18  1  0  0  0  0
 11 20  1  0  0  0  0
 12 13  1  1  0  0  0
 12 22  1  0  0  0  0
 13 47  1  0  0  0  0
 14 15  1  6  0  0  0
 14 24  1  0  0  0  0
 16 17  1  0  0  0  0
 17 26  2  0  0  0  0
 18 19  1  6  0  0  0
 18 27  1  0  0  0  0
 20 21  1  6  0  0  0
 20 29  1  0  0  0  0
 22 23  1  1  0  0  0
 22 30  1  0  0  0  0
 24 25  1  6  0  0  0
 24 31  1  0  0  0  0
 26 33  1  0  0  0  0
 27 28  1  6  0  0  0
 27 34  1  0  0  0  0
 29  2  1  6  0  0  0
 29 36  1  0  0  0  0
 30 38  1  6  0  0  0
 31 32  1  1  0  0  0
 31 40  1  0  0  0  0
 33 42  2  0  0  0  0
 34 35  1  0  0  0  0
 34 43  1  1  0  0  0
 36 37  1  1  0  0  0
 36 45  1  0  0  0  0
 38 39  1  0  0  0  0
 40 41  1  0  0  0  0
 40 48  1  1  0  0  0
 43 44  1  0  0  0  0
 45 46  1  1  0  0  0
 47 50  1  0  0  0  0
 48 49  1  0  0  0  0
 50 51  1  0  0  0  0
 51 52  1  0  0  0  0
 52  8  1  0  0  0  0
M  END
>  <CHROM.1>
-151.95962394,-70.10279527,-169.28456500,-37.44539391,83.38218147,48.91530954
109.72635110,-57.68507258,56.84396095,-84.76057268,-71.18938499,-93.38730184
-99.07715861,85.43692197,-120.14369927,26.89401094,21.07578343,-1.62094098
-2.41427300,0.39934063,1.31444143

>  <Name>
2be0_lig

>  <RI>
0

>  <Rbt.Current_Directory>
/home/itssahil/PROJECTS/Mol_Feturizer/New_Systems/rnas/2be0

>  <Rbt.Executable>
rbdock ($Id: //depot/dev/client3/rdock/2013.1/src/exe/rbdock.cxx#4 $)

>  <Rbt.Library>
libRbt.so (2013.1, Build901 2013/11/27)

>  <Rbt.Parameter_File>
/export/apps/rDock/src/rDock_2013.1_src/data/scripts/dock_solv.prm

>  <Rbt.Receptor>
prm/blind_docking_40.prm

>  <SCORE>
-0.891868

>  <SCORE.INTER>
-10.0304

>  <SCORE.INTER.CONST>
1

>  <SCORE.INTER.POLAR>
-0.841981

>  <SCORE.INTER.ROT>
15

>  <SCORE.INTER.SOLV>
27.7103

>  <SCORE.INTER.VDW>
-26.7171

>  <SCORE.INTER.norm>
-0.192893

>  <SCORE.INTRA>
-5.00244

>  <SCORE.INTRA.DIHEDRAL>
-23.0596

>  <SCORE.INTRA.DIHEDRAL.0>
47.8724

>  <SCORE.INTRA.POLAR>
0

>  <SCORE.INTRA.POLAR.0>
0

>  <SCORE.INTRA.REPUL>
0

>  <SCORE.INTRA.REPUL.0>
0

>  <SCORE.INTRA.SOLV>
5.2417

>  <SCORE.INTRA.SOLV.lig_0>
-115.677

>  <SCORE.INTRA.VDW>
3.90651

>  <SCORE.INTRA.VDW.0>
-7.4833

>  <SCORE.INTRA.norm>
-0.0962008

>  <SCORE.RESTR>
14.141

>  <SCORE.RESTR.CAVITY>
14.141

>  <SCORE.RESTR.norm>
0.271942

>  <SCORE.SYSTEM>
0

>  <SCORE.SYSTEM.CONST>
0

>  <SCORE.SYSTEM.DIHEDRAL>
0

>  <SCORE.SYSTEM.SOLV>
0

>  <SCORE.SYSTEM.norm>
0

>  <SCORE.heavy>
52

>  <SCORE.norm>
-0.0171513

>  <RMSD>
24.285

$$$$
2be0_lig
 OpenBabel11021811423D
libRbt.so/2013.1/901 2013/11/27
 52 56  0  0  0  0  0  0  0  0999 V2000
   29.8916   20.3103   -4.3039 C   0  0  2  0  0  0  0  0  0  0  0  0
   29.1921   20.9339   -3.2529 O   0  0  0  0  0  0  0  0  0  0  0  0
   25.3420   18.8029   -3.3338 C   0  0  2  0  0  0  0  0  0  0  0  0
   24.0868   18.1691   -2.8418 N   0  0  0  0  0  0  0  0  0  0  0  0
   25.8684   22.9515   -2.3354 C   0  0  2  0  0  0  0  0  0  0  0  0
   26.2201   24.3148   -2.0224 O   0  0  0  0  0  0  0  0  0  0  0  0
   27.9747   21.7072    1.6739 C   0  0  1  0  0  0  0  0  0  0  0  0
   25.9883   24.5012    4.2461 C   0  0  0  0  0  0  0  0  0  0  0  0
   31.2183   21.0986   -4.6566 C   0  0  2  0  0  0  0  0  0  0  0  0
   32.0317   21.2645   -3.4502 N   0  0  0  0  0  0  0  0  0  0  0  0
   26.5892   18.1359   -2.5937 C   0  0  0  0  0  0  0  0  0  0  0  0
   25.8113   22.1912   -1.0007 C   0  0  2  0  0  0  0  0  0  0  0  0
   24.4239   22.4544   -0.5076 O   0  0  0  0  0  0  0  0  0  0  0  0
   29.2739   22.4846    2.2647 C   0  0  2  0  0  0  0  0  0  0  0  0
   29.9364   23.2312    1.1469 N   0  0  0  0  0  0  0  0  0  0  0  0
   26.5543   23.4839    5.0825 C   0  0  0  0  0  0  0  0  0  0  0  0
   26.9992   23.8149    6.3893 N   0  0  0  0  0  0  0  0  0  0  0  0
   30.8475   22.5023   -5.3259 C   0  0  1  0  0  0  0  0  0  0  0  0
   32.0487   23.1955   -5.6270 O   0  0  0  0  0  0  0  0  0  0  0  0
   27.9881   18.8146   -3.0960 C   0  0  2  0  0  0  0  0  0  0  0  0
   29.1185   18.2215   -2.4390 N   0  0  0  0  0  0  0  0  0  0  0  0
   27.0116   22.8553   -0.2998 C   0  0  2  0  0  0  0  0  0  0  0  0
   27.1016   22.7018    1.1090 O   0  0  0  0  0  0  0  0  0  0  0  0
   30.2361   21.4175    2.8684 C   0  0  1  0  0  0  0  0  0  0  0  0
   29.4924   20.7637    3.9578 O   0  0  0  0  0  0  0  0  0  0  0  0
   26.9145   25.1309    6.9270 C   0  0  0  0  0  0  0  0  0  0  0  0
   29.9981   22.2336   -6.6020 C   0  0  2  0  0  0  0  0  0  0  0  0
   29.6189   23.5037   -7.2669 O   0  0  0  0  0  0  0  0  0  0  0  0
   27.9636   20.3721   -2.8075 C   0  0  2  0  0  0  0  0  0  0  0  0
   26.9271   24.3285   -0.7652 C   0  0  1  0  0  0  0  0  0  0  0  0
   30.6659   20.3448    1.7237 C   0  0  2  0  0  0  0  0  0  0  0  0
   31.4095   20.9913    0.6312 O   0  0  0  0  0  0  0  0  0  0  0  0
   26.3633   26.1774    6.1472 C   0  0  0  0  0  0  0  0  0  0  0  0
   28.6821   21.4477   -6.2305 C   0  0  2  0  0  0  0  0  0  0  0  0
   29.1184   20.2212   -5.5823 O   0  0  0  0  0  0  0  0  0  0  0  0
   26.7181   20.9747   -3.5456 C   0  0  2  0  0  0  0  0  0  0  0  0
   26.8033   22.3594   -3.2314 O   0  0  0  0  0  0  0  0  0  0  0  0
   28.3035   24.9345   -1.0345 C   0  0  0  0  0  0  0  0  0  0  0  0
   29.1508   25.0344    0.0851 O   0  0  0  0  0  0  0  0  0  0  0  0
   29.3570   19.6405    1.1374 C   0  0  1  0  0  0  0  0  0  0  0  0
   28.4310   20.7146    0.6052 O   0  0  0  0  0  0  0  0  0  0  0  0
   25.8852   25.8837    4.7763 C   0  0  0  0  0  0  0  0  0  0  0  0
   27.9343   21.2050   -7.4747 C   0  0  0  0  0  0  0  0  0  0  0  0
   28.6909   20.4917   -8.3181 O   0  0  0  0  0  0  0  0  0  0  0  0
   25.3768   20.3158   -3.0124 C   0  0  1  0  0  0  0  0  0  0  0  0
   24.2842   20.8524   -3.6829 O   0  0  0  0  0  0  0  0  0  0  0  0
   23.7380   21.8613    0.6647 C   0  0  0  0  0  0  0  0  0  0  0  0
   29.8264   18.6400    0.0464 C   0  0  0  0  0  0  0  0  0  0  0  0
   30.6362   19.3093   -0.9411 N   0  0  0  0  0  0  0  0  0  0  0  0
   24.7545   21.8177    1.8102 C   0  0  0  0  0  0  0  0  0  0  0  0
   24.4688   22.9302    2.7732 N   0  0  0  0  0  0  0  0  0  0  0  0
   25.4920   24.0978    2.7726 C   0  0  0  0  0  0  0  0  0  0  0  0
  1  2  1  1  0  0  0
  1  9  1  0  0  0  0
  1 35  1  0  0  0  0
  3  4  1  1  0  0  0
  3 11  1  0  0  0  0
  3 45  1  0  0  0  0
  5  6  1  0  0  0  0
  5 12  1  0  0  0  0
  5 37  1  6  0  0  0
  6 30  1  0  0  0  0
  7 14  1  0  0  0  0
  7 41  1  0  0  0  0
  7 23  1  6  0  0  0
  8 16  2  0  0  0  0
  8 42  1  0  0  0  0
  9 10  1  1  0  0  0
  9 18  1  0  0  0  0
 11 20  1  0  0  0  0
 12 13  1  1  0  0  0
 12 22  1  0  0  0  0
 13 47  1  0  0  0  0
 14 15  1  6  0  0  0
 14 24  1  0  0  0  0
 16 17  1  0  0  0  0
 17 26  2  0  0  0  0
 18 19  1  6  0  0  0
 18 27  1  0  0  0  0
 20 21  1  1  0  0  0
 20 29  1  0  0  0  0
 22 23  1  1  0  0  0
 22 30  1  0  0  0  0
 24 25  1  1  0  0  0
 24 31  1  0  0  0  0
 26 33  1  0  0  0  0
 27 28  1  1  0  0  0
 27 34  1  0  0  0  0
 29  2  1  6  0  0  0
 29 36  1  0  0  0  0
 30 38  1  6  0  0  0
 31 32  1  6  0  0  0
 31 40  1  0  0  0  0
 33 42  2  0  0  0  0
 34 35  1  0  0  0  0
 34 43  1  6  0  0  0
 36 37  1  1  0  0  0
 36 45  1  0  0  0  0
 38 39  1  0  0  0  0
 40 41  1  0  0  0  0
 40 48  1  6  0  0  0
 43 44  1  0  0  0  0
 45 46  1  6  0  0  0
 47 50  1  0  0  0  0
 48 49  1  0  0  0  0
 50 51  1  0  0  0  0
 51 52  1  0  0  0  0
 52  8  1  0  0  0  0
M  END
>  <CHROM.1>
179.34898366,172.96240578,104.75232358,172.80630400,42.00964622,99.35269045
27.50452011,179.95660830,59.39655283,-108.91451565,-54.70381752,102.88589572
-108.63419707,-131.28651141,55.13617971,27.87899033,21.84471644,-1.01515217
-1.35624077,-0.06198623,1.30600775

>  <Name>
2be0_lig

>  <RI>
0

>  <Rbt.Current_Directory>
/home/itssahil/PROJECTS/Mol_Feturizer/New_Systems/rnas/2be0

>  <Rbt.Executable>
rbdock ($Id: //depot/dev/client3/rdock/2013.1/src/exe/rbdock.cxx#4 $)

>  <Rbt.Library>
libRbt.so (2013.1, Build901 2013/11/27)

>  <Rbt.Parameter_File>
/export/apps/rDock/src/rDock_2013.1_src/data/scripts/dock_solv.prm

>  <Rbt.Receptor>
prm/blind_docking_40.prm

>  <SCORE>
84.7497

>  <SCORE.INTER>
58.2894

>  <SCORE.INTER.CONST>
1

>  <SCORE.INTER.POLAR>
0

>  <SCORE.INTER.ROT>
15

>  <SCORE.INTER.SOLV>
23.9185

>  <SCORE.INTER.VDW>
17.2868

>  <SCORE.INTER.norm>
1.12095

>  <SCORE.INTRA>
11.9019

>  <SCORE.INTRA.DIHEDRAL>
-15.8624

>  <SCORE.INTRA.DIHEDRAL.0>
47.8724

>  <SCORE.INTRA.POLAR>
0

>  <SCORE.INTRA.POLAR.0>
0

>  <SCORE.INTRA.REPUL>
0.194251

>  <SCORE.INTRA.REPUL.0>
0

>  <SCORE.INTRA.SOLV>
12.1536

>  <SCORE.INTRA.SOLV.lig_0>
-115.677

>  <SCORE.INTRA.VDW>
12.785

>  <SCORE.INTRA.VDW.0>
-7.4833

>  <SCORE.INTRA.norm>
0.228882

>  <SCORE.RESTR>
14.5584

>  <SCORE.RESTR.CAVITY>
14.5584

>  <SCORE.RESTR.norm>
0.27997

>  <SCORE.SYSTEM>
0

>  <SCORE.SYSTEM.CONST>
0

>  <SCORE.SYSTEM.DIHEDRAL>
0

>  <SCORE.SYSTEM.SOLV>
0

>  <SCORE.SYSTEM.norm>
0

>  <SCORE.heavy>
52

>  <SCORE.norm>
1.6298

>  <RMSD>
24.309

$$$$
2be0_lig
 OpenBabel11021811423D
libRbt.so/2013.1/901 2013/11/27
 52 56  0  0  0  0  0  0  0  0999 V2000
   26.9434   19.1465   -1.9663 C   0  0  2  0  0  0  0  0  0  0  0  0
   27.8740   20.1863   -2.1549 O   0  0  0  0  0  0  0  0  0  0  0  0
   31.1516   18.6875    0.3713 C   0  0  2  0  0  0  0  0  0  0  0  0
   32.5002   18.5924    0.9972 N   0  0  0  0  0  0  0  0  0  0  0  0
   29.0949   22.4376    0.8583 C   0  0  2  0  0  0  0  0  0  0  0  0
   29.5093   22.1991    2.2191 O   0  0  0  0  0  0  0  0  0  0  0  0
   26.1972   24.4996    4.0514 C   0  0  1  0  0  0  0  0  0  0  0  0
   30.1459   21.9672   -4.0582 C   0  0  0  0  0  0  0  0  0  0  0  0
   25.6963   19.3120   -2.9272 C   0  0  2  0  0  0  0  0  0  0  0  0
   26.1514   19.4249   -4.3146 N   0  0  0  0  0  0  0  0  0  0  0  0
   31.3086   18.6494   -1.2169 C   0  0  0  0  0  0  0  0  0  0  0  0
   28.2476   23.7199    0.8716 C   0  0  2  0  0  0  0  0  0  0  0  0
   29.2647   24.8121    0.7718 O   0  0  0  0  0  0  0  0  0  0  0  0
   25.2105   25.7820    4.2039 C   0  0  2  0  0  0  0  0  0  0  0  0
   26.0328   27.0325    4.1276 N   0  0  0  0  0  0  0  0  0  0  0  0
   30.7856   21.3804   -5.1990 C   0  0  0  0  0  0  0  0  0  0  0  0
   29.9963   20.8720   -6.2637 N   0  0  0  0  0  0  0  0  0  0  0  0
   24.8343   20.5803   -2.4753 C   0  0  1  0  0  0  0  0  0  0  0  0
   23.7270   20.7153   -3.3527 O   0  0  0  0  0  0  0  0  0  0  0  0
   29.8496   18.7658   -1.9433 C   0  0  2  0  0  0  0  0  0  0  0  0
   29.9769   18.7305   -3.3729 N   0  0  0  0  0  0  0  0  0  0  0  0
   27.4965   23.4922    2.1971 C   0  0  2  0  0  0  0  0  0  0  0  0
   26.8626   24.6207    2.7813 O   0  0  0  0  0  0  0  0  0  0  0  0
   24.4922   25.6714    5.5826 C   0  0  1  0  0  0  0  0  0  0  0  0
   23.7086   24.4258    5.5385 O   0  0  0  0  0  0  0  0  0  0  0  0
   28.5728   20.9115   -6.2610 C   0  0  0  0  0  0  0  0  0  0  0  0
   24.3829   20.3722   -1.0004 C   0  0  2  0  0  0  0  0  0  0  0  0
   23.5793   21.5230   -0.5217 O   0  0  0  0  0  0  0  0  0  0  0  0
   29.1381   20.1122   -1.5069 C   0  0  2  0  0  0  0  0  0  0  0  0
   28.5632   22.8337    3.1039 C   0  0  1  0  0  0  0  0  0  0  0  0
   25.5913   25.6323    6.7811 C   0  0  2  0  0  0  0  0  0  0  0  0
   26.3786   26.8741    6.8310 O   0  0  0  0  0  0  0  0  0  0  0  0
   27.8850   21.4805   -5.1609 C   0  0  0  0  0  0  0  0  0  0  0  0
   25.6381   20.2090   -0.0595 C   0  0  2  0  0  0  0  0  0  0  0  0
   26.3832   19.0738   -0.5803 O   0  0  0  0  0  0  0  0  0  0  0  0
   29.0186   20.1040    0.0567 C   0  0  2  0  0  0  0  0  0  0  0  0
   28.3629   21.3362    0.3305 O   0  0  0  0  0  0  0  0  0  0  0  0
   27.9772   21.7365    3.9910 C   0  0  0  0  0  0  0  0  0  0  0  0
   26.8943   22.1265    4.8012 O   0  0  0  0  0  0  0  0  0  0  0  0
   26.5685   24.3867    6.5652 C   0  0  1  0  0  0  0  0  0  0  0  0
   27.2081   24.5092    5.1975 O   0  0  0  0  0  0  0  0  0  0  0  0
   28.6632   22.0244   -4.0238 C   0  0  0  0  0  0  0  0  0  0  0  0
   25.1498   19.9947    1.3122 C   0  0  0  0  0  0  0  0  0  0  0  0
   24.6622   21.1437    1.7968 O   0  0  0  0  0  0  0  0  0  0  0  0
   30.4536   20.0210    0.7286 C   0  0  1  0  0  0  0  0  0  0  0  0
   30.3302   20.0042    2.1128 O   0  0  0  0  0  0  0  0  0  0  0  0
   30.1588   25.1330   -0.3657 C   0  0  0  0  0  0  0  0  0  0  0  0
   27.5982   24.4072    7.7275 C   0  0  0  0  0  0  0  0  0  0  0  0
   28.5626   25.4610    7.5325 N   0  0  0  0  0  0  0  0  0  0  0  0
   30.9827   23.8760   -0.6632 C   0  0  0  0  0  0  0  0  0  0  0  0
   30.2428   23.0147   -1.6417 N   0  0  0  0  0  0  0  0  0  0  0  0
   31.0640   22.5356   -2.8690 C   0  0  0  0  0  0  0  0  0  0  0  0
  1  2  1  1  0  0  0
  1  9  1  0  0  0  0
  1 35  1  0  0  0  0
  3  4  1  1  0  0  0
  3 11  1  0  0  0  0
  3 45  1  0  0  0  0
  5  6  1  0  0  0  0
  5 12  1  0  0  0  0
  5 37  1  1  0  0  0
  6 30  1  0  0  0  0
  7 14  1  0  0  0  0
  7 41  1  0  0  0  0
  7 23  1  6  0  0  0
  8 16  2  0  0  0  0
  8 42  1  0  0  0  0
  9 10  1  6  0  0  0
  9 18  1  0  0  0  0
 11 20  1  0  0  0  0
 12 13  1  1  0  0  0
 12 22  1  0  0  0  0
 13 47  1  0  0  0  0
 14 15  1  1  0  0  0
 14 24  1  0  0  0  0
 16 17  1  0  0  0  0
 17 26  2  0  0  0  0
 18 19  1  6  0  0  0
 18 27  1  0  0  0  0
 20 21  1  6  0  0  0
 20 29  1  0  0  0  0
 22 23  1  1  0  0  0
 22 30  1  0  0  0  0
 24 25  1  6  0  0  0
 24 31  1  0  0  0  0
 26 33  1  0  0  0  0
 27 28  1  1  0  0  0
 27 34  1  0  0  0  0
 29  2  1  6  0  0  0
 29 36  1  0  0  0  0
 30 38  1  1  0  0  0
 31 32  1  6  0  0  0
 31 40  1  0  0  0  0
 33 42  2  0  0  0  0
 34 35  1  0  0  0  0
 34 43  1  1  0  0  0
 36 37  1  1  0  0  0
 36 45  1  0  0  0  0
 38 39  1  0  0  0  0
 40 41  1  0  0  0  0
 40 48  1  1  0  0  0
 43 44  1  0  0  0  0
 45 46  1  1  0  0  0
 47 50  1  0  0  0  0
 48 49  1  0  0  0  0
 50 51  1  0  0  0  0
 51 52  1  0  0  0  0
 52  8  1  0  0  0  0
M  END
>  <CHROM.1>
-171.82102130,-69.54248269,-162.50944267,66.57996275,-57.42399975,-176.99206524
57.14833530,-171.54841561,-72.81599718,-104.73505871,-74.04309991,88.74824947
130.06094447,-164.47375147,-174.40061084,27.78925314,22.06989164,0.64315653
1.33994265,0.00771057,-2.04931982

>  <Name>
2be0_lig

>  <RI>
0

>  <Rbt.Current_Directory>
/home/itssahil/PROJECTS/Mol_Feturizer/New_Systems/rnas/2be0

>  <Rbt.Executable>
rbdock ($Id: //depot/dev/client3/rdock/2013.1/src/exe/rbdock.cxx#4 $)

>  <Rbt.Library>
libRbt.so (2013.1, Build901 2013/11/27)

>  <Rbt.Parameter_File>
/export/apps/rDock/src/rDock_2013.1_src/data/scripts/dock_solv.prm

>  <Rbt.Receptor>
prm/blind_docking_40.prm

>  <SCORE>
-3.89927

>  <SCORE.INTER>
-12.0056

>  <SCORE.INTER.CONST>
1

>  <SCORE.INTER.POLAR>
-2.11538

>  <SCORE.INTER.ROT>
15

>  <SCORE.INTER.SOLV>
30.2901

>  <SCORE.INTER.VDW>
-24.6492

>  <SCORE.INTER.norm>
-0.230876

>  <SCORE.INTRA>
-6.29886

>  <SCORE.INTRA.DIHEDRAL>
-32.6782

>  <SCORE.INTRA.DIHEDRAL.0>
47.8724

>  <SCORE.INTRA.POLAR>
0

>  <SCORE.INTRA.POLAR.0>
0

>  <SCORE.INTRA.REPUL>
0

>  <SCORE.INTRA.REPUL.0>
0

>  <SCORE.INTRA.SOLV>
9.9368

>  <SCORE.INTRA.SOLV.lig_0>
-115.677

>  <SCORE.INTRA.VDW>
5.07184

>  <SCORE.INTRA.VDW.0>
-7.4833

>  <SCORE.INTRA.norm>
-0.121132

>  <SCORE.RESTR>
14.4052

>  <SCORE.RESTR.CAVITY>
14.4052

>  <SCORE.RESTR.norm>
0.277022

>  <SCORE.SYSTEM>
0

>  <SCORE.SYSTEM.CONST>
0

>  <SCORE.SYSTEM.DIHEDRAL>
0

>  <SCORE.SYSTEM.SOLV>
0

>  <SCORE.SYSTEM.norm>
0

>  <SCORE.heavy>
52

>  <SCORE.norm>
-0.074986

>  <RMSD>
24.425

$$$$
2be0_lig
 OpenBabel11021811423D
libRbt.so/2013.1/901 2013/11/27
 52 56  0  0  0  0  0  0  0  0999 V2000
   24.2441   19.6759   -3.8449 C   0  0  2  0  0  0  0  0  0  0  0  0
   24.3668   19.5221   -5.2392 O   0  0  0  0  0  0  0  0  0  0  0  0
   26.7075   21.4991   -8.3988 C   0  0  2  0  0  0  0  0  0  0  0  0
   27.3050   22.5912   -9.2174 N   0  0  0  0  0  0  0  0  0  0  0  0
   27.1704   21.6953   -4.0734 C   0  0  2  0  0  0  0  0  0  0  0  0
   28.2263   22.4332   -4.7222 O   0  0  0  0  0  0  0  0  0  0  0  0
   29.5785   20.8045   -0.4387 C   0  0  1  0  0  0  0  0  0  0  0  0
   27.9703   23.4538    3.3033 C   0  0  0  0  0  0  0  0  0  0  0  0
   23.9374   18.2919   -3.1403 C   0  0  2  0  0  0  0  0  0  0  0  0
   24.9540   17.3077   -3.5178 N   0  0  0  0  0  0  0  0  0  0  0  0
   25.1204   21.6689   -8.3796 C   0  0  0  0  0  0  0  0  0  0  0  0
   27.5942   21.5121   -2.6073 C   0  0  2  0  0  0  0  0  0  0  0  0
   27.1378   22.7763   -1.9509 O   0  0  0  0  0  0  0  0  0  0  0  0
   30.3034   19.3518   -0.3630 C   0  0  2  0  0  0  0  0  0  0  0  0
   29.8424   18.5239   -1.5240 N   0  0  0  0  0  0  0  0  0  0  0  0
   28.0390   22.0228    3.2563 C   0  0  0  0  0  0  0  0  0  0  0  0
   27.5094   21.2578    4.3284 N   0  0  0  0  0  0  0  0  0  0  0  0
   22.4635   17.8075   -3.5260 C   0  0  1  0  0  0  0  0  0  0  0  0
   22.2115   16.5634   -2.8913 O   0  0  0  0  0  0  0  0  0  0  0  0
   24.4261   20.4960   -7.4783 C   0  0  2  0  0  0  0  0  0  0  0  0
   22.9975   20.6362   -7.4547 N   0  0  0  0  0  0  0  0  0  0  0  0
   29.0985   21.2632   -2.8263 C   0  0  2  0  0  0  0  0  0  0  0  0
   29.9463   21.4010   -1.6954 O   0  0  0  0  0  0  0  0  0  0  0  0
   29.9027   18.6872    0.9886 C   0  0  1  0  0  0  0  0  0  0  0  0
   30.4161   19.5706    2.0485 O   0  0  0  0  0  0  0  0  0  0  0  0
   26.9018   21.8457    5.4744 C   0  0  0  0  0  0  0  0  0  0  0  0
   21.4501   18.9013   -3.0799 C   0  0  2  0  0  0  0  0  0  0  0  0
   20.0601   18.5088   -3.4161 O   0  0  0  0  0  0  0  0  0  0  0  0
   24.9893   20.5512   -5.9987 C   0  0  2  0  0  0  0  0  0  0  0  0
   29.4521   22.2149   -3.9939 C   0  0  1  0  0  0  0  0  0  0  0  0
   28.2853   18.5400    1.0782 C   0  0  2  0  0  0  0  0  0  0  0  0
   27.7649   17.6585    0.0214 O   0  0  0  0  0  0  0  0  0  0  0  0
   26.8044   23.2553    5.5761 C   0  0  0  0  0  0  0  0  0  0  0  0
   21.7721   20.2715   -3.7915 C   0  0  2  0  0  0  0  0  0  0  0  0
   23.1417   20.5985   -3.4281 O   0  0  0  0  0  0  0  0  0  0  0  0
   26.5474   20.3911   -6.0747 C   0  0  2  0  0  0  0  0  0  0  0  0
   26.9379   20.4420   -4.7078 O   0  0  0  0  0  0  0  0  0  0  0  0
   30.4470   21.5926   -4.9721 C   0  0  0  0  0  0  0  0  0  0  0  0
   30.1553   20.2767   -5.3776 O   0  0  0  0  0  0  0  0  0  0  0  0
   27.6126   19.9837    0.9511 C   0  0  1  0  0  0  0  0  0  0  0  0
   28.0650   20.6115   -0.3511 O   0  0  0  0  0  0  0  0  0  0  0  0
   27.3429   24.0986    4.4838 C   0  0  0  0  0  0  0  0  0  0  0  0
   20.7984   21.2674   -3.3158 C   0  0  0  0  0  0  0  0  0  0  0  0
   21.0074   21.5101   -2.0157 O   0  0  0  0  0  0  0  0  0  0  0  0
   27.1907   21.5621   -6.9305 C   0  0  1  0  0  0  0  0  0  0  0  0
   28.5694   21.4004   -6.9970 O   0  0  0  0  0  0  0  0  0  0  0  0
   27.3396   23.2068   -0.5473 C   0  0  0  0  0  0  0  0  0  0  0  0
   26.0752   19.7800    1.0318 C   0  0  0  0  0  0  0  0  0  0  0  0
   25.3842   20.8780    0.4029 N   0  0  0  0  0  0  0  0  0  0  0  0
   28.8070   23.6247   -0.4079 C   0  0  0  0  0  0  0  0  0  0  0  0
   29.2575   23.4007    1.0040 N   0  0  0  0  0  0  0  0  0  0  0  0
   28.5763   24.2940    2.0756 C   0  0  0  0  0  0  0  0  0  0  0  0
  1  2  1  6  0  0  0
  1  9  1  0  0  0  0
  1 35  1  0  0  0  0
  3  4  1  6  0  0  0
  3 11  1  0  0  0  0
  3 45  1  0  0  0  0
  5  6  1  0  0  0  0
  5 12  1  0  0  0  0
  5 37  1  6  0  0  0
  6 30  1  0  0  0  0
  7 14  1  0  0  0  0
  7 41  1  0  0  0  0
  7 23  1  6  0  0  0
  8 16  2  0  0  0  0
  8 42  1  0  0  0  0
  9 10  1  6  0  0  0
  9 18  1  0  0  0  0
 11 20  1  0  0  0  0
 12 13  1  1  0  0  0
 12 22  1  0  0  0  0
 13 47  1  0  0  0  0
 14 15  1  6  0  0  0
 14 24  1  0  0  0  0
 16 17  1  0  0  0  0
 17 26  2  0  0  0  0
 18 19  1  1  0  0  0
 18 27  1  0  0  0  0
 20 21  1  1  0  0  0
 20 29  1  0  0  0  0
 22 23  1  1  0  0  0
 22 30  1  0  0  0  0
 24 25  1  1  0  0  0
 24 31  1  0  0  0  0
 26 33  1  0  0  0  0
 27 28  1  6  0  0  0
 27 34  1  0  0  0  0
 29  2  1  1  0  0  0
 29 36  1  0  0  0  0
 30 38  1  6  0  0  0
 31 32  1  6  0  0  0
 31 40  1  0  0  0  0
 33 42  2  0  0  0  0
 34 35  1  0  0  0  0
 34 43  1  1  0  0  0
 36 37  1  1  0  0  0
 36 45  1  0  0  0  0
 38 39  1  0  0  0  0
 40 41  1  0  0  0  0
 40 48  1  6  0  0  0
 43 44  1  0  0  0  0
 45 46  1  6  0  0  0
 47 50  1  0  0  0  0
 48 49  1  0  0  0  0
 50 51  1  0  0  0  0
 51 52  1  0  0  0  0
 52  8  1  0  0  0  0
M  END
>  <CHROM.1>
-163.03680693,-60.14849524,94.67198655,-176.22015455,74.12927188,45.99075538
-153.79413212,-69.27073581,66.96865988,-85.81573148,-156.61121405,-151.44866037
-66.10668093,128.39558169,-3.63316368,26.56524378,20.77410213,-2.21680135
2.02028278,-0.29554150,-1.59274106

>  <Name>
2be0_lig

>  <RI>
0

>  <Rbt.Current_Directory>
/home/itssahil/PROJECTS/Mol_Feturizer/New_Systems/rnas/2be0

>  <Rbt.Executable>
rbdock ($Id: //depot/dev/client3/rdock/2013.1/src/exe/rbdock.cxx#4 $)

>  <Rbt.Library>
libRbt.so (2013.1, Build901 2013/11/27)

>  <Rbt.Parameter_File>
/export/apps/rDock/src/rDock_2013.1_src/data/scripts/dock_solv.prm

>  <Rbt.Receptor>
prm/blind_docking_40.prm

>  <SCORE>
11.3272

>  <SCORE.INTER>
2.62114

>  <SCORE.INTER.CONST>
1

>  <SCORE.INTER.POLAR>
-0.359025

>  <SCORE.INTER.ROT>
15

>  <SCORE.INTER.SOLV>
23.8689

>  <SCORE.INTER.VDW>
-18.6121

>  <SCORE.INTER.norm>
0.0504065

>  <SCORE.INTRA>
-3.77404

>  <SCORE.INTRA.DIHEDRAL>
-27.3103

>  <SCORE.INTRA.DIHEDRAL.0>
47.8724

>  <SCORE.INTRA.POLAR>
0

>  <SCORE.INTRA.POLAR.0>
0

>  <SCORE.INTRA.REPUL>
8.28272e-05

>  <SCORE.INTRA.REPUL.0>
0

>  <SCORE.INTRA.SOLV>
5.431

>  <SCORE.INTRA.SOLV.lig_0>
-115.677

>  <SCORE.INTRA.VDW>
7.1652

>  <SCORE.INTRA.VDW.0>
-7.4833

>  <SCORE.INTRA.norm>
-0.0725776

>  <SCORE.RESTR>
12.4801

>  <SCORE.RESTR.CAVITY>
12.4801

>  <SCORE.RESTR.norm>
0.240001

>  <SCORE.SYSTEM>
0

>  <SCORE.SYSTEM.CONST>
0

>  <SCORE.SYSTEM.DIHEDRAL>
0

>  <SCORE.SYSTEM.SOLV>
0

>  <SCORE.SYSTEM.norm>
0

>  <SCORE.heavy>
52

>  <SCORE.norm>
0.21783

>  <RMSD>
24.532

$$$$
2be0_lig
 OpenBabel11021811423D
libRbt.so/2013.1/901 2013/11/27
 52 56  0  0  0  0  0  0  0  0999 V2000
   27.1677   19.2226   -2.1373 C   0  0  2  0  0  0  0  0  0  0  0  0
   27.7553   20.5022   -2.1292 O   0  0  0  0  0  0  0  0  0  0  0  0
   31.4779   19.5812    0.0307 C   0  0  2  0  0  0  0  0  0  0  0  0
   32.8080   19.7856    0.6699 N   0  0  0  0  0  0  0  0  0  0  0  0
   27.5087   22.1878   -0.0559 C   0  0  2  0  0  0  0  0  0  0  0  0
   28.5835   23.1343   -0.2269 O   0  0  0  0  0  0  0  0  0  0  0  0
   26.9201   24.9198    3.8382 C   0  0  1  0  0  0  0  0  0  0  0  0
   26.7375   21.8184   -6.0448 C   0  0  0  0  0  0  0  0  0  0  0  0
   25.8876   19.1855   -3.0678 C   0  0  2  0  0  0  0  0  0  0  0  0
   26.2355   19.6613   -4.4083 N   0  0  0  0  0  0  0  0  0  0  0  0
   31.5538   20.0468   -1.4943 C   0  0  0  0  0  0  0  0  0  0  0  0
   26.4137   22.9023    0.7521 C   0  0  2  0  0  0  0  0  0  0  0  0
   25.6288   23.6317   -0.2915 O   0  0  0  0  0  0  0  0  0  0  0  0
   26.2396   23.6327    4.5604 C   0  0  2  0  0  0  0  0  0  0  0  0
   24.7825   23.6009    4.2118 N   0  0  0  0  0  0  0  0  0  0  0  0
   28.0189   21.2436   -6.3319 C   0  0  0  0  0  0  0  0  0  0  0  0
   28.1323   20.2415   -7.3310 N   0  0  0  0  0  0  0  0  0  0  0  0
   24.7190   20.0550   -2.4089 C   0  0  1  0  0  0  0  0  0  0  0  0
   23.5848   20.0149   -3.2610 O   0  0  0  0  0  0  0  0  0  0  0  0
   30.1075   19.8517   -2.2292 C   0  0  2  0  0  0  0  0  0  0  0  0
   30.1630   20.2650   -3.6030 N   0  0  0  0  0  0  0  0  0  0  0  0
   27.3135   23.6901    1.7230 C   0  0  2  0  0  0  0  0  0  0  0  0
   26.7163   24.7727    2.4214 O   0  0  0  0  0  0  0  0  0  0  0  0
   26.4408   23.7853    6.0983 C   0  0  1  0  0  0  0  0  0  0  0  0
   27.8957   23.7882    6.3236 O   0  0  0  0  0  0  0  0  0  0  0  0
   27.0190   19.7634   -8.0794 C   0  0  0  0  0  0  0  0  0  0  0  0
   24.4052   19.4754   -0.9990 C   0  0  2  0  0  0  0  0  0  0  0  0
   23.3271   20.2463   -0.3338 O   0  0  0  0  0  0  0  0  0  0  0  0
   29.0002   20.6900   -1.4671 C   0  0  2  0  0  0  0  0  0  0  0  0
   28.5168   24.1011    0.8414 C   0  0  1  0  0  0  0  0  0  0  0  0
   25.7635   25.1716    6.6132 C   0  0  2  0  0  0  0  0  0  0  0  0
   24.3092   25.1760    6.3908 O   0  0  0  0  0  0  0  0  0  0  0  0
   25.7278   20.2949   -7.8404 C   0  0  0  0  0  0  0  0  0  0  0  0
   25.6917   19.5204   -0.0877 C   0  0  2  0  0  0  0  0  0  0  0  0
   26.7076   18.7546   -0.7922 O   0  0  0  0  0  0  0  0  0  0  0  0
   28.9741   20.2028    0.0232 C   0  0  2  0  0  0  0  0  0  0  0  0
   27.9499   21.0036    0.6001 O   0  0  0  0  0  0  0  0  0  0  0  0
   29.8439   24.0254    1.5946 C   0  0  0  0  0  0  0  0  0  0  0  0
   30.1891   22.7528    2.0870 O   0  0  0  0  0  0  0  0  0  0  0  0
   26.4268   26.4048    5.8437 C   0  0  1  0  0  0  0  0  0  0  0  0
   26.2501   26.1929    4.3542 O   0  0  0  0  0  0  0  0  0  0  0  0
   25.5563   21.3425   -6.8072 C   0  0  0  0  0  0  0  0  0  0  0  0
   25.3402   18.9422    1.2193 C   0  0  0  0  0  0  0  0  0  0  0  0
   26.4288   18.9044    1.9978 O   0  0  0  0  0  0  0  0  0  0  0  0
   30.3835   20.4349    0.7141 C   0  0  1  0  0  0  0  0  0  0  0  0
   30.3472   19.9890    2.0299 O   0  0  0  0  0  0  0  0  0  0  0  0
   26.0301   23.9601   -1.6799 C   0  0  0  0  0  0  0  0  0  0  0  0
   25.7360   27.6940    6.3656 C   0  0  0  0  0  0  0  0  0  0  0  0
   26.2117   28.0255    7.6857 N   0  0  0  0  0  0  0  0  0  0  0  0
   25.5470   22.8139   -2.5744 C   0  0  0  0  0  0  0  0  0  0  0  0
   26.6660   22.3741   -3.4695 N   0  0  0  0  0  0  0  0  0  0  0  0
   26.6392   22.9513   -4.9104 C   0  0  0  0  0  0  0  0  0  0  0  0
  1  2  1  1  0  0  0
  1  9  1  0  0  0  0
  1 35  1  0  0  0  0
  3  4  1  1  0  0  0
  3 11  1  0  0  0  0
  3 45  1  0  0  0  0
  5  6  1  0  0  0  0
  5 12  1  0  0  0  0
  5 37  1  1  0  0  0
  6 30  1  0  0  0  0
  7 14  1  0  0  0  0
  7 41  1  0  0  0  0
  7 23  1  6  0  0  0
  8 16  2  0  0  0  0
  8 42  1  0  0  0  0
  9 10  1  6  0  0  0
  9 18  1  0  0  0  0
 11 20  1  0  0  0  0
 12 13  1  6  0  0  0
 12 22  1  0  0  0  0
 13 47  1  0  0  0  0
 14 15  1  1  0  0  0
 14 24  1  0  0  0  0
 16 17  1  0  0  0  0
 17 26  2  0  0  0  0
 18 19  1  6  0  0  0
 18 27  1  0  0  0  0
 20 21  1  6  0  0  0
 20 29  1  0  0  0  0
 22 23  1  6  0  0  0
 22 30  1  0  0  0  0
 24 25  1  6  0  0  0
 24 31  1  0  0  0  0
 26 33  1  0  0  0  0
 27 28  1  1  0  0  0
 27 34  1  0  0  0  0
 29  2  1  6  0  0  0
 29 36  1  0  0  0  0
 30 38  1  1  0  0  0
 31 32  1  6  0  0  0
 31 40  1  0  0  0  0
 33 42  2  0  0  0  0
 34 35  1  0  0  0  0
 34 43  1  1  0  0  0
 36 37  1  1  0  0  0
 36 45  1  0  0  0  0
 38 39  1  0  0  0  0
 40 41  1  0  0  0  0
 40 48  1  1  0  0  0
 43 44  1  0  0  0  0
 45 46  1  1  0  0  0
 47 50  1  0  0  0  0
 48 49  1  0  0  0  0
 50 51  1  0  0  0  0
 51 52  1  0  0  0  0
 52  8  1  0  0  0  0
M  END
>  <CHROM.1>
-173.07899568,-59.95965846,-64.25406420,-17.66513832,91.88870163,133.20679013
65.20751254,-55.91846351,176.98948602,-17.37247429,75.10018926,-131.60489462
-98.47059780,-127.49201914,-78.10174548,27.17532019,21.98995050,-0.01429307
-1.50990626,-0.40004214,1.14447437

>  <Name>
2be0_lig

>  <RI>
0

>  <Rbt.Current_Directory>
/home/itssahil/PROJECTS/Mol_Feturizer/New_Systems/rnas/2be0

>  <Rbt.Executable>
rbdock ($Id: //depot/dev/client3/rdock/2013.1/src/exe/rbdock.cxx#4 $)

>  <Rbt.Library>
libRbt.so (2013.1, Build901 2013/11/27)

>  <Rbt.Parameter_File>
/export/apps/rDock/src/rDock_2013.1_src/data/scripts/dock_solv.prm

>  <Rbt.Receptor>
prm/blind_docking_40.prm

>  <SCORE>
15.6677

>  <SCORE.INTER>
-4.04287

>  <SCORE.INTER.CONST>
1

>  <SCORE.INTER.POLAR>
-1.18577

>  <SCORE.INTER.ROT>
15

>  <SCORE.INTER.SOLV>
21.3131

>  <SCORE.INTER.VDW>
-19.447

>  <SCORE.INTER.norm>
-0.0777475

>  <SCORE.INTRA>
7.54033

>  <SCORE.INTRA.DIHEDRAL>
-17.0525

>  <SCORE.INTRA.DIHEDRAL.0>
47.8724

>  <SCORE.INTRA.POLAR>
0

>  <SCORE.INTRA.POLAR.0>
0

>  <SCORE.INTRA.REPUL>
1

>  <SCORE.INTRA.REPUL.0>
0

>  <SCORE.INTRA.SOLV>
10.0908

>  <SCORE.INTRA.SOLV.lig_0>
-115.677

>  <SCORE.INTRA.VDW>
6.02116

>  <SCORE.INTRA.VDW.0>
-7.4833

>  <SCORE.INTRA.norm>
0.145006

>  <SCORE.RESTR>
12.1702

>  <SCORE.RESTR.CAVITY>
12.1702

>  <SCORE.RESTR.norm>
0.234043

>  <SCORE.SYSTEM>
0

>  <SCORE.SYSTEM.CONST>
0

>  <SCORE.SYSTEM.DIHEDRAL>
0

>  <SCORE.SYSTEM.SOLV>
0

>  <SCORE.SYSTEM.norm>
0

>  <SCORE.heavy>
52

>  <SCORE.norm>
0.301302

>  <RMSD>
24.569

$$$$
2be0_lig
 OpenBabel11021811423D
libRbt.so/2013.1/901 2013/11/27
 52 56  0  0  0  0  0  0  0  0999 V2000
   29.5669   19.8766   -1.3496 C   0  0  2  0  0  0  0  0  0  0  0  0
   30.6073   20.7330   -0.9410 O   0  0  0  0  0  0  0  0  0  0  0  0
   31.1963   25.0203   -0.1392 C   0  0  2  0  0  0  0  0  0  0  0  0
   30.8674   26.4512    0.1133 N   0  0  0  0  0  0  0  0  0  0  0  0
   29.2196   22.0368    2.3209 C   0  0  2  0  0  0  0  0  0  0  0  0
   28.4878   20.8567    2.7110 O   0  0  0  0  0  0  0  0  0  0  0  0
   26.2541   21.4941   -1.4101 C   0  0  1  0  0  0  0  0  0  0  0  0
   26.5783   25.2106    7.1053 C   0  0  0  0  0  0  0  0  0  0  0  0
   30.1088   18.4206   -1.6533 C   0  0  2  0  0  0  0  0  0  0  0  0
   30.8422   17.9126   -0.4920 N   0  0  0  0  0  0  0  0  0  0  0  0
   30.5324   24.5670   -1.5184 C   0  0  0  0  0  0  0  0  0  0  0  0
   28.2895   22.8538    1.4100 C   0  0  2  0  0  0  0  0  0  0  0  0
   27.4739   23.6567    2.3730 O   0  0  0  0  0  0  0  0  0  0  0  0
   24.7528   21.9103   -1.8727 C   0  0  2  0  0  0  0  0  0  0  0  0
   23.7698   21.2960   -0.9229 N   0  0  0  0  0  0  0  0  0  0  0  0
   26.5895   26.4738    7.7827 C   0  0  0  0  0  0  0  0  0  0  0  0
   27.5620   26.7252    8.7858 N   0  0  0  0  0  0  0  0  0  0  0  0
   31.0168   18.4487   -2.9688 C   0  0  1  0  0  0  0  0  0  0  0  0
   31.4981   17.1373   -3.2190 O   0  0  0  0  0  0  0  0  0  0  0  0
   30.8583   22.9956   -1.8259 C   0  0  2  0  0  0  0  0  0  0  0  0
   30.2683   22.5758   -3.0656 N   0  0  0  0  0  0  0  0  0  0  0  0
   27.6369   21.6922    0.6369 C   0  0  2  0  0  0  0  0  0  0  0  0
   26.4381   21.9795   -0.0680 O   0  0  0  0  0  0  0  0  0  0  0  0
   24.5340   21.3787   -3.3213 C   0  0  1  0  0  0  0  0  0  0  0  0
   25.5345   22.0560   -4.1626 O   0  0  0  0  0  0  0  0  0  0  0  0
   28.5480   25.7707    9.1663 C   0  0  0  0  0  0  0  0  0  0  0  0
   30.1593   18.9865   -4.1511 C   0  0  2  0  0  0  0  0  0  0  0  0
   30.9519   19.0396   -5.4033 O   0  0  0  0  0  0  0  0  0  0  0  0
   30.3112   22.0924   -0.6451 C   0  0  2  0  0  0  0  0  0  0  0  0
   27.4827   20.5896    1.7115 C   0  0  1  0  0  0  0  0  0  0  0  0
   24.7315   19.7645   -3.3572 C   0  0  2  0  0  0  0  0  0  0  0  0
   23.7351   19.0808   -2.5182 O   0  0  0  0  0  0  0  0  0  0  0  0
   28.5869   24.5051    8.5309 C   0  0  0  0  0  0  0  0  0  0  0  0
   29.6286   20.4366   -3.8297 C   0  0  2  0  0  0  0  0  0  0  0  0
   28.8670   20.3193   -2.5963 O   0  0  0  0  0  0  0  0  0  0  0  0
   30.9838   22.5845    0.6833 C   0  0  2  0  0  0  0  0  0  0  0  0
   30.4364   21.7064    1.6594 O   0  0  0  0  0  0  0  0  0  0  0  0
   27.7639   19.1935    1.1585 C   0  0  0  0  0  0  0  0  0  0  0  0
   29.0323   18.6652    1.4641 O   0  0  0  0  0  0  0  0  0  0  0  0
   26.2015   19.3977   -2.8497 C   0  0  1  0  0  0  0  0  0  0  0  0
   26.3875   19.9725   -1.4605 O   0  0  0  0  0  0  0  0  0  0  0  0
   27.5928   24.1933    7.4779 C   0  0  0  0  0  0  0  0  0  0  0  0
   28.8106   20.8813   -4.9695 C   0  0  0  0  0  0  0  0  0  0  0  0
   28.2558   22.0662   -4.6852 O   0  0  0  0  0  0  0  0  0  0  0  0
   30.6220   24.1031    0.9664 C   0  0  1  0  0  0  0  0  0  0  0  0
   31.2334   24.5268    2.1404 O   0  0  0  0  0  0  0  0  0  0  0  0
   26.0805   24.1372    2.2186 C   0  0  0  0  0  0  0  0  0  0  0  0
   26.3276   17.8506   -2.8949 C   0  0  0  0  0  0  0  0  0  0  0  0
   25.1042   17.2555   -3.3721 N   0  0  0  0  0  0  0  0  0  0  0  0
   25.7809   25.0499    3.4122 C   0  0  0  0  0  0  0  0  0  0  0  0
   26.0470   24.3075    4.6869 N   0  0  0  0  0  0  0  0  0  0  0  0
   25.4673   24.9542    5.9737 C   0  0  0  0  0  0  0  0  0  0  0  0
  1  2  1  6  0  0  0
  1  9  1  0  0  0  0
  1 35  1  0  0  0  0
  3  4  1  1  0  0  0
  3 11  1  0  0  0  0
  3 45  1  0  0  0  0
  5  6  1  0  0  0  0
  5 12  1  0  0  0  0
  5 37  1  6  0  0  0
  6 30  1  0  0  0  0
  7 14  1  0  0  0  0
  7 41  1  0  0  0  0
  7 23  1  1  0  0  0
  8 16  2  0  0  0  0
  8 42  1  0  0  0  0
  9 10  1  1  0  0  0
  9 18  1  0  0  0  0
 11 20  1  0  0  0  0
 12 13  1  1  0  0  0
 12 22  1  0  0  0  0
 13 47  1  0  0  0  0
 14 15  1  1  0  0  0
 14 24  1  0  0  0  0
 16 17  1  0  0  0  0
 17 26  2  0  0  0  0
 18 19  1  6  0  0  0
 18 27  1  0  0  0  0
 20 21  1  6  0  0  0
 20 29  1  0  0  0  0
 22 23  1  1  0  0  0
 22 30  1  0  0  0  0
 24 25  1  6  0  0  0
 24 31  1  0  0  0  0
 26 33  1  0  0  0  0
 27 28  1  6  0  0  0
 27 34  1  0  0  0  0
 29  2  1  6  0  0  0
 29 36  1  0  0  0  0
 30 38  1  6  0  0  0
 31 32  1  1  0  0  0
 31 40  1  0  0  0  0
 33 42  2  0  0  0  0
 34 35  1  0  0  0  0
 34 43  1  6  0  0  0
 36 37  1  1  0  0  0
 36 45  1  0  0  0  0
 38 39  1  0  0  0  0
 40 41  1  0  0  0  0
 40 48  1  1  0  0  0
 43 44  1  0  0  0  0
 45 46  1  1  0  0  0
 47 50  1  0  0  0  0
 48 49  1  0  0  0  0
 50 51  1  0  0  0  0
 51 52  1  0  0  0  0
 52  8  1  0  0  0  0
M  END
>  <CHROM.1>
178.98260704,150.67474504,176.16391874,-149.60319894,-173.31819945,135.38874845
-106.17485427,-14.90463045,175.10449340,-89.15265589,0.08171205,-55.16455935
-165.44660165,-124.78629145,134.70993124,28.19198399,21.77983300,0.17090014
-1.50973829,0.13271015,1.03976111

>  <Name>
2be0_lig

>  <RI>
0

>  <Rbt.Current_Directory>
/home/itssahil/PROJECTS/Mol_Feturizer/New_Systems/rnas/2be0

>  <Rbt.Executable>
rbdock ($Id: //depot/dev/client3/rdock/2013.1/src/exe/rbdock.cxx#4 $)

>  <Rbt.Library>
libRbt.so (2013.1, Build901 2013/11/27)

>  <Rbt.Parameter_File>
/export/apps/rDock/src/rDock_2013.1_src/data/scripts/dock_solv.prm

>  <Rbt.Receptor>
prm/blind_docking_40.prm

>  <SCORE>
62.0494

>  <SCORE.INTER>
44.886

>  <SCORE.INTER.CONST>
1

>  <SCORE.INTER.POLAR>
-0.099294

>  <SCORE.INTER.ROT>
15

>  <SCORE.INTER.SOLV>
41.1414

>  <SCORE.INTER.VDW>
2.94122

>  <SCORE.INTER.norm>
0.863193

>  <SCORE.INTRA>
6.65768

>  <SCORE.INTRA.DIHEDRAL>
-12.5456

>  <SCORE.INTRA.DIHEDRAL.0>
47.8724

>  <SCORE.INTRA.POLAR>
0

>  <SCORE.INTRA.POLAR.0>
0

>  <SCORE.INTRA.REPUL>
0

>  <SCORE.INTRA.REPUL.0>
0

>  <SCORE.INTRA.SOLV>
7.6793

>  <SCORE.INTRA.SOLV.lig_0>
-115.677

>  <SCORE.INTRA.VDW>
9.09082

>  <SCORE.INTRA.VDW.0>
-7.4833

>  <SCORE.INTRA.norm>
0.128032

>  <SCORE.RESTR>
10.5057

>  <SCORE.RESTR.CAVITY>
10.5057

>  <SCORE.RESTR.norm>
0.202032

>  <SCORE.SYSTEM>
0

>  <SCORE.SYSTEM.CONST>
0

>  <SCORE.SYSTEM.DIHEDRAL>
0

>  <SCORE.SYSTEM.SOLV>
0

>  <SCORE.SYSTEM.norm>
0

>  <SCORE.heavy>
52

>  <SCORE.norm>
1.19326

>  <RMSD>
24.578

$$$$
2be0_lig
 OpenBabel11021811423D
libRbt.so/2013.1/901 2013/11/27
 52 56  0  0  0  0  0  0  0  0999 V2000
   26.4552   21.2736   -4.4308 C   0  0  2  0  0  0  0  0  0  0  0  0
   27.7046   20.6400   -4.5736 O   0  0  0  0  0  0  0  0  0  0  0  0
   31.8612   21.7030   -5.5551 C   0  0  2  0  0  0  0  0  0  0  0  0
   33.0174   22.4953   -6.0600 N   0  0  0  0  0  0  0  0  0  0  0  0
   29.2026   21.7273   -1.5155 C   0  0  2  0  0  0  0  0  0  0  0  0
   29.8422   20.4362   -1.4495 O   0  0  0  0  0  0  0  0  0  0  0  0
   25.0335   19.9401   -1.1665 C   0  0  1  0  0  0  0  0  0  0  0  0
   27.1179   24.5879    5.8253 C   0  0  0  0  0  0  0  0  0  0  0  0
   25.2671   20.2759   -4.7451 C   0  0  2  0  0  0  0  0  0  0  0  0
   25.3955   19.0757   -3.9158 N   0  0  0  0  0  0  0  0  0  0  0  0
   30.8039   21.5109   -6.7356 C   0  0  0  0  0  0  0  0  0  0  0  0
   27.7788   21.5449   -0.9661 C   0  0  2  0  0  0  0  0  0  0  0  0
   27.9537   21.6877    0.5126 O   0  0  0  0  0  0  0  0  0  0  0  0
   24.4230   20.1497    0.3250 C   0  0  2  0  0  0  0  0  0  0  0  0
   24.4494   18.8351    1.0440 N   0  0  0  0  0  0  0  0  0  0  0  0
   26.5971   25.9099    5.6357 C   0  0  0  0  0  0  0  0  0  0  0  0
   26.6137   26.8336    6.7135 N   0  0  0  0  0  0  0  0  0  0  0  0
   25.2570   19.9268   -6.3051 C   0  0  1  0  0  0  0  0  0  0  0  0
   24.1908   19.0266   -6.5642 O   0  0  0  0  0  0  0  0  0  0  0  0
   29.5107   20.6568   -6.2178 C   0  0  2  0  0  0  0  0  0  0  0  0
   28.5526   20.4750   -7.2715 N   0  0  0  0  0  0  0  0  0  0  0  0
   27.4685   20.1622   -1.5701 C   0  0  2  0  0  0  0  0  0  0  0  0
   26.3761   19.4457   -1.0135 O   0  0  0  0  0  0  0  0  0  0  0  0
   22.9625   20.6727    0.1748 C   0  0  1  0  0  0  0  0  0  0  0  0
   23.0591   21.9647   -0.5243 O   0  0  0  0  0  0  0  0  0  0  0  0
   27.1286   26.5125    8.0019 C   0  0  0  0  0  0  0  0  0  0  0  0
   25.1050   21.2514   -7.1080 C   0  0  2  0  0  0  0  0  0  0  0  0
   25.0930   20.9912   -8.5679 O   0  0  0  0  0  0  0  0  0  0  0  0
   28.8255   21.4044   -5.0007 C   0  0  2  0  0  0  0  0  0  0  0  0
   28.8212   19.4175   -1.4720 C   0  0  1  0  0  0  0  0  0  0  0  0
   22.0752   19.6083   -0.6769 C   0  0  2  0  0  0  0  0  0  0  0  0
   21.9746   18.3142    0.0158 O   0  0  0  0  0  0  0  0  0  0  0  0
   27.6575   25.2216    8.2485 C   0  0  0  0  0  0  0  0  0  0  0  0
   26.2966   22.2316   -6.7814 C   0  0  2  0  0  0  0  0  0  0  0  0
   26.2572   22.4435   -5.3432 O   0  0  0  0  0  0  0  0  0  0  0  0
   29.9058   21.5768   -3.8772 C   0  0  2  0  0  0  0  0  0  0  0  0
   29.1855   22.2385   -2.8444 O   0  0  0  0  0  0  0  0  0  0  0  0
   29.0935   18.5404   -2.6929 C   0  0  0  0  0  0  0  0  0  0  0  0
   30.3826   17.9793   -2.7602 O   0  0  0  0  0  0  0  0  0  0  0  0
   22.7371   19.3958   -2.1155 C   0  0  1  0  0  0  0  0  0  0  0  0
   24.1669   18.9339   -1.9230 O   0  0  0  0  0  0  0  0  0  0  0  0
   27.6624   24.2208    7.1564 C   0  0  0  0  0  0  0  0  0  0  0  0
   26.0873   23.4692   -7.5500 C   0  0  0  0  0  0  0  0  0  0  0  0
   24.8575   23.9411   -7.3098 O   0  0  0  0  0  0  0  0  0  0  0  0
   31.1315   22.4355   -4.4043 C   0  0  1  0  0  0  0  0  0  0  0  0
   32.0839   22.5704   -3.4011 O   0  0  0  0  0  0  0  0  0  0  0  0
   27.9399   22.9282    1.3233 C   0  0  0  0  0  0  0  0  0  0  0  0
   21.8574   18.3663   -2.8756 C   0  0  0  0  0  0  0  0  0  0  0  0
   20.5108   18.8602   -3.0226 N   0  0  0  0  0  0  0  0  0  0  0  0
   28.5387   22.5828    2.6905 C   0  0  0  0  0  0  0  0  0  0  0  0
   28.3062   23.7201    3.6387 N   0  0  0  0  0  0  0  0  0  0  0  0
   27.0876   23.5642    4.5878 C   0  0  0  0  0  0  0  0  0  0  0  0
  1  2  1  6  0  0  0
  1  9  1  0  0  0  0
  1 35  1  0  0  0  0
  3  4  1  6  0  0  0
  3 11  1  0  0  0  0
  3 45  1  0  0  0  0
  5  6  1  0  0  0  0
  5 12  1  0  0  0  0
  5 37  1  6  0  0  0
  6 30  1  0  0  0  0
  7 14  1  0  0  0  0
  7 41  1  0  0  0  0
  7 23  1  1  0  0  0
  8 16  2  0  0  0  0
  8 42  1  0  0  0  0
  9 10  1  1  0  0  0
  9 18  1  0  0  0  0
 11 20  1  0  0  0  0
 12 13  1  1  0  0  0
 12 22  1  0  0  0  0
 13 47  1  0  0  0  0
 14 15  1  6  0  0  0
 14 24  1  0  0  0  0
 16 17  1  0  0  0  0
 17 26  2  0  0  0  0
 18 19  1  1  0  0  0
 18 27  1  0  0  0  0
 20 21  1  6  0  0  0
 20 29  1  0  0  0  0
 22 23  1  1  0  0  0
 22 30  1  0  0  0  0
 24 25  1  6  0  0  0
 24 31  1  0  0  0  0
 26 33  1  0  0  0  0
 27 28  1  6  0  0  0
 27 34  1  0  0  0  0
 29  2  1  1  0  0  0
 29 36  1  0  0  0  0
 30 38  1  6  0  0  0
 31 32  1  1  0  0  0
 31 40  1  0  0  0  0
 33 42  2  0  0  0  0
 34 35  1  0  0  0  0
 34 43  1  6  0  0  0
 36 37  1  1  0  0  0
 36 45  1  0  0  0  0
 38 39  1  0  0  0  0
 40 41  1  0  0  0  0
 40 48  1  6  0  0  0
 43 44  1  0  0  0  0
 45 46  1  1  0  0  0
 47 50  1  0  0  0  0
 48 49  1  0  0  0  0
 50 51  1  0  0  0  0
 51 52  1  0  0  0  0
 52  8  1  0  0  0  0
M  END
>  <CHROM.1>
148.51927007,-8.21512074,-121.73956866,87.00367947,-164.66496234,66.49997498
-128.82910758,55.29914282,52.99804703,128.60106727,60.23036490,-168.98813171
97.94667256,164.27653100,84.58537027,26.86763891,21.37687041,-1.90179361
1.55344420,-0.34950632,-1.85657720

>  <Name>
2be0_lig

>  <RI>
0

>  <Rbt.Current_Directory>
/home/itssahil/PROJECTS/Mol_Feturizer/New_Systems/rnas/2be0

>  <Rbt.Executable>
rbdock ($Id: //depot/dev/client3/rdock/2013.1/src/exe/rbdock.cxx#4 $)

>  <Rbt.Library>
libRbt.so (2013.1, Build901 2013/11/27)

>  <Rbt.Parameter_File>
/export/apps/rDock/src/rDock_2013.1_src/data/scripts/dock_solv.prm

>  <Rbt.Receptor>
prm/blind_docking_40.prm

>  <SCORE>
0.721269

>  <SCORE.INTER>
-11.4249

>  <SCORE.INTER.CONST>
1

>  <SCORE.INTER.POLAR>
-0.646453

>  <SCORE.INTER.ROT>
15

>  <SCORE.INTER.SOLV>
20.0836

>  <SCORE.INTER.VDW>
-25.7563

>  <SCORE.INTER.norm>
-0.219709

>  <SCORE.INTRA>
-0.937624

>  <SCORE.INTRA.DIHEDRAL>
-9.35783

>  <SCORE.INTRA.DIHEDRAL.0>
47.8724

>  <SCORE.INTRA.POLAR>
0

>  <SCORE.INTRA.POLAR.0>
0

>  <SCORE.INTRA.REPUL>
0

>  <SCORE.INTRA.REPUL.0>
0

>  <SCORE.INTRA.SOLV>
5.65307

>  <SCORE.INTRA.SOLV.lig_0>
-115.677

>  <SCORE.INTRA.VDW>
0.914759

>  <SCORE.INTRA.VDW.0>
-7.4833

>  <SCORE.INTRA.norm>
-0.0180312

>  <SCORE.RESTR>
13.0837

>  <SCORE.RESTR.CAVITY>
13.0837

>  <SCORE.RESTR.norm>
0.25161

>  <SCORE.SYSTEM>
0

>  <SCORE.SYSTEM.CONST>
0

>  <SCORE.SYSTEM.DIHEDRAL>
0

>  <SCORE.SYSTEM.SOLV>
0

>  <SCORE.SYSTEM.norm>
0

>  <SCORE.heavy>
52

>  <SCORE.norm>
0.0138705

>  <RMSD>
24.591

$$$$
2be0_lig
 OpenBabel11021811423D
libRbt.so/2013.1/901 2013/11/27
 52 56  0  0  0  0  0  0  0  0999 V2000
   27.8040   22.3565   -4.1775 C   0  0  2  0  0  0  0  0  0  0  0  0
   27.3835   21.5073   -3.1359 O   0  0  0  0  0  0  0  0  0  0  0  0
   27.4591   24.3611    0.2139 C   0  0  2  0  0  0  0  0  0  0  0  0
   27.2094   24.9322    1.5670 N   0  0  0  0  0  0  0  0  0  0  0  0
   29.0545   20.3052   -0.0776 C   0  0  2  0  0  0  0  0  0  0  0  0
   29.0905   18.9494   -0.5685 O   0  0  0  0  0  0  0  0  0  0  0  0
   24.3668   19.8064   -0.7366 C   0  0  1  0  0  0  0  0  0  0  0  0
   26.5152   23.9018    5.7578 C   0  0  0  0  0  0  0  0  0  0  0  0
   27.1267   21.9572   -5.5514 C   0  0  2  0  0  0  0  0  0  0  0  0
   25.6710   21.9246   -5.3952 N   0  0  0  0  0  0  0  0  0  0  0  0
   26.0621   23.9837   -0.4601 C   0  0  0  0  0  0  0  0  0  0  0  0
   27.6744   20.5058    0.5686 C   0  0  2  0  0  0  0  0  0  0  0  0
   27.8613   19.9886    1.9596 O   0  0  0  0  0  0  0  0  0  0  0  0
   23.0729   19.5591    0.2152 C   0  0  2  0  0  0  0  0  0  0  0  0
   22.9695   18.0943    0.5143 N   0  0  0  0  0  0  0  0  0  0  0  0
   26.8639   23.2379    6.9794 C   0  0  0  0  0  0  0  0  0  0  0  0
   27.2772   24.0022    8.1020 N   0  0  0  0  0  0  0  0  0  0  0  0
   27.7066   20.5526   -6.0482 C   0  0  1  0  0  0  0  0  0  0  0  0
   27.0820   20.2097   -7.2756 O   0  0  0  0  0  0  0  0  0  0  0  0
   26.2933   23.3392   -1.9437 C   0  0  2  0  0  0  0  0  0  0  0  0
   25.0435   22.9973   -2.5620 N   0  0  0  0  0  0  0  0  0  0  0  0
   26.8248   19.7066   -0.4375 C   0  0  2  0  0  0  0  0  0  0  0  0
   25.5207   19.3276   -0.0226 O   0  0  0  0  0  0  0  0  0  0  0  0
   21.8122   20.0610   -0.5516 C   0  0  1  0  0  0  0  0  0  0  0  0
   22.0145   21.5019   -0.7752 O   0  0  0  0  0  0  0  0  0  0  0  0
   27.3685   25.4232    8.0813 C   0  0  0  0  0  0  0  0  0  0  0  0
   29.2504   20.6798   -6.1994 C   0  0  2  0  0  0  0  0  0  0  0  0
   29.8481   19.4017   -6.6559 O   0  0  0  0  0  0  0  0  0  0  0  0
   27.2015   22.0461   -1.8321 C   0  0  2  0  0  0  0  0  0  0  0  0
   27.7367   18.5121   -0.8061 C   0  0  1  0  0  0  0  0  0  0  0  0
   21.6637   19.2624   -1.9609 C   0  0  2  0  0  0  0  0  0  0  0  0
   21.4616   17.8213   -1.7451 O   0  0  0  0  0  0  0  0  0  0  0  0
   27.0356   26.1343    6.9022 C   0  0  0  0  0  0  0  0  0  0  0  0
   29.9063   21.0783   -4.8216 C   0  0  2  0  0  0  0  0  0  0  0  0
   29.2794   22.3299   -4.4275 O   0  0  0  0  0  0  0  0  0  0  0  0
   28.5521   22.4682   -1.1562 C   0  0  2  0  0  0  0  0  0  0  0  0
   29.2827   21.2482   -1.1198 O   0  0  0  0  0  0  0  0  0  0  0  0
   27.6413   18.1407   -2.2850 C   0  0  0  0  0  0  0  0  0  0  0  0
   28.4792   18.8715   -3.1482 O   0  0  0  0  0  0  0  0  0  0  0  0
   22.9757   19.4932   -2.8431 C   0  0  1  0  0  0  0  0  0  0  0  0
   24.1786   19.0368   -2.0435 O   0  0  0  0  0  0  0  0  0  0  0  0
   26.5993   25.3827    5.7026 C   0  0  0  0  0  0  0  0  0  0  0  0
   31.3576   21.2041   -5.0316 C   0  0  0  0  0  0  0  0  0  0  0  0
   31.9206   19.9898   -4.9952 O   0  0  0  0  0  0  0  0  0  0  0  0
   28.2933   23.0606    0.2928 C   0  0  1  0  0  0  0  0  0  0  0  0
   29.4978   23.4391    0.8737 O   0  0  0  0  0  0  0  0  0  0  0  0
   28.6975   20.5538    3.0448 C   0  0  0  0  0  0  0  0  0  0  0  0
   22.7822   18.7020   -4.1652 C   0  0  0  0  0  0  0  0  0  0  0  0
   23.8780   18.9487   -5.0692 N   0  0  0  0  0  0  0  0  0  0  0  0
   28.1151   21.9263    3.3976 C   0  0  0  0  0  0  0  0  0  0  0  0
   26.9276   21.7487    4.2948 N   0  0  0  0  0  0  0  0  0  0  0  0
   26.0497   23.0119    4.5041 C   0  0  0  0  0  0  0  0  0  0  0  0
  1  2  1  1  0  0  0
  1  9  1  0  0  0  0
  1 35  1  0  0  0  0
  3  4  1  1  0  0  0
  3 11  1  0  0  0  0
  3 45  1  0  0  0  0
  5  6  1  0  0  0  0
  5 12  1  0  0  0  0
  5 37  1  6  0  0  0
  6 30  1  0  0  0  0
  7 14  1  0  0  0  0
  7 41  1  0  0  0  0
  7 23  1  1  0  0  0
  8 16  2  0  0  0  0
  8 42  1  0  0  0  0
  9 10  1  1  0  0  0
  9 18  1  0  0  0  0
 11 20  1  0  0  0  0
 12 13  1  1  0  0  0
 12 22  1  0  0  0  0
 13 47  1  0  0  0  0
 14 15  1  6  0  0  0
 14 24  1  0  0  0  0
 16 17  1  0  0  0  0
 17 26  2  0  0  0  0
 18 19  1  6  0  0  0
 18 27  1  0  0  0  0
 20 21  1  1  0  0  0
 20 29  1  0  0  0  0
 22 23  1  1  0  0  0
 22 30  1  0  0  0  0
 24 25  1  6  0  0  0
 24 31  1  0  0  0  0
 26 33  1  0  0  0  0
 27 28  1  1  0  0  0
 27 34  1  0  0  0  0
 29  2  1  6  0  0  0
 29 36  1  0  0  0  0
 30 38  1  6  0  0  0
 31 32  1  1  0  0  0
 31 40  1  0  0  0  0
 33 42  2  0  0  0  0
 34 35  1  0  0  0  0
 34 43  1  6  0  0  0
 36 37  1  1  0  0  0
 36 45  1  0  0  0  0
 38 39  1  0  0  0  0
 40 41  1  0  0  0  0
 40 48  1  6  0  0  0
 43 44  1  0  0  0  0
 45 46  1  6  0  0  0
 47 50  1  0  0  0  0
 48 49  1  0  0  0  0
 50 51  1  0  0  0  0
 51 52  1  0  0  0  0
 52  8  1  0  0  0  0
M  END
>  <CHROM.1>
-144.17148424,141.04261703,-164.01226843,67.35997035,64.19889818,118.32673703
50.33651347,-30.93222056,-81.48831249,-82.28272345,175.17748339,80.26182048
-167.76607524,-90.16225643,-43.33463242,26.79129942,21.22868850,-0.80140007
-1.53741486,0.36040456,1.22456435

>  <Name>
2be0_lig

>  <RI>
0

>  <Rbt.Current_Directory>
/home/itssahil/PROJECTS/Mol_Feturizer/New_Systems/rnas/2be0

>  <Rbt.Executable>
rbdock ($Id: //depot/dev/client3/rdock/2013.1/src/exe/rbdock.cxx#4 $)

>  <Rbt.Library>
libRbt.so (2013.1, Build901 2013/11/27)

>  <Rbt.Parameter_File>
/export/apps/rDock/src/rDock_2013.1_src/data/scripts/dock_solv.prm

>  <Rbt.Receptor>
prm/blind_docking_40.prm

>  <SCORE>
32.475

>  <SCORE.INTER>
26.4544

>  <SCORE.INTER.CONST>
1

>  <SCORE.INTER.POLAR>
-0.79256

>  <SCORE.INTER.ROT>
15

>  <SCORE.INTER.SOLV>
29.5161

>  <SCORE.INTER.VDW>
-3.16055

>  <SCORE.INTER.norm>
0.508739

>  <SCORE.INTRA>
-1.4425

>  <SCORE.INTRA.DIHEDRAL>
-19.206

>  <SCORE.INTRA.DIHEDRAL.0>
47.8724

>  <SCORE.INTRA.POLAR>
0

>  <SCORE.INTRA.POLAR.0>
0

>  <SCORE.INTRA.REPUL>
0.0388044

>  <SCORE.INTRA.REPUL.0>
0

>  <SCORE.INTRA.SOLV>
6.23117

>  <SCORE.INTRA.SOLV.lig_0>
-115.677

>  <SCORE.INTRA.VDW>
4.85089

>  <SCORE.INTRA.VDW.0>
-7.4833

>  <SCORE.INTRA.norm>
-0.0277404

>  <SCORE.RESTR>
7.46309

>  <SCORE.RESTR.CAVITY>
7.46309

>  <SCORE.RESTR.norm>
0.143521

>  <SCORE.SYSTEM>
0

>  <SCORE.SYSTEM.CONST>
0

>  <SCORE.SYSTEM.DIHEDRAL>
0

>  <SCORE.SYSTEM.SOLV>
0

>  <SCORE.SYSTEM.norm>
0

>  <SCORE.heavy>
52

>  <SCORE.norm>
0.62452

>  <RMSD>
24.777

$$$$
2be0_lig
 OpenBabel11021811423D
libRbt.so/2013.1/901 2013/11/27
 52 56  0  0  0  0  0  0  0  0999 V2000
   26.4478   20.9104   -3.9285 C   0  0  2  0  0  0  0  0  0  0  0  0
   27.2428   19.7986   -3.5897 O   0  0  0  0  0  0  0  0  0  0  0  0
   28.7264   18.4014    0.3113 C   0  0  2  0  0  0  0  0  0  0  0  0
   29.4965   18.3823    1.5865 N   0  0  0  0  0  0  0  0  0  0  0  0
   25.7788   21.5278   -0.0885 C   0  0  2  0  0  0  0  0  0  0  0  0
   25.0049   22.6943   -0.4356 O   0  0  0  0  0  0  0  0  0  0  0  0
   29.5076   23.8699    0.7637 C   0  0  1  0  0  0  0  0  0  0  0  0
   26.3077   25.4488    6.1531 C   0  0  0  0  0  0  0  0  0  0  0  0
   24.9497   20.4807   -4.2056 C   0  0  2  0  0  0  0  0  0  0  0  0
   24.4277   19.7353   -3.0583 N   0  0  0  0  0  0  0  0  0  0  0  0
   29.7441   18.5290   -0.9120 C   0  0  0  0  0  0  0  0  0  0  0  0
   27.0431   22.0315    0.6259 C   0  0  2  0  0  0  0  0  0  0  0  0
   26.6038   22.1846    2.0475 O   0  0  0  0  0  0  0  0  0  0  0  0
   30.5817   24.4661   -0.3004 C   0  0  2  0  0  0  0  0  0  0  0  0
   30.2781   23.9035   -1.6557 N   0  0  0  0  0  0  0  0  0  0  0  0
   25.2594   25.7780    5.2324 C   0  0  0  0  0  0  0  0  0  0  0  0
   24.4893   26.9532    5.4345 N   0  0  0  0  0  0  0  0  0  0  0  0
   24.8761   19.6286   -5.5563 C   0  0  1  0  0  0  0  0  0  0  0  0
   23.5279   19.2475   -5.7823 O   0  0  0  0  0  0  0  0  0  0  0  0
   28.9366   18.5678   -2.3319 C   0  0  2  0  0  0  0  0  0  0  0  0
   29.8413   18.6802   -3.4410 N   0  0  0  0  0  0  0  0  0  0  0  0
   27.3147   23.2829   -0.2303 C   0  0  2  0  0  0  0  0  0  0  0  0
   28.1974   24.2551    0.3103 O   0  0  0  0  0  0  0  0  0  0  0  0
   32.0062   24.0447    0.1710 C   0  0  1  0  0  0  0  0  0  0  0  0
   32.2002   24.6617    1.4935 O   0  0  0  0  0  0  0  0  0  0  0  0
   24.7034   27.8423    6.5261 C   0  0  0  0  0  0  0  0  0  0  0  0
   25.4358   20.4967   -6.7206 C   0  0  2  0  0  0  0  0  0  0  0  0
   25.3969   19.7553   -8.0043 O   0  0  0  0  0  0  0  0  0  0  0  0
   27.9284   19.7897   -2.3434 C   0  0  2  0  0  0  0  0  0  0  0  0
   25.8969   23.8236   -0.5330 C   0  0  1  0  0  0  0  0  0  0  0  0
   32.1065   22.4236    0.2582 C   0  0  2  0  0  0  0  0  0  0  0  0
   31.9131   21.7999   -1.0602 O   0  0  0  0  0  0  0  0  0  0  0  0
   25.7260   27.5695    7.4679 C   0  0  0  0  0  0  0  0  0  0  0  0
   26.9277   20.9148   -6.4261 C   0  0  2  0  0  0  0  0  0  0  0  0
   26.8999   21.6303   -5.1603 O   0  0  0  0  0  0  0  0  0  0  0  0
   26.9615   19.6223   -1.1203 C   0  0  2  0  0  0  0  0  0  0  0  0
   26.1049   20.7519   -1.2370 O   0  0  0  0  0  0  0  0  0  0  0  0
   25.7723   24.3688   -1.9547 C   0  0  0  0  0  0  0  0  0  0  0  0
   25.9463   23.4238   -2.9832 O   0  0  0  0  0  0  0  0  0  0  0  0
   31.0030   21.8771    1.2763 C   0  0  1  0  0  0  0  0  0  0  0  0
   29.6417   22.3481    0.8077 O   0  0  0  0  0  0  0  0  0  0  0  0
   26.5573   26.3547    7.3019 C   0  0  0  0  0  0  0  0  0  0  0  0
   27.3931   21.7480   -7.5465 C   0  0  0  0  0  0  0  0  0  0  0  0
   28.6562   22.1316   -7.3227 O   0  0  0  0  0  0  0  0  0  0  0  0
   27.7751   19.6194    0.2419 C   0  0  1  0  0  0  0  0  0  0  0  0
   26.9059   19.4600    1.3145 O   0  0  0  0  0  0  0  0  0  0  0  0
   27.0240   21.3943    3.2287 C   0  0  0  0  0  0  0  0  0  0  0  0
   31.1385   20.3305    1.3099 C   0  0  0  0  0  0  0  0  0  0  0  0
   32.4318   19.9453    1.8175 N   0  0  0  0  0  0  0  0  0  0  0  0
   27.8149   22.3339    4.1446 C   0  0  0  0  0  0  0  0  0  0  0  0
   26.9780   23.5339    4.4707 N   0  0  0  0  0  0  0  0  0  0  0  0
   27.1639   24.1136    5.8989 C   0  0  0  0  0  0  0  0  0  0  0  0
  1  2  1  6  0  0  0
  1  9  1  0  0  0  0
  1 35  1  0  0  0  0
  3  4  1  1  0  0  0
  3 11  1  0  0  0  0
  3 45  1  0  0  0  0
  5  6  1  0  0  0  0
  5 12  1  0  0  0  0
  5 37  1  6  0  0  0
  6 30  1  0  0  0  0
  7 14  1  0  0  0  0
  7 41  1  0  0  0  0
  7 23  1  6  0  0  0
  8 16  2  0  0  0  0
  8 42  1  0  0  0  0
  9 10  1  1  0  0  0
  9 18  1  0  0  0  0
 11 20  1  0  0  0  0
 12 13  1  1  0  0  0
 12 22  1  0  0  0  0
 13 47  1  0  0  0  0
 14 15  1  6  0  0  0
 14 24  1  0  0  0  0
 16 17  1  0  0  0  0
 17 26  2  0  0  0  0
 18 19  1  6  0  0  0
 18 27  1  0  0  0  0
 20 21  1  6  0  0  0
 20 29  1  0  0  0  0
 22 23  1  1  0  0  0
 22 30  1  0  0  0  0
 24 25  1  1  0  0  0
 24 31  1  0  0  0  0
 26 33  1  0  0  0  0
 27 28  1  6  0  0  0
 27 34  1  0  0  0  0
 29  2  1  6  0  0  0
 29 36  1  0  0  0  0
 30 38  1  6  0  0  0
 31 32  1  6  0  0  0
 31 40  1  0  0  0  0
 33 42  2  0  0  0  0
 34 35  1  0  0  0  0
 34 43  1  6  0  0  0
 36 37  1  1  0  0  0
 36 45  1  0  0  0  0
 38 39  1  0  0  0  0
 40 41  1  0  0  0  0
 40 48  1  6  0  0  0
 43 44  1  0  0  0  0
 45 46  1  1  0  0  0
 47 50  1  0  0  0  0
 48 49  1  0  0  0  0
 50 51  1  0  0  0  0
 51 52  1  0  0  0  0
 52  8  1  0  0  0  0
M  END
>  <CHROM.1>
-122.00265932,174.60085212,108.60553250,111.85512658,113.25499658,53.28833703
-169.94729575,-52.51183108,179.44685937,-135.45504965,62.91662966,55.49788884
145.03775903,176.46180109,14.86932018,27.63522066,22.02504949,-0.43192338
1.61561663,0.34727886,-2.02013781

>  <Name>
2be0_lig

>  <RI>
0

>  <Rbt.Current_Directory>
/home/itssahil/PROJECTS/Mol_Feturizer/New_Systems/rnas/2be0

>  <Rbt.Executable>
rbdock ($Id: //depot/dev/client3/rdock/2013.1/src/exe/rbdock.cxx#4 $)

>  <Rbt.Library>
libRbt.so (2013.1, Build901 2013/11/27)

>  <Rbt.Parameter_File>
/export/apps/rDock/src/rDock_2013.1_src/data/scripts/dock_solv.prm

>  <Rbt.Receptor>
prm/blind_docking_40.prm

>  <SCORE>
21.483

>  <SCORE.INTER>
2.66017

>  <SCORE.INTER.CONST>
1

>  <SCORE.INTER.POLAR>
-0.187605

>  <SCORE.INTER.ROT>
15

>  <SCORE.INTER.SOLV>
28.2947

>  <SCORE.INTER.VDW>
-20.6328

>  <SCORE.INTER.norm>
0.0511571

>  <SCORE.INTRA>
8.66137

>  <SCORE.INTRA.DIHEDRAL>
-11.8428

>  <SCORE.INTRA.DIHEDRAL.0>
47.8724

>  <SCORE.INTRA.POLAR>
0

>  <SCORE.INTRA.POLAR.0>
0

>  <SCORE.INTRA.REPUL>
0.00724732

>  <SCORE.INTRA.REPUL.0>
0

>  <SCORE.INTRA.SOLV>
6.64004

>  <SCORE.INTRA.SOLV.lig_0>
-115.677

>  <SCORE.INTRA.VDW>
11.2265

>  <SCORE.INTRA.VDW.0>
-7.4833

>  <SCORE.INTRA.norm>
0.166565

>  <SCORE.RESTR>
10.1615

>  <SCORE.RESTR.CAVITY>
10.1615

>  <SCORE.RESTR.norm>
0.195413

>  <SCORE.SYSTEM>
0

>  <SCORE.SYSTEM.CONST>
0

>  <SCORE.SYSTEM.DIHEDRAL>
0

>  <SCORE.SYSTEM.SOLV>
0

>  <SCORE.SYSTEM.norm>
0

>  <SCORE.heavy>
52

>  <SCORE.norm>
0.413135

>  <RMSD>
24.806

$$$$
2be0_lig
 OpenBabel11021811423D
libRbt.so/2013.1/901 2013/11/27
 52 56  0  0  0  0  0  0  0  0999 V2000
   28.3048   22.0256   -4.2904 C   0  0  2  0  0  0  0  0  0  0  0  0
   27.7801   21.2587   -3.2324 O   0  0  0  0  0  0  0  0  0  0  0  0
   27.0158   24.4590   -0.3092 C   0  0  2  0  0  0  0  0  0  0  0  0
   26.4747   25.1498    0.8948 N   0  0  0  0  0  0  0  0  0  0  0  0
   28.9635   20.6006    0.2392 C   0  0  2  0  0  0  0  0  0  0  0  0
   29.1913   19.2004   -0.0209 O   0  0  0  0  0  0  0  0  0  0  0  0
   24.4455   19.8112   -0.8054 C   0  0  1  0  0  0  0  0  0  0  0  0
   26.8225   24.4210    6.4780 C   0  0  0  0  0  0  0  0  0  0  0  0
   28.5483   21.1364   -5.5772 C   0  0  2  0  0  0  0  0  0  0  0  0
   27.3128   20.4379   -5.9378 N   0  0  0  0  0  0  0  0  0  0  0  0
   25.8020   23.8793   -1.1689 C   0  0  0  0  0  0  0  0  0  0  0  0
   27.4849   20.7430    0.6342 C   0  0  2  0  0  0  0  0  0  0  0  0
   27.4855   20.4526    2.1015 O   0  0  0  0  0  0  0  0  0  0  0  0
   23.1192   19.5922    0.1081 C   0  0  2  0  0  0  0  0  0  0  0  0
   22.9509   18.1258    0.3668 N   0  0  0  0  0  0  0  0  0  0  0  0
   27.2249   23.9566    7.7730 C   0  0  0  0  0  0  0  0  0  0  0  0
   27.5571   24.8953    8.7848 N   0  0  0  0  0  0  0  0  0  0  0  0
   29.7532   20.1206   -5.3083 C   0  0  1  0  0  0  0  0  0  0  0  0
   29.9500   19.3288   -6.4695 O   0  0  0  0  0  0  0  0  0  0  0  0
   26.3550   23.0998   -2.4942 C   0  0  2  0  0  0  0  0  0  0  0  0
   25.2722   22.5753   -3.2777 N   0  0  0  0  0  0  0  0  0  0  0  0
   26.8795   19.7222   -0.3478 C   0  0  2  0  0  0  0  0  0  0  0  0
   25.5613   19.2693   -0.0761 O   0  0  0  0  0  0  0  0  0  0  0  0
   21.8990   20.1628   -0.6759 C   0  0  1  0  0  0  0  0  0  0  0  0
   22.1633   21.5997   -0.8575 O   0  0  0  0  0  0  0  0  0  0  0  0
   27.5137   26.3039    8.5799 C   0  0  0  0  0  0  0  0  0  0  0  0
   31.0234   20.9437   -4.9462 C   0  0  2  0  0  0  0  0  0  0  0  0
   32.1784   20.0522   -4.6809 O   0  0  0  0  0  0  0  0  0  0  0  0
   27.3171   21.9185   -2.0604 C   0  0  2  0  0  0  0  0  0  0  0  0
   27.9352   18.5916   -0.3843 C   0  0  1  0  0  0  0  0  0  0  0  0
   21.7550   19.4059   -2.1085 C   0  0  2  0  0  0  0  0  0  0  0  0
   21.4911   17.9691   -1.9348 O   0  0  0  0  0  0  0  0  0  0  0  0
   27.1223   26.8219    7.3208 C   0  0  0  0  0  0  0  0  0  0  0  0
   30.7612   21.8227   -3.6632 C   0  0  2  0  0  0  0  0  0  0  0  0
   29.6216   22.6675   -3.9835 O   0  0  0  0  0  0  0  0  0  0  0  0
   28.4818   22.5382   -1.2128 C   0  0  2  0  0  0  0  0  0  0  0  0
   29.2788   21.4041   -0.8932 O   0  0  0  0  0  0  0  0  0  0  0  0
   28.1126   18.0049   -1.7838 C   0  0  0  0  0  0  0  0  0  0  0  0
   28.9590   18.7314   -2.6423 O   0  0  0  0  0  0  0  0  0  0  0  0
   23.0969   19.6060   -2.9523 C   0  0  1  0  0  0  0  0  0  0  0  0
   24.2604   19.0823   -2.1358 O   0  0  0  0  0  0  0  0  0  0  0  0
   26.7665   25.8835    6.2312 C   0  0  0  0  0  0  0  0  0  0  0  0
   31.9850   22.5910   -3.3839 C   0  0  0  0  0  0  0  0  0  0  0  0
   31.8719   23.1932   -2.1934 O   0  0  0  0  0  0  0  0  0  0  0  0
   27.9122   23.2598    0.0804 C   0  0  1  0  0  0  0  0  0  0  0  0
   28.9548   23.8121    0.8148 O   0  0  0  0  0  0  0  0  0  0  0  0
   27.8987   21.3413    3.2132 C   0  0  0  0  0  0  0  0  0  0  0  0
   22.9060   18.8560   -4.2987 C   0  0  0  0  0  0  0  0  0  0  0  0
   23.3376   19.6770   -5.4024 N   0  0  0  0  0  0  0  0  0  0  0  0
   27.0194   20.9965    4.4196 C   0  0  0  0  0  0  0  0  0  0  0  0
   27.2405   22.0081    5.5034 N   0  0  0  0  0  0  0  0  0  0  0  0
   26.4511   23.3363    5.3528 C   0  0  0  0  0  0  0  0  0  0  0  0
  1  2  1  1  0  0  0
  1  9  1  0  0  0  0
  1 35  1  0  0  0  0
  3  4  1  1  0  0  0
  3 11  1  0  0  0  0
  3 45  1  0  0  0  0
  5  6  1  0  0  0  0
  5 12  1  0  0  0  0
  5 37  1  6  0  0  0
  6 30  1  0  0  0  0
  7 14  1  0  0  0  0
  7 41  1  0  0  0  0
  7 23  1  1  0  0  0
  8 16  2  0  0  0  0
  8 42  1  0  0  0  0
  9 10  1  1  0  0  0
  9 18  1  0  0  0  0
 11 20  1  0  0  0  0
 12 13  1  1  0  0  0
 12 22  1  0  0  0  0
 13 47  1  0  0  0  0
 14 15  1  6  0  0  0
 14 24  1  0  0  0  0
 16 17  1  0  0  0  0
 17 26  2  0  0  0  0
 18 19  1  6  0  0  0
 18 27  1  0  0  0  0
 20 21  1  1  0  0  0
 20 29  1  0  0  0  0
 22 23  1  1  0  0  0
 22 30  1  0  0  0  0
 24 25  1  6  0  0  0
 24 31  1  0  0  0  0
 26 33  1  0  0  0  0
 27 28  1  1  0  0  0
 27 34  1  0  0  0  0
 29  2  1  6  0  0  0
 29 36  1  0  0  0  0
 30 38  1  6  0  0  0
 31 32  1  1  0  0  0
 31 40  1  0  0  0  0
 33 42  2  0  0  0  0
 34 35  1  0  0  0  0
 34 43  1  6  0  0  0
 36 37  1  1  0  0  0
 36 45  1  0  0  0  0
 38 39  1  0  0  0  0
 40 41  1  0  0  0  0
 40 48  1  6  0  0  0
 43 44  1  0  0  0  0
 45 46  1  1  0  0  0
 47 50  1  0  0  0  0
 48 49  1  0  0  0  0
 50 51  1  0  0  0  0
 51 52  1  0  0  0  0
 52  8  1  0  0  0  0
M  END
>  <CHROM.1>
-171.02617814,142.39233860,-156.79733371,77.53852314,147.53662624,101.23045591
49.20727734,-34.29603168,-170.77254214,-85.24168785,134.18363897,-171.01421778
81.82332735,-175.29740525,-30.55419582,27.06162359,21.42364143,-0.51354329
-1.51922561,0.35188003,1.17796667

>  <Name>
2be0_lig

>  <RI>
0

>  <Rbt.Current_Directory>
/home/itssahil/PROJECTS/Mol_Feturizer/New_Systems/rnas/2be0

>  <Rbt.Executable>
rbdock ($Id: //depot/dev/client3/rdock/2013.1/src/exe/rbdock.cxx#4 $)

>  <Rbt.Library>
libRbt.so (2013.1, Build901 2013/11/27)

>  <Rbt.Parameter_File>
/export/apps/rDock/src/rDock_2013.1_src/data/scripts/dock_solv.prm

>  <Rbt.Receptor>
prm/blind_docking_40.prm

>  <SCORE>
13.7315

>  <SCORE.INTER>
4.99525

>  <SCORE.INTER.CONST>
1

>  <SCORE.INTER.POLAR>
-0.651787

>  <SCORE.INTER.ROT>
15

>  <SCORE.INTER.SOLV>
31.0076

>  <SCORE.INTER.VDW>
-18.4331

>  <SCORE.INTER.norm>
0.0960625

>  <SCORE.INTRA>
-2.72302

>  <SCORE.INTRA.DIHEDRAL>
-17.1707

>  <SCORE.INTRA.DIHEDRAL.0>
47.8724

>  <SCORE.INTRA.POLAR>
0

>  <SCORE.INTRA.POLAR.0>
0

>  <SCORE.INTRA.REPUL>
0

>  <SCORE.INTRA.REPUL.0>
0

>  <SCORE.INTRA.SOLV>
0.784621

>  <SCORE.INTRA.SOLV.lig_0>
-115.677

>  <SCORE.INTRA.VDW>
5.46999

>  <SCORE.INTRA.VDW.0>
-7.4833

>  <SCORE.INTRA.norm>
-0.0523658

>  <SCORE.RESTR>
11.4593

>  <SCORE.RESTR.CAVITY>
11.4593

>  <SCORE.RESTR.norm>
0.220371

>  <SCORE.SYSTEM>
0

>  <SCORE.SYSTEM.CONST>
0

>  <SCORE.SYSTEM.DIHEDRAL>
0

>  <SCORE.SYSTEM.SOLV>
0

>  <SCORE.SYSTEM.norm>
0

>  <SCORE.heavy>
52

>  <SCORE.norm>
0.264068

>  <RMSD>
24.857

$$$$
2be0_lig
 OpenBabel11021811423D
libRbt.so/2013.1/901 2013/11/27
 52 56  0  0  0  0  0  0  0  0999 V2000
   25.8137   21.2292   -4.5406 C   0  0  2  0  0  0  0  0  0  0  0  0
   25.5305   19.8696   -4.3078 O   0  0  0  0  0  0  0  0  0  0  0  0
   21.7762   19.3135   -2.0792 C   0  0  2  0  0  0  0  0  0  0  0  0
   20.8451   18.8856   -0.9978 N   0  0  0  0  0  0  0  0  0  0  0  0
   25.3916   21.4655   -0.9457 C   0  0  2  0  0  0  0  0  0  0  0  0
   25.3159   22.6923   -0.1911 O   0  0  0  0  0  0  0  0  0  0  0  0
   29.4991   21.7789    0.1146 C   0  0  1  0  0  0  0  0  0  0  0  0
   27.1087   24.3555    5.1722 C   0  0  0  0  0  0  0  0  0  0  0  0
   25.8542   21.5491   -6.0904 C   0  0  2  0  0  0  0  0  0  0  0  0
   24.6065   21.1109   -6.7195 N   0  0  0  0  0  0  0  0  0  0  0  0
   22.5492   18.0343   -2.6399 C   0  0  0  0  0  0  0  0  0  0  0  0
   26.8751   21.0665   -0.9950 C   0  0  2  0  0  0  0  0  0  0  0  0
   27.0773   20.3140    0.2818 O   0  0  0  0  0  0  0  0  0  0  0  0
   30.9794   22.3900    0.3911 C   0  0  2  0  0  0  0  0  0  0  0  0
   31.7531   22.3740   -0.8922 N   0  0  0  0  0  0  0  0  0  0  0  0
   26.2457   25.3380    4.5848 C   0  0  0  0  0  0  0  0  0  0  0  0
   25.5782   26.2749    5.4164 N   0  0  0  0  0  0  0  0  0  0  0  0
   27.1333   20.8526   -6.7496 C   0  0  1  0  0  0  0  0  0  0  0  0
   27.1469   21.1449   -8.1383 O   0  0  0  0  0  0  0  0  0  0  0  0
   23.5935   18.4638   -3.8210 C   0  0  2  0  0  0  0  0  0  0  0  0
   24.2940   17.3211   -4.3356 N   0  0  0  0  0  0  0  0  0  0  0  0
   27.4906   22.4685   -1.1630 C   0  0  2  0  0  0  0  0  0  0  0  0
   28.8779   22.6007   -0.8901 O   0  0  0  0  0  0  0  0  0  0  0  0
   31.6702   21.5008    1.4686 C   0  0  1  0  0  0  0  0  0  0  0  0
   30.8400   21.6042    2.6800 O   0  0  0  0  0  0  0  0  0  0  0  0
   25.7196   26.2926    6.8334 C   0  0  0  0  0  0  0  0  0  0  0  0
   28.4096   21.3821   -6.0335 C   0  0  2  0  0  0  0  0  0  0  0  0
   29.6334   20.7665   -6.6014 O   0  0  0  0  0  0  0  0  0  0  0  0
   24.6356   19.5167   -3.2600 C   0  0  2  0  0  0  0  0  0  0  0  0
   26.5902   23.3627   -0.2777 C   0  0  1  0  0  0  0  0  0  0  0  0
   31.7597   19.9627    0.9468 C   0  0  2  0  0  0  0  0  0  0  0  0
   32.5879   19.8517   -0.2641 O   0  0  0  0  0  0  0  0  0  0  0  0
   26.5599   25.3465    7.4703 C   0  0  0  0  0  0  0  0  0  0  0  0
   28.3505   21.0547   -4.4919 C   0  0  2  0  0  0  0  0  0  0  0  0
   27.1337   21.6788   -3.9970 O   0  0  0  0  0  0  0  0  0  0  0  0
   23.8269   20.7442   -2.7138 C   0  0  2  0  0  0  0  0  0  0  0  0
   24.8505   21.6184   -2.2539 O   0  0  0  0  0  0  0  0  0  0  0  0
   26.3318   24.7318   -0.9047 C   0  0  0  0  0  0  0  0  0  0  0  0
   25.6276   24.7167   -2.1233 O   0  0  0  0  0  0  0  0  0  0  0  0
   30.2887   19.4190    0.6414 C   0  0  1  0  0  0  0  0  0  0  0  0
   29.6380   20.3370   -0.3727 O   0  0  0  0  0  0  0  0  0  0  0  0
   27.2784   24.3466    6.6466 C   0  0  0  0  0  0  0  0  0  0  0  0
   29.5684   21.5963   -3.8678 C   0  0  0  0  0  0  0  0  0  0  0  0
   30.6431   20.9877   -4.3847 O   0  0  0  0  0  0  0  0  0  0  0  0
   22.8465   20.2969   -1.5493 C   0  0  1  0  0  0  0  0  0  0  0  0
   22.1303   21.3931   -1.0834 O   0  0  0  0  0  0  0  0  0  0  0  0
   26.6415   20.6892    1.6477 C   0  0  0  0  0  0  0  0  0  0  0  0
   30.4372   17.9572    0.1386 C   0  0  0  0  0  0  0  0  0  0  0  0
   29.2012   17.4915   -0.4395 N   0  0  0  0  0  0  0  0  0  0  0  0
   27.4883   21.8908    2.0795 C   0  0  0  0  0  0  0  0  0  0  0  0
   26.8744   22.5239    3.2915 N   0  0  0  0  0  0  0  0  0  0  0  0
   27.8523   23.3089    4.2068 C   0  0  0  0  0  0  0  0  0  0  0  0
  1  2  1  6  0  0  0
  1  9  1  0  0  0  0
  1 35  1  0  0  0  0
  3  4  1  1  0  0  0
  3 11  1  0  0  0  0
  3 45  1  0  0  0  0
  5  6  1  0  0  0  0
  5 12  1  0  0  0  0
  5 37  1  6  0  0  0
  6 30  1  0  0  0  0
  7 14  1  0  0  0  0
  7 41  1  0  0  0  0
  7 23  1  6  0  0  0
  8 16  2  0  0  0  0
  8 42  1  0  0  0  0
  9 10  1  6  0  0  0
  9 18  1  0  0  0  0
 11 20  1  0  0  0  0
 12 13  1  1  0  0  0
 12 22  1  0  0  0  0
 13 47  1  0  0  0  0
 14 15  1  6  0  0  0
 14 24  1  0  0  0  0
 16 17  1  0  0  0  0
 17 26  2  0  0  0  0
 18 19  1  6  0  0  0
 18 27  1  0  0  0  0
 20 21  1  1  0  0  0
 20 29  1  0  0  0  0
 22 23  1  1  0  0  0
 22 30  1  0  0  0  0
 24 25  1  1  0  0  0
 24 31  1  0  0  0  0
 26 33  1  0  0  0  0
 27 28  1  6  0  0  0
 27 34  1  0  0  0  0
 29  2  1  6  0  0  0
 29 36  1  0  0  0  0
 30 38  1  6  0  0  0
 31 32  1  6  0  0  0
 31 40  1  0  0  0  0
 33 42  2  0  0  0  0
 34 35  1  0  0  0  0
 34 43  1  1  0  0  0
 36 37  1  1  0  0  0
 36 45  1  0  0  0  0
 38 39  1  0  0  0  0
 40 41  1  0  0  0  0
 40 48  1  6  0  0  0
 43 44  1  0  0  0  0
 45 46  1  6  0  0  0
 47 50  1  0  0  0  0
 48 49  1  0  0  0  0
 50 51  1  0  0  0  0
 51 52  1  0  0  0  0
 52  8  1  0  0  0  0
M  END
>  <CHROM.1>
-138.64178245,-125.65990373,-168.26515149,-46.64313339,-69.51241091,-32.18936219
132.61666046,-52.92781048,-62.42096729,-85.07826724,-167.17677900,166.03762705
154.42104378,160.35709121,-55.09170608,27.08028019,21.46788324,-0.96178154
1.74153793,0.04507292,-1.94149423

>  <Name>
2be0_lig

>  <RI>
0

>  <Rbt.Current_Directory>
/home/itssahil/PROJECTS/Mol_Feturizer/New_Systems/rnas/2be0

>  <Rbt.Executable>
rbdock ($Id: //depot/dev/client3/rdock/2013.1/src/exe/rbdock.cxx#4 $)

>  <Rbt.Library>
libRbt.so (2013.1, Build901 2013/11/27)

>  <Rbt.Parameter_File>
/export/apps/rDock/src/rDock_2013.1_src/data/scripts/dock_solv.prm

>  <Rbt.Receptor>
prm/blind_docking_40.prm

>  <SCORE>
4.96403

>  <SCORE.INTER>
-2.75188

>  <SCORE.INTER.CONST>
1

>  <SCORE.INTER.POLAR>
0

>  <SCORE.INTER.ROT>
15

>  <SCORE.INTER.SOLV>
25.9204

>  <SCORE.INTER.VDW>
-24.0747

>  <SCORE.INTER.norm>
-0.0529208

>  <SCORE.INTRA>
-1.5516

>  <SCORE.INTRA.DIHEDRAL>
-17.618

>  <SCORE.INTRA.DIHEDRAL.0>
47.8724

>  <SCORE.INTRA.POLAR>
0

>  <SCORE.INTRA.POLAR.0>
0

>  <SCORE.INTRA.REPUL>
0

>  <SCORE.INTRA.REPUL.0>
0

>  <SCORE.INTRA.SOLV>
0.87876

>  <SCORE.INTRA.SOLV.lig_0>
-115.677

>  <SCORE.INTRA.VDW>
6.818

>  <SCORE.INTRA.VDW.0>
-7.4833

>  <SCORE.INTRA.norm>
-0.0298385

>  <SCORE.RESTR>
9.26752

>  <SCORE.RESTR.CAVITY>
9.26752

>  <SCORE.RESTR.norm>
0.178221

>  <SCORE.SYSTEM>
0

>  <SCORE.SYSTEM.CONST>
0

>  <SCORE.SYSTEM.DIHEDRAL>
0

>  <SCORE.SYSTEM.SOLV>
0

>  <SCORE.SYSTEM.norm>
0

>  <SCORE.heavy>
52

>  <SCORE.norm>
0.0954621

>  <RMSD>
24.866

$$$$
2be0_lig
 OpenBabel11021811423D
libRbt.so/2013.1/901 2013/11/27
 52 56  0  0  0  0  0  0  0  0999 V2000
   28.4527   21.3038    1.3776 C   0  0  2  0  0  0  0  0  0  0  0  0
   28.3104   22.2701    0.3633 O   0  0  0  0  0  0  0  0  0  0  0  0
   24.2281   23.6548    1.2514 C   0  0  2  0  0  0  0  0  0  0  0  0
   22.9928   24.4857    1.1954 N   0  0  0  0  0  0  0  0  0  0  0  0
   25.1890   20.9684   -2.1166 C   0  0  2  0  0  0  0  0  0  0  0  0
   25.1746   19.5305   -2.0041 O   0  0  0  0  0  0  0  0  0  0  0  0
   27.6942   20.5438   -6.0342 C   0  0  1  0  0  0  0  0  0  0  0  0
   20.9617   18.2288   -1.6187 C   0  0  0  0  0  0  0  0  0  0  0  0
   29.7122   21.6083    2.2867 C   0  0  2  0  0  0  0  0  0  0  0  0
   29.6281   22.9741    2.8085 N   0  0  0  0  0  0  0  0  0  0  0  0
   25.4686   24.5873    1.6257 C   0  0  0  0  0  0  0  0  0  0  0  0
   25.4168   21.2943   -3.6013 C   0  0  2  0  0  0  0  0  0  0  0  0
   24.0405   21.2450   -4.1852 O   0  0  0  0  0  0  0  0  0  0  0  0
   27.4391   22.1448   -5.9207 C   0  0  2  0  0  0  0  0  0  0  0  0
   26.0929   22.4590   -6.4993 N   0  0  0  0  0  0  0  0  0  0  0  0
   20.8595   17.6599   -0.3070 C   0  0  0  0  0  0  0  0  0  0  0  0
   20.5206   18.4886    0.7945 N   0  0  0  0  0  0  0  0  0  0  0  0
   31.0515   21.3703    1.4468 C   0  0  1  0  0  0  0  0  0  0  0  0
   32.1671   21.6556    2.2764 O   0  0  0  0  0  0  0  0  0  0  0  0
   26.8488   23.7146    1.6835 C   0  0  2  0  0  0  0  0  0  0  0  0
   27.9725   24.5418    2.0217 N   0  0  0  0  0  0  0  0  0  0  0  0
   26.4296   20.1824   -3.9338 C   0  0  2  0  0  0  0  0  0  0  0  0
   26.6383   19.8898   -5.3077 O   0  0  0  0  0  0  0  0  0  0  0  0
   28.5688   22.8667   -6.7154 C   0  0  1  0  0  0  0  0  0  0  0  0
   29.8329   22.5022   -6.0545 O   0  0  0  0  0  0  0  0  0  0  0  0
   20.2726   19.8851    0.6667 C   0  0  0  0  0  0  0  0  0  0  0  0
   31.0653   19.8976    0.9435 C   0  0  2  0  0  0  0  0  0  0  0  0
   32.2869   19.6167    0.1511 O   0  0  0  0  0  0  0  0  0  0  0  0
   27.1039   23.0194    0.2831 C   0  0  2  0  0  0  0  0  0  0  0  0
   25.9220   18.9773   -3.1068 C   0  0  1  0  0  0  0  0  0  0  0  0
   28.5553   22.3802   -8.2675 C   0  0  2  0  0  0  0  0  0  0  0  0
   27.2946   22.7409   -8.9344 O   0  0  0  0  0  0  0  0  0  0  0  0
   20.3578   20.5031   -0.6052 C   0  0  0  0  0  0  0  0  0  0  0  0
   29.8036   19.6137    0.0408 C   0  0  2  0  0  0  0  0  0  0  0  0
   28.6451   19.9095    0.8685 O   0  0  0  0  0  0  0  0  0  0  0  0
   25.8560   22.1270   -0.0412 C   0  0  2  0  0  0  0  0  0  0  0  0
   26.1968   21.5502   -1.2960 O   0  0  0  0  0  0  0  0  0  0  0  0
   27.0644   18.1603   -2.5057 C   0  0  0  0  0  0  0  0  0  0  0  0
   27.5409   18.6104   -1.2601 O   0  0  0  0  0  0  0  0  0  0  0  0
   28.7605   20.7969   -8.3297 C   0  0  1  0  0  0  0  0  0  0  0  0
   27.6716   20.1387   -7.5077 O   0  0  0  0  0  0  0  0  0  0  0  0
   20.7092   19.6817   -1.7868 C   0  0  0  0  0  0  0  0  0  0  0  0
   29.8604   18.2061   -0.3854 C   0  0  0  0  0  0  0  0  0  0  0  0
   30.1470   18.1468   -1.6920 O   0  0  0  0  0  0  0  0  0  0  0  0
   24.5400   23.0099   -0.1198 C   0  0  1  0  0  0  0  0  0  0  0  0
   23.4425   22.2037   -0.3974 O   0  0  0  0  0  0  0  0  0  0  0  0
   23.2857   20.0605   -4.6581 C   0  0  0  0  0  0  0  0  0  0  0  0
   28.7277   20.3906   -9.8282 C   0  0  0  0  0  0  0  0  0  0  0  0
   27.4394   20.6839  -10.4053 N   0  0  0  0  0  0  0  0  0  0  0  0
   22.9142   19.2363   -3.4212 C   0  0  0  0  0  0  0  0  0  0  0  0
   22.3274   17.9262   -3.8526 N   0  0  0  0  0  0  0  0  0  0  0  0
   21.3455   17.2671   -2.8468 C   0  0  0  0  0  0  0  0  0  0  0  0
  1  2  1  6  0  0  0
  1  9  1  0  0  0  0
  1 35  1  0  0  0  0
  3  4  1  6  0  0  0
  3 11  1  0  0  0  0
  3 45  1  0  0  0  0
  5  6  1  0  0  0  0
  5 12  1  0  0  0  0
  5 37  1  1  0  0  0
  6 30  1  0  0  0  0
  7 14  1  0  0  0  0
  7 41  1  0  0  0  0
  7 23  1  1  0  0  0
  8 16  2  0  0  0  0
  8 42  1  0  0  0  0
  9 10  1  6  0  0  0
  9 18  1  0  0  0  0
 11 20  1  0  0  0  0
 12 13  1  6  0  0  0
 12 22  1  0  0  0  0
 13 47  1  0  0  0  0
 14 15  1  6  0  0  0
 14 24  1  0  0  0  0
 16 17  1  0  0  0  0
 17 26  2  0  0  0  0
 18 19  1  1  0  0  0
 18 27  1  0  0  0  0
 20 21  1  6  0  0  0
 20 29  1  0  0  0  0
 22 23  1  6  0  0  0
 22 30  1  0  0  0  0
 24 25  1  1  0  0  0
 24 31  1  0  0  0  0
 26 33  1  0  0  0  0
 27 28  1  6  0  0  0
 27 34  1  0  0  0  0
 29  2  1  1  0  0  0
 29 36  1  0  0  0  0
 30 38  1  1  0  0  0
 31 32  1  1  0  0  0
 31 40  1  0  0  0  0
 33 42  2  0  0  0  0
 34 35  1  0  0  0  0
 34 43  1  1  0  0  0
 36 37  1  6  0  0  0
 36 45  1  0  0  0  0
 38 39  1  0  0  0  0
 40 41  1  0  0  0  0
 40 48  1  6  0  0  0
 43 44  1  0  0  0  0
 45 46  1  1  0  0  0
 47 50  1  0  0  0  0
 48 49  1  0  0  0  0
 50 51  1  0  0  0  0
 51 52  1  0  0  0  0
 52  8  1  0  0  0  0
M  END
>  <CHROM.1>
-121.83667224,-100.53275196,-57.53520801,-83.87239153,69.91019770,92.61849955
55.02320418,-29.78525686,-109.05663797,-162.48033302,-63.13672725,-171.68284550
-153.49202307,8.99927909,-140.00242536,26.43399644,20.85504935,-2.20827188
-1.60530658,-0.17499026,-1.66047673

>  <Name>
2be0_lig

>  <RI>
0

>  <Rbt.Current_Directory>
/home/itssahil/PROJECTS/Mol_Feturizer/New_Systems/rnas/2be0

>  <Rbt.Executable>
rbdock ($Id: //depot/dev/client3/rdock/2013.1/src/exe/rbdock.cxx#4 $)

>  <Rbt.Library>
libRbt.so (2013.1, Build901 2013/11/27)

>  <Rbt.Parameter_File>
/export/apps/rDock/src/rDock_2013.1_src/data/scripts/dock_solv.prm

>  <Rbt.Receptor>
prm/blind_docking_40.prm

>  <SCORE>
50.5018

>  <SCORE.INTER>
19.7413

>  <SCORE.INTER.CONST>
1

>  <SCORE.INTER.POLAR>
-0.52911

>  <SCORE.INTER.ROT>
15

>  <SCORE.INTER.SOLV>
22.8849

>  <SCORE.INTER.VDW>
-6.30375

>  <SCORE.INTER.norm>
0.37964

>  <SCORE.INTRA>
6.35627

>  <SCORE.INTRA.DIHEDRAL>
-16.2942

>  <SCORE.INTRA.DIHEDRAL.0>
47.8724

>  <SCORE.INTRA.POLAR>
0

>  <SCORE.INTRA.POLAR.0>
0

>  <SCORE.INTRA.REPUL>
0

>  <SCORE.INTRA.REPUL.0>
0

>  <SCORE.INTRA.SOLV>
6.61308

>  <SCORE.INTRA.SOLV.lig_0>
-115.677

>  <SCORE.INTRA.VDW>
11.1968

>  <SCORE.INTRA.VDW.0>
-7.4833

>  <SCORE.INTRA.norm>
0.122236

>  <SCORE.RESTR>
24.4043

>  <SCORE.RESTR.CAVITY>
24.4043

>  <SCORE.RESTR.norm>
0.469313

>  <SCORE.SYSTEM>
0

>  <SCORE.SYSTEM.CONST>
0

>  <SCORE.SYSTEM.DIHEDRAL>
0

>  <SCORE.SYSTEM.SOLV>
0

>  <SCORE.SYSTEM.norm>
0

>  <SCORE.heavy>
52

>  <SCORE.norm>
0.971189

>  <RMSD>
24.893

$$$$
2be0_lig
 OpenBabel11021811423D
libRbt.so/2013.1/901 2013/11/27
 52 56  0  0  0  0  0  0  0  0999 V2000
   29.7914   19.2977   -2.3340 C   0  0  2  0  0  0  0  0  0  0  0  0
   29.0258   20.4577   -2.5594 O   0  0  0  0  0  0  0  0  0  0  0  0
   30.8144   23.1083    0.4649 C   0  0  2  0  0  0  0  0  0  0  0  0
   31.0679   24.3352    1.2712 N   0  0  0  0  0  0  0  0  0  0  0  0
   26.6850   21.7243   -0.1574 C   0  0  2  0  0  0  0  0  0  0  0  0
   25.4548   21.0567   -0.5057 O   0  0  0  0  0  0  0  0  0  0  0  0
   26.1440   22.1731   -4.9168 C   0  0  1  0  0  0  0  0  0  0  0  0
   26.1580   25.4470    4.6971 C   0  0  0  0  0  0  0  0  0  0  0  0
   28.8734   18.0764   -1.9200 C   0  0  2  0  0  0  0  0  0  0  0  0
   27.8255   17.8814   -2.9242 N   0  0  0  0  0  0  0  0  0  0  0  0
   30.9972   23.4532   -1.0830 C   0  0  0  0  0  0  0  0  0  0  0  0
   26.9155   22.8109   -1.2197 C   0  0  2  0  0  0  0  0  0  0  0  0
   26.1210   23.9715   -0.7107 O   0  0  0  0  0  0  0  0  0  0  0  0
   27.4699   21.2361   -4.9893 C   0  0  2  0  0  0  0  0  0  0  0  0
   28.6784   22.0966   -4.7779 N   0  0  0  0  0  0  0  0  0  0  0  0
   26.7344   26.0482    5.8638 C   0  0  0  0  0  0  0  0  0  0  0  0
   26.0016   27.0261    6.5859 N   0  0  0  0  0  0  0  0  0  0  0  0
   28.2661   18.3303   -0.4631 C   0  0  1  0  0  0  0  0  0  0  0  0
   27.4414   17.2292   -0.1144 O   0  0  0  0  0  0  0  0  0  0  0  0
   30.7132   22.1342   -2.0048 C   0  0  2  0  0  0  0  0  0  0  0  0
   30.8766   22.4307   -3.4000 N   0  0  0  0  0  0  0  0  0  0  0  0
   26.4298   22.0355   -2.4590 C   0  0  2  0  0  0  0  0  0  0  0  0
   26.1315   22.7968   -3.6200 O   0  0  0  0  0  0  0  0  0  0  0  0
   27.5042   20.5639   -6.3950 C   0  0  1  0  0  0  0  0  0  0  0  0
   26.2888   19.7380   -6.4848 O   0  0  0  0  0  0  0  0  0  0  0  0
   24.6974   27.4543    6.2066 C   0  0  0  0  0  0  0  0  0  0  0  0
   29.4427   18.5132    0.5390 C   0  0  2  0  0  0  0  0  0  0  0  0
   28.9398   18.7570    1.9126 O   0  0  0  0  0  0  0  0  0  0  0  0
   29.2440   21.6025   -1.7437 C   0  0  2  0  0  0  0  0  0  0  0  0
   25.2316   21.2171   -1.9217 C   0  0  1  0  0  0  0  0  0  0  0  0
   27.5279   21.7030   -7.5560 C   0  0  2  0  0  0  0  0  0  0  0  0
   28.7399   22.5328   -7.4722 O   0  0  0  0  0  0  0  0  0  0  0  0
   24.0761   26.8948    5.0630 C   0  0  0  0  0  0  0  0  0  0  0  0
   30.3454   19.7332    0.1097 C   0  0  2  0  0  0  0  0  0  0  0  0
   30.8021   19.4375   -1.2389 O   0  0  0  0  0  0  0  0  0  0  0  0
   29.1145   21.2900   -0.2125 C   0  0  2  0  0  0  0  0  0  0  0  0
   27.7787   20.8145   -0.0984 O   0  0  0  0  0  0  0  0  0  0  0  0
   25.1667   19.8147   -2.5244 C   0  0  0  0  0  0  0  0  0  0  0  0
   26.0045   19.5927   -3.6335 O   0  0  0  0  0  0  0  0  0  0  0  0
   26.2336   22.6296   -7.4176 C   0  0  1  0  0  0  0  0  0  0  0  0
   26.2150   23.2239   -6.0243 O   0  0  0  0  0  0  0  0  0  0  0  0
   24.7998   25.8707    4.2745 C   0  0  0  0  0  0  0  0  0  0  0  0
   31.4481   19.8424    1.0784 C   0  0  0  0  0  0  0  0  0  0  0  0
   32.1563   18.7061    1.0781 O   0  0  0  0  0  0  0  0  0  0  0  0
   29.3659   22.5976    0.6503 C   0  0  1  0  0  0  0  0  0  0  0  0
   29.2579   22.3021    2.0040 O   0  0  0  0  0  0  0  0  0  0  0  0
   26.5498   25.0381    0.2246 C   0  0  0  0  0  0  0  0  0  0  0  0
   26.3161   23.7001   -8.5396 C   0  0  0  0  0  0  0  0  0  0  0  0
   26.6416   23.0866   -9.8031 N   0  0  0  0  0  0  0  0  0  0  0  0
   27.3545   24.3651    1.3412 C   0  0  0  0  0  0  0  0  0  0  0  0
   26.4437   24.0405    2.4865 N   0  0  0  0  0  0  0  0  0  0  0  0
   27.0095   24.3422    3.9004 C   0  0  0  0  0  0  0  0  0  0  0  0
  1  2  1  1  0  0  0
  1  9  1  0  0  0  0
  1 35  1  0  0  0  0
  3  4  1  1  0  0  0
  3 11  1  0  0  0  0
  3 45  1  0  0  0  0
  5  6  1  0  0  0  0
  5 12  1  0  0  0  0
  5 37  1  6  0  0  0
  6 30  1  0  0  0  0
  7 14  1  0  0  0  0
  7 41  1  0  0  0  0
  7 23  1  1  0  0  0
  8 16  2  0  0  0  0
  8 42  1  0  0  0  0
  9 10  1  6  0  0  0
  9 18  1  0  0  0  0
 11 20  1  0  0  0  0
 12 13  1  1  0  0  0
 12 22  1  0  0  0  0
 13 47  1  0  0  0  0
 14 15  1  6  0  0  0
 14 24  1  0  0  0  0
 16 17  1  0  0  0  0
 17 26  2  0  0  0  0
 18 19  1  1  0  0  0
 18 27  1  0  0  0  0
 20 21  1  6  0  0  0
 20 29  1  0  0  0  0
 22 23  1  6  0  0  0
 22 30  1  0  0  0  0
 24 25  1  6  0  0  0
 24 31  1  0  0  0  0
 26 33  1  0  0  0  0
 27 28  1  1  0  0  0
 27 34  1  0  0  0  0
 29  2  1  6  0  0  0
 29 36  1  0  0  0  0
 30 38  1  6  0  0  0
 31 32  1  1  0  0  0
 31 40  1  0  0  0  0
 33 42  2  0  0  0  0
 34 35  1  0  0  0  0
 34 43  1  1  0  0  0
 36 37  1  6  0  0  0
 36 45  1  0  0  0  0
 38 39  1  0  0  0  0
 40 41  1  0  0  0  0
 40 48  1  6  0  0  0
 43 44  1  0  0  0  0
 45 46  1  1  0  0  0
 47 50  1  0  0  0  0
 48 49  1  0  0  0  0
 50 51  1  0  0  0  0
 51 52  1  0  0  0  0
 52  8  1  0  0  0  0
M  END
>  <CHROM.1>
118.09910147,159.16595723,-44.03981882,87.83452780,-42.24377263,157.60257500
64.48467909,-128.57218169,59.45737652,-75.09012307,47.09483658,-93.31668970
-137.40244184,117.46523639,-165.40074231,27.80616629,21.95275589,-1.23416056
-1.47054548,-0.90849302,1.30300330

>  <Name>
2be0_lig

>  <RI>
0

>  <Rbt.Current_Directory>
/home/itssahil/PROJECTS/Mol_Feturizer/New_Systems/rnas/2be0

>  <Rbt.Executable>
rbdock ($Id: //depot/dev/client3/rdock/2013.1/src/exe/rbdock.cxx#4 $)

>  <Rbt.Library>
libRbt.so (2013.1, Build901 2013/11/27)

>  <Rbt.Parameter_File>
/export/apps/rDock/src/rDock_2013.1_src/data/scripts/dock_solv.prm

>  <Rbt.Receptor>
prm/blind_docking_40.prm

>  <SCORE>
29.282

>  <SCORE.INTER>
-4.1445

>  <SCORE.INTER.CONST>
1

>  <SCORE.INTER.POLAR>
-0.348739

>  <SCORE.INTER.ROT>
15

>  <SCORE.INTER.SOLV>
26.6988

>  <SCORE.INTER.VDW>
-24.1002

>  <SCORE.INTER.norm>
-0.079702

>  <SCORE.INTRA>
23.5058

>  <SCORE.INTRA.DIHEDRAL>
-17.7809

>  <SCORE.INTRA.DIHEDRAL.0>
47.8724

>  <SCORE.INTRA.POLAR>
0

>  <SCORE.INTRA.POLAR.0>
0

>  <SCORE.INTRA.REPUL>
0

>  <SCORE.INTRA.REPUL.0>
0

>  <SCORE.INTRA.SOLV>
12.8078

>  <SCORE.INTRA.SOLV.lig_0>
-115.677

>  <SCORE.INTRA.VDW>
25.9923

>  <SCORE.INTRA.VDW.0>
-7.4833

>  <SCORE.INTRA.norm>
0.452034

>  <SCORE.RESTR>
9.92075

>  <SCORE.RESTR.CAVITY>
9.92075

>  <SCORE.RESTR.norm>
0.190784

>  <SCORE.SYSTEM>
0

>  <SCORE.SYSTEM.CONST>
0

>  <SCORE.SYSTEM.DIHEDRAL>
0

>  <SCORE.SYSTEM.SOLV>
0

>  <SCORE.SYSTEM.norm>
0

>  <SCORE.heavy>
52

>  <SCORE.norm>
0.563116

>  <RMSD>
24.945

$$$$
2be0_lig
 OpenBabel11021811423D
libRbt.so/2013.1/901 2013/11/27
 52 56  0  0  0  0  0  0  0  0999 V2000
   26.4784   21.5421   -3.1878 C   0  0  2  0  0  0  0  0  0  0  0  0
   27.4495   20.5710   -2.8766 O   0  0  0  0  0  0  0  0  0  0  0  0
   26.6810   18.2147    0.7604 C   0  0  2  0  0  0  0  0  0  0  0  0
   26.8447   17.6932    2.1463 N   0  0  0  0  0  0  0  0  0  0  0  0
   25.9856   22.4404    0.4324 C   0  0  2  0  0  0  0  0  0  0  0  0
   25.4367   23.7570    0.2189 O   0  0  0  0  0  0  0  0  0  0  0  0
   30.2085   23.9359    0.8324 C   0  0  1  0  0  0  0  0  0  0  0  0
   26.7962   24.4610    7.1215 C   0  0  0  0  0  0  0  0  0  0  0  0
   25.1448   20.8710   -3.7140 C   0  0  2  0  0  0  0  0  0  0  0  0
   24.6712   19.8821   -2.7433 N   0  0  0  0  0  0  0  0  0  0  0  0
   28.0377   17.9837   -0.0485 C   0  0  0  0  0  0  0  0  0  0  0  0
   27.4006   22.6370    0.9995 C   0  0  2  0  0  0  0  0  0  0  0  0
   27.1693   22.7979    2.4685 O   0  0  0  0  0  0  0  0  0  0  0  0
   31.1521   24.2526   -0.4523 C   0  0  2  0  0  0  0  0  0  0  0  0
   30.4717   23.7416   -1.6858 N   0  0  0  0  0  0  0  0  0  0  0  0
   25.9640   25.3824    6.4050 C   0  0  0  0  0  0  0  0  0  0  0  0
   26.0754   26.7746    6.6589 N   0  0  0  0  0  0  0  0  0  0  0  0
   25.4010   20.2222   -5.1525 C   0  0  1  0  0  0  0  0  0  0  0  0
   24.1971   19.6203   -5.6024 O   0  0  0  0  0  0  0  0  0  0  0  0
   27.9043   18.5562   -1.5731 C   0  0  2  0  0  0  0  0  0  0  0  0
   29.1181   18.3523   -2.3124 N   0  0  0  0  0  0  0  0  0  0  0  0
   27.8264   23.8523    0.1541 C   0  0  2  0  0  0  0  0  0  0  0  0
   28.9483   24.5939    0.6100 O   0  0  0  0  0  0  0  0  0  0  0  0
   32.5175   23.5341   -0.2315 C   0  0  1  0  0  0  0  0  0  0  0  0
   33.0983   24.1219    0.9869 O   0  0  0  0  0  0  0  0  0  0  0  0
   26.9867   27.3191    7.6082 C   0  0  0  0  0  0  0  0  0  0  0  0
   25.8869   21.3399   -6.1204 C   0  0  2  0  0  0  0  0  0  0  0  0
   26.1461   20.7957   -7.4754 O   0  0  0  0  0  0  0  0  0  0  0  0
   27.5573   20.1014   -1.5383 C   0  0  2  0  0  0  0  0  0  0  0  0
   26.5270   24.6853    0.0457 C   0  0  1  0  0  0  0  0  0  0  0  0
   32.2824   21.9340   -0.0579 C   0  0  2  0  0  0  0  0  0  0  0  0
   31.7016   21.3397   -1.2719 O   0  0  0  0  0  0  0  0  0  0  0  0
   27.8355   26.4574    8.3458 C   0  0  0  0  0  0  0  0  0  0  0  0
   27.2151   21.9961   -5.5793 C   0  0  2  0  0  0  0  0  0  0  0  0
   26.8986   22.5046   -4.2541 O   0  0  0  0  0  0  0  0  0  0  0  0
   26.2271   20.2737   -0.7259 C   0  0  2  0  0  0  0  0  0  0  0  0
   26.0088   21.6786   -0.7704 O   0  0  0  0  0  0  0  0  0  0  0  0
   26.3559   25.3216   -1.3328 C   0  0  0  0  0  0  0  0  0  0  0  0
   25.7976   24.4877   -2.3197 O   0  0  0  0  0  0  0  0  0  0  0  0
   31.3121   21.6713    1.1841 C   0  0  1  0  0  0  0  0  0  0  0  0
   30.0185   22.4240    0.9507 O   0  0  0  0  0  0  0  0  0  0  0  0
   27.7573   24.9958    8.1181 C   0  0  0  0  0  0  0  0  0  0  0  0
   27.6121   23.0552   -6.5210 C   0  0  0  0  0  0  0  0  0  0  0  0
   27.9651   22.5042   -7.6892 O   0  0  0  0  0  0  0  0  0  0  0  0
   26.4014   19.7362    0.7567 C   0  0  1  0  0  0  0  0  0  0  0  0
   25.2121   19.8863    1.4598 O   0  0  0  0  0  0  0  0  0  0  0  0
   28.1032   22.5087    3.5822 C   0  0  0  0  0  0  0  0  0  0  0  0
   31.1161   20.1347    1.2935 C   0  0  0  0  0  0  0  0  0  0  0  0
   32.2898   19.5120    1.8534 N   0  0  0  0  0  0  0  0  0  0  0  0
   27.3273   21.6979    4.6253 C   0  0  0  0  0  0  0  0  0  0  0  0
   26.3442   22.5905    5.3206 N   0  0  0  0  0  0  0  0  0  0  0  0
   26.6496   22.8915    6.8127 C   0  0  0  0  0  0  0  0  0  0  0  0
  1  2  1  6  0  0  0
  1  9  1  0  0  0  0
  1 35  1  0  0  0  0
  3  4  1  1  0  0  0
  3 11  1  0  0  0  0
  3 45  1  0  0  0  0
  5  6  1  0  0  0  0
  5 12  1  0  0  0  0
  5 37  1  6  0  0  0
  6 30  1  0  0  0  0
  7 14  1  0  0  0  0
  7 41  1  0  0  0  0
  7 23  1  6  0  0  0
  8 16  2  0  0  0  0
  8 42  1  0  0  0  0
  9 10  1  1  0  0  0
  9 18  1  0  0  0  0
 11 20  1  0  0  0  0
 12 13  1  1  0  0  0
 12 22  1  0  0  0  0
 13 47  1  0  0  0  0
 14 15  1  6  0  0  0
 14 24  1  0  0  0  0
 16 17  1  0  0  0  0
 17 26  2  0  0  0  0
 18 19  1  6  0  0  0
 18 27  1  0  0  0  0
 20 21  1  6  0  0  0
 20 29  1  0  0  0  0
 22 23  1  1  0  0  0
 22 30  1  0  0  0  0
 24 25  1  1  0  0  0
 24 31  1  0  0  0  0
 26 33  1  0  0  0  0
 27 28  1  6  0  0  0
 27 34  1  0  0  0  0
 29  2  1  6  0  0  0
 29 36  1  0  0  0  0
 30 38  1  6  0  0  0
 31 32  1  6  0  0  0
 31 40  1  0  0  0  0
 33 42  2  0  0  0  0
 34 35  1  0  0  0  0
 34 43  1  6  0  0  0
 36 37  1  1  0  0  0
 36 45  1  0  0  0  0
 38 39  1  0  0  0  0
 40 41  1  0  0  0  0
 40 48  1  6  0  0  0
 43 44  1  0  0  0  0
 45 46  1  1  0  0  0
 47 50  1  0  0  0  0
 48 49  1  0  0  0  0
 50 51  1  0  0  0  0
 51 52  1  0  0  0  0
 52  8  1  0  0  0  0
M  END
>  <CHROM.1>
-94.23305804,-165.91147701,100.99048542,154.29198202,-132.51790507,55.89086257
143.32696528,-33.20240501,-66.97954027,-118.21071538,75.43132586,-71.93322856
-111.25078222,122.17063182,35.44991416,27.73609794,22.17267048,0.02602171
1.65296071,-0.07032836,-1.87918296

>  <Name>
2be0_lig

>  <RI>
0

>  <Rbt.Current_Directory>
/home/itssahil/PROJECTS/Mol_Feturizer/New_Systems/rnas/2be0

>  <Rbt.Executable>
rbdock ($Id: //depot/dev/client3/rdock/2013.1/src/exe/rbdock.cxx#4 $)

>  <Rbt.Library>
libRbt.so (2013.1, Build901 2013/11/27)

>  <Rbt.Parameter_File>
/export/apps/rDock/src/rDock_2013.1_src/data/scripts/dock_solv.prm

>  <Rbt.Receptor>
prm/blind_docking_40.prm

>  <SCORE>
18.5439

>  <SCORE.INTER>
-2.7149

>  <SCORE.INTER.CONST>
1

>  <SCORE.INTER.POLAR>
-0.0342844

>  <SCORE.INTER.ROT>
15

>  <SCORE.INTER.SOLV>
31.6977

>  <SCORE.INTER.VDW>
-25.8616

>  <SCORE.INTER.norm>
-0.0522096

>  <SCORE.INTRA>
5.62765

>  <SCORE.INTRA.DIHEDRAL>
-8.71701

>  <SCORE.INTRA.DIHEDRAL.0>
47.8724

>  <SCORE.INTRA.POLAR>
0

>  <SCORE.INTRA.POLAR.0>
0

>  <SCORE.INTRA.REPUL>
0.2886

>  <SCORE.INTRA.REPUL.0>
0

>  <SCORE.INTRA.SOLV>
2.26408

>  <SCORE.INTRA.SOLV.lig_0>
-115.677

>  <SCORE.INTRA.VDW>
7.41111

>  <SCORE.INTRA.VDW.0>
-7.4833

>  <SCORE.INTRA.norm>
0.108224

>  <SCORE.RESTR>
15.6312

>  <SCORE.RESTR.CAVITY>
15.6312

>  <SCORE.RESTR.norm>
0.3006

>  <SCORE.SYSTEM>
0

>  <SCORE.SYSTEM.CONST>
0

>  <SCORE.SYSTEM.DIHEDRAL>
0

>  <SCORE.SYSTEM.SOLV>
0

>  <SCORE.SYSTEM.norm>
0

>  <SCORE.heavy>
52

>  <SCORE.norm>
0.356614

>  <RMSD>
24.973

$$$$
2be0_lig
 OpenBabel11021811423D
libRbt.so/2013.1/901 2013/11/27
 52 56  0  0  0  0  0  0  0  0999 V2000
   29.7081   21.4253   -3.0699 C   0  0  2  0  0  0  0  0  0  0  0  0
   30.2970   21.6146   -1.8049 O   0  0  0  0  0  0  0  0  0  0  0  0
   29.9842   24.4356    1.5589 C   0  0  2  0  0  0  0  0  0  0  0  0
   29.4383   25.5132    2.4308 N   0  0  0  0  0  0  0  0  0  0  0  0
   28.0265   20.4867    1.5391 C   0  0  2  0  0  0  0  0  0  0  0  0
   28.1583   19.0555    1.6604 O   0  0  0  0  0  0  0  0  0  0  0  0
   23.8926   19.7814   -0.5449 C   0  0  1  0  0  0  0  0  0  0  0  0
   26.6206   24.8262    7.4059 C   0  0  0  0  0  0  0  0  0  0  0  0
   28.1480   21.1878   -2.9463 C   0  0  2  0  0  0  0  0  0  0  0  0
   27.5380   22.2851   -2.1922 N   0  0  0  0  0  0  0  0  0  0  0  0
   30.1633   25.0025    0.0774 C   0  0  0  0  0  0  0  0  0  0  0  0
   26.5222   20.7861    1.4395 C   0  0  2  0  0  0  0  0  0  0  0  0
   26.0830   20.8492    2.8679 O   0  0  0  0  0  0  0  0  0  0  0  0
   22.3445   19.5474   -0.1088 C   0  0  2  0  0  0  0  0  0  0  0  0
   22.1247   18.0820    0.1148 N   0  0  0  0  0  0  0  0  0  0  0  0
   27.7073   25.4561    8.0966 C   0  0  0  0  0  0  0  0  0  0  0  0
   27.6087   26.8238    8.4639 N   0  0  0  0  0  0  0  0  0  0  0  0
   27.8728   19.7681   -2.2648 C   0  0  1  0  0  0  0  0  0  0  0  0
   26.4706   19.5782   -2.1564 O   0  0  0  0  0  0  0  0  0  0  0  0
   30.7480   23.8444   -0.9161 C   0  0  2  0  0  0  0  0  0  0  0  0
   30.9159   24.3425   -2.2521 N   0  0  0  0  0  0  0  0  0  0  0  0
   26.1020   19.5921    0.5616 C   0  0  2  0  0  0  0  0  0  0  0  0
   24.7179   19.2772    0.5206 O   0  0  0  0  0  0  0  0  0  0  0  0
   21.4380   20.0769   -1.2607 C   0  0  1  0  0  0  0  0  0  0  0  0
   21.7238   21.5162   -1.3794 O   0  0  0  0  0  0  0  0  0  0  0  0
   26.4657   27.6232    8.1766 C   0  0  0  0  0  0  0  0  0  0  0  0
   28.5416   18.6637   -3.1338 C   0  0  2  0  0  0  0  0  0  0  0  0
   28.3231   17.3192   -2.5476 O   0  0  0  0  0  0  0  0  0  0  0  0
   29.7638   22.6032   -0.9322 C   0  0  2  0  0  0  0  0  0  0  0  0
   26.9921   18.4371    1.0790 C   0  0  1  0  0  0  0  0  0  0  0  0
   21.7816   19.2933   -2.6441 C   0  0  2  0  0  0  0  0  0  0  0  0
   21.4987   17.8538   -2.5327 O   0  0  0  0  0  0  0  0  0  0  0  0
   25.3601   27.0550    7.4970 C   0  0  0  0  0  0  0  0  0  0  0  0
   30.0942   18.9176   -3.2456 C   0  0  2  0  0  0  0  0  0  0  0  0
   30.2418   20.2453   -3.8203 O   0  0  0  0  0  0  0  0  0  0  0  0
   29.6144   22.0933    0.5431 C   0  0  2  0  0  0  0  0  0  0  0  0
   28.7319   20.9859    0.4074 O   0  0  0  0  0  0  0  0  0  0  0  0
   27.4835   17.5302   -0.0479 C   0  0  0  0  0  0  0  0  0  0  0  0
   28.8671   17.5759   -0.3025 O   0  0  0  0  0  0  0  0  0  0  0  0
   23.3220   19.5098   -3.0088 C   0  0  1  0  0  0  0  0  0  0  0  0
   24.1636   19.0264   -1.8457 O   0  0  0  0  0  0  0  0  0  0  0  0
   25.4141   25.6313    7.0912 C   0  0  0  0  0  0  0  0  0  0  0  0
   30.6655   17.8584   -4.0928 C   0  0  0  0  0  0  0  0  0  0  0  0
   31.4381   18.4103   -5.0369 O   0  0  0  0  0  0  0  0  0  0  0  0
   29.0164   23.2317    1.4725 C   0  0  1  0  0  0  0  0  0  0  0  0
   28.8999   22.7679    2.7774 O   0  0  0  0  0  0  0  0  0  0  0  0
   26.9181   21.0362    4.0779 C   0  0  0  0  0  0  0  0  0  0  0  0
   23.5931   18.7335   -4.3261 C   0  0  0  0  0  0  0  0  0  0  0  0
   23.3556   19.5776   -5.4706 N   0  0  0  0  0  0  0  0  0  0  0  0
   26.0135   21.6226    5.1666 C   0  0  0  0  0  0  0  0  0  0  0  0
   26.4715   23.0099    5.5018 N   0  0  0  0  0  0  0  0  0  0  0  0
   26.7591   23.2771    7.0038 C   0  0  0  0  0  0  0  0  0  0  0  0
  1  2  1  1  0  0  0
  1  9  1  0  0  0  0
  1 35  1  0  0  0  0
  3  4  1  1  0  0  0
  3 11  1  0  0  0  0
  3 45  1  0  0  0  0
  5  6  1  0  0  0  0
  5 12  1  0  0  0  0
  5 37  1  6  0  0  0
  6 30  1  0  0  0  0
  7 14  1  0  0  0  0
  7 41  1  0  0  0  0
  7 23  1  1  0  0  0
  8 16  2  0  0  0  0
  8 42  1  0  0  0  0
  9 10  1  1  0  0  0
  9 18  1  0  0  0  0
 11 20  1  0  0  0  0
 12 13  1  1  0  0  0
 12 22  1  0  0  0  0
 13 47  1  0  0  0  0
 14 15  1  6  0  0  0
 14 24  1  0  0  0  0
 16 17  1  0  0  0  0
 17 26  2  0  0  0  0
 18 19  1  6  0  0  0
 18 27  1  0  0  0  0
 20 21  1  6  0  0  0
 20 29  1  0  0  0  0
 22 23  1  1  0  0  0
 22 30  1  0  0  0  0
 24 25  1  6  0  0  0
 24 31  1  0  0  0  0
 26 33  1  0  0  0  0
 27 28  1  1  0  0  0
 27 34  1  0  0  0  0
 29  2  1  6  0  0  0
 29 36  1  0  0  0  0
 30 38  1  6  0  0  0
 31 32  1  1  0  0  0
 31 40  1  0  0  0  0
 33 42  2  0  0  0  0
 34 35  1  0  0  0  0
 34 43  1  6  0  0  0
 36 37  1  6  0  0  0
 36 45  1  0  0  0  0
 38 39  1  0  0  0  0
 40 41  1  0  0  0  0
 40 48  1  6  0  0  0
 43 44  1  0  0  0  0
 45 46  1  1  0  0  0
 47 50  1  0  0  0  0
 48 49  1  0  0  0  0
 50 51  1  0  0  0  0
 51 52  1  0  0  0  0
 52  8  1  0  0  0  0
M  END
>  <CHROM.1>
-52.99177354,-130.52513331,-166.67512904,18.29766672,155.97434912,95.85587430
-105.35782647,-3.96260295,130.43951445,-161.15851728,89.88587117,-114.46408694
-126.02750869,-155.13644272,-127.75420418,27.01115003,21.16817827,0.37654701
-1.63346235,0.29357516,1.01124495

>  <Name>
2be0_lig

>  <RI>
0

>  <Rbt.Current_Directory>
/home/itssahil/PROJECTS/Mol_Feturizer/New_Systems/rnas/2be0

>  <Rbt.Executable>
rbdock ($Id: //depot/dev/client3/rdock/2013.1/src/exe/rbdock.cxx#4 $)

>  <Rbt.Library>
libRbt.so (2013.1, Build901 2013/11/27)

>  <Rbt.Parameter_File>
/export/apps/rDock/src/rDock_2013.1_src/data/scripts/dock_solv.prm

>  <Rbt.Receptor>
prm/blind_docking_40.prm

>  <SCORE>
31.9073

>  <SCORE.INTER>
8.3298

>  <SCORE.INTER.CONST>
1

>  <SCORE.INTER.POLAR>
-0.749724

>  <SCORE.INTER.ROT>
15

>  <SCORE.INTER.SOLV>
33.6907

>  <SCORE.INTER.VDW>
-16.778

>  <SCORE.INTER.norm>
0.160189

>  <SCORE.INTRA>
10.4085

>  <SCORE.INTRA.DIHEDRAL>
0.735681

>  <SCORE.INTRA.DIHEDRAL.0>
47.8724

>  <SCORE.INTRA.POLAR>
0

>  <SCORE.INTRA.POLAR.0>
0

>  <SCORE.INTRA.REPUL>
0.069995

>  <SCORE.INTRA.REPUL.0>
0

>  <SCORE.INTRA.SOLV>
4.08763

>  <SCORE.INTRA.SOLV.lig_0>
-115.677

>  <SCORE.INTRA.VDW>
7.64684

>  <SCORE.INTRA.VDW.0>
-7.4833

>  <SCORE.INTRA.norm>
0.200163

>  <SCORE.RESTR>
13.169

>  <SCORE.RESTR.CAVITY>
13.169

>  <SCORE.RESTR.norm>
0.25325

>  <SCORE.SYSTEM>
0

>  <SCORE.SYSTEM.CONST>
0

>  <SCORE.SYSTEM.DIHEDRAL>
0

>  <SCORE.SYSTEM.SOLV>
0

>  <SCORE.SYSTEM.norm>
0

>  <SCORE.heavy>
52

>  <SCORE.norm>
0.613601

>  <RMSD>
25.004

$$$$
2be0_lig
 OpenBabel11021811423D
libRbt.so/2013.1/901 2013/11/27
 52 56  0  0  0  0  0  0  0  0999 V2000
   28.9189   20.9497   -5.6752 C   0  0  2  0  0  0  0  0  0  0  0  0
   29.3288   22.2289   -5.2528 O   0  0  0  0  0  0  0  0  0  0  0  0
   32.1539   21.0993   -2.0725 C   0  0  2  0  0  0  0  0  0  0  0  0
   33.1163   21.2433   -0.9444 N   0  0  0  0  0  0  0  0  0  0  0  0
   27.8822   21.8381   -1.3298 C   0  0  2  0  0  0  0  0  0  0  0  0
   27.8498   20.4462   -0.9531 O   0  0  0  0  0  0  0  0  0  0  0  0
   23.6783   19.7103   -1.7403 C   0  0  1  0  0  0  0  0  0  0  0  0
   26.4296   25.8323    5.4550 C   0  0  0  0  0  0  0  0  0  0  0  0
   28.7357   20.8963   -7.2466 C   0  0  2  0  0  0  0  0  0  0  0  0
   29.9641   21.3471   -7.9042 N   0  0  0  0  0  0  0  0  0  0  0  0
   32.6782   21.9486   -3.3184 C   0  0  0  0  0  0  0  0  0  0  0  0
   26.4306   22.3420   -1.2887 C   0  0  2  0  0  0  0  0  0  0  0  0
   26.2311   22.7167    0.1455 O   0  0  0  0  0  0  0  0  0  0  0  0
   23.1154   19.5523   -3.2568 C   0  0  2  0  0  0  0  0  0  0  0  0
   22.1636   20.6758   -3.5353 N   0  0  0  0  0  0  0  0  0  0  0  0
   25.5821   26.7107    4.7034 C   0  0  0  0  0  0  0  0  0  0  0  0
   25.1379   27.9272    5.2848 N   0  0  0  0  0  0  0  0  0  0  0  0
   27.4717   21.7785   -7.6706 C   0  0  1  0  0  0  0  0  0  0  0  0
   27.3297   21.7236   -9.0816 O   0  0  0  0  0  0  0  0  0  0  0  0
   31.6410   21.8284   -4.5753 C   0  0  2  0  0  0  0  0  0  0  0  0
   32.1026   22.5865   -5.7038 N   0  0  0  0  0  0  0  0  0  0  0  0
   25.7315   21.0930   -1.8579 C   0  0  2  0  0  0  0  0  0  0  0  0
   24.3295   20.9908   -1.6571 O   0  0  0  0  0  0  0  0  0  0  0  0
   22.3947   18.1741   -3.3582 C   0  0  1  0  0  0  0  0  0  0  0  0
   23.4200   17.1537   -3.0845 O   0  0  0  0  0  0  0  0  0  0  0  0
   25.4937   28.3317    6.6031 C   0  0  0  0  0  0  0  0  0  0  0  0
   26.2140   21.2253   -6.9397 C   0  0  2  0  0  0  0  0  0  0  0  0
   25.0053   22.0090   -7.2916 O   0  0  0  0  0  0  0  0  0  0  0  0
   30.2076   22.3437   -4.1402 C   0  0  2  0  0  0  0  0  0  0  0  0
   26.5386   19.9223   -1.2478 C   0  0  1  0  0  0  0  0  0  0  0  0
   21.1850   18.0977   -2.2736 C   0  0  2  0  0  0  0  0  0  0  0  0
   20.1565   19.1152   -2.5407 O   0  0  0  0  0  0  0  0  0  0  0  0
   26.3298   27.5049    7.3932 C   0  0  0  0  0  0  0  0  0  0  0  0
   26.4157   21.2862   -5.3766 C   0  0  2  0  0  0  0  0  0  0  0  0
   27.6113   20.5069   -5.0971 O   0  0  0  0  0  0  0  0  0  0  0  0
   29.7452   21.4869   -2.9109 C   0  0  2  0  0  0  0  0  0  0  0  0
   28.4598   22.0212   -2.6183 O   0  0  0  0  0  0  0  0  0  0  0  0
   26.7300   18.7704   -2.2331 C   0  0  0  0  0  0  0  0  0  0  0  0
   25.5612   18.3253   -2.8789 O   0  0  0  0  0  0  0  0  0  0  0  0
   21.7755   18.3060   -0.8036 C   0  0  1  0  0  0  0  0  0  0  0  0
   22.5061   19.6324   -0.7628 O   0  0  0  0  0  0  0  0  0  0  0  0
   26.8195   26.2243    6.8324 C   0  0  0  0  0  0  0  0  0  0  0  0
   25.2082   20.7324   -4.7432 C   0  0  0  0  0  0  0  0  0  0  0  0
   25.0550   19.4553   -5.1151 O   0  0  0  0  0  0  0  0  0  0  0  0
   30.7573   21.6509   -1.7001 C   0  0  1  0  0  0  0  0  0  0  0  0
   30.3396   20.8781   -0.6232 O   0  0  0  0  0  0  0  0  0  0  0  0
   27.0568   23.6191    0.9823 C   0  0  0  0  0  0  0  0  0  0  0  0
   20.5790   18.2346    0.1837 C   0  0  0  0  0  0  0  0  0  0  0  0
   21.0172   18.4979    1.5318 N   0  0  0  0  0  0  0  0  0  0  0  0
   26.4001   23.6820    2.3651 C   0  0  0  0  0  0  0  0  0  0  0  0
   27.1847   24.6044    3.2485 N   0  0  0  0  0  0  0  0  0  0  0  0
   26.9182   24.4632    4.7714 C   0  0  0  0  0  0  0  0  0  0  0  0
  1  2  1  1  0  0  0
  1  9  1  0  0  0  0
  1 35  1  0  0  0  0
  3  4  1  1  0  0  0
  3 11  1  0  0  0  0
  3 45  1  0  0  0  0
  5  6  1  0  0  0  0
  5 12  1  0  0  0  0
  5 37  1  6  0  0  0
  6 30  1  0  0  0  0
  7 14  1  0  0  0  0
  7 41  1  0  0  0  0
  7 23  1  6  0  0  0
  8 16  2  0  0  0  0
  8 42  1  0  0  0  0
  9 10  1  6  0  0  0
  9 18  1  0  0  0  0
 11 20  1  0  0  0  0
 12 13  1  1  0  0  0
 12 22  1  0  0  0  0
 13 47  1  0  0  0  0
 14 15  1  1  0  0  0
 14 24  1  0  0  0  0
 16 17  1  0  0  0  0
 17 26  2  0  0  0  0
 18 19  1  6  0  0  0
 18 27  1  0  0  0  0
 20 21  1  6  0  0  0
 20 29  1  0  0  0  0
 22 23  1  1  0  0  0
 22 30  1  0  0  0  0
 24 25  1  1  0  0  0
 24 31  1  0  0  0  0
 26 33  1  0  0  0  0
 27 28  1  1  0  0  0
 27 34  1  0  0  0  0
 29  2  1  6  0  0  0
 29 36  1  0  0  0  0
 30 38  1  6  0  0  0
 31 32  1  6  0  0  0
 31 40  1  0  0  0  0
 33 42  2  0  0  0  0
 34 35  1  0  0  0  0
 34 43  1  1  0  0  0
 36 37  1  1  0  0  0
 36 45  1  0  0  0  0
 38 39  1  0  0  0  0
 40 41  1  0  0  0  0
 40 48  1  1  0  0  0
 43 44  1  0  0  0  0
 45 46  1  1  0  0  0
 47 50  1  0  0  0  0
 48 49  1  0  0  0  0
 50 51  1  0  0  0  0
 51 52  1  0  0  0  0
 52  8  1  0  0  0  0
M  END
>  <CHROM.1>
-145.93029300,-53.71307305,-94.70043627,53.28271437,178.82166967,-159.20524897
70.99035831,-166.03274232,61.43409684,-159.21256979,-176.39313691,-179.01183365
-162.57822972,-122.56877984,35.62173632,26.53029872,21.54953734,-1.83638528
-1.44072515,0.39689704,1.08896413

>  <Name>
2be0_lig

>  <RI>
0

>  <Rbt.Current_Directory>
/home/itssahil/PROJECTS/Mol_Feturizer/New_Systems/rnas/2be0

>  <Rbt.Executable>
rbdock ($Id: //depot/dev/client3/rdock/2013.1/src/exe/rbdock.cxx#4 $)

>  <Rbt.Library>
libRbt.so (2013.1, Build901 2013/11/27)

>  <Rbt.Parameter_File>
/export/apps/rDock/src/rDock_2013.1_src/data/scripts/dock_solv.prm

>  <Rbt.Receptor>
prm/blind_docking_40.prm

>  <SCORE>
1.0386

>  <SCORE.INTER>
-4.54868

>  <SCORE.INTER.CONST>
1

>  <SCORE.INTER.POLAR>
-0.667989

>  <SCORE.INTER.ROT>
15

>  <SCORE.INTER.SOLV>
17.7407

>  <SCORE.INTER.VDW>
-20.3194

>  <SCORE.INTER.norm>
-0.0874745

>  <SCORE.INTRA>
-6.86215

>  <SCORE.INTRA.DIHEDRAL>
-30.8313

>  <SCORE.INTRA.DIHEDRAL.0>
47.8724

>  <SCORE.INTRA.POLAR>
0

>  <SCORE.INTRA.POLAR.0>
0

>  <SCORE.INTRA.REPUL>
0

>  <SCORE.INTRA.REPUL.0>
0

>  <SCORE.INTRA.SOLV>
2.9038

>  <SCORE.INTRA.SOLV.lig_0>
-115.677

>  <SCORE.INTRA.VDW>
7.1016

>  <SCORE.INTRA.VDW.0>
-7.4833

>  <SCORE.INTRA.norm>
-0.131964

>  <SCORE.RESTR>
12.4494

>  <SCORE.RESTR.CAVITY>
12.4494

>  <SCORE.RESTR.norm>
0.239412

>  <SCORE.SYSTEM>
0

>  <SCORE.SYSTEM.CONST>
0

>  <SCORE.SYSTEM.DIHEDRAL>
0

>  <SCORE.SYSTEM.SOLV>
0

>  <SCORE.SYSTEM.norm>
0

>  <SCORE.heavy>
52

>  <SCORE.norm>
0.0199731

>  <RMSD>
25.043

$$$$
2be0_lig
 OpenBabel11021811423D
libRbt.so/2013.1/901 2013/11/27
 52 56  0  0  0  0  0  0  0  0999 V2000
   26.7295   22.4952    3.3576 C   0  0  2  0  0  0  0  0  0  0  0  0
   27.7644   22.8820    2.4846 O   0  0  0  0  0  0  0  0  0  0  0  0
   30.7915   21.0009   -0.0978 C   0  0  2  0  0  0  0  0  0  0  0  0
   31.5595   19.9349   -0.8001 N   0  0  0  0  0  0  0  0  0  0  0  0
   26.7138   22.6207   -1.4125 C   0  0  2  0  0  0  0  0  0  0  0  0
   25.3375   23.0522   -1.4088 O   0  0  0  0  0  0  0  0  0  0  0  0
   24.0782   18.8705   -2.8743 C   0  0  1  0  0  0  0  0  0  0  0  0
   30.9854   21.1725   -5.0109 C   0  0  0  0  0  0  0  0  0  0  0  0
   25.3506   23.1491    2.9373 C   0  0  2  0  0  0  0  0  0  0  0  0
   25.0608   22.8369    1.5362 N   0  0  0  0  0  0  0  0  0  0  0  0
   30.8174   20.7155    1.4726 C   0  0  0  0  0  0  0  0  0  0  0  0
   26.8253   21.5046   -2.4634 C   0  0  2  0  0  0  0  0  0  0  0  0
   27.0371   22.2493   -3.7432 O   0  0  0  0  0  0  0  0  0  0  0  0
   23.2866   18.4759   -4.2378 C   0  0  2  0  0  0  0  0  0  0  0  0
   22.5874   19.6952   -4.7574 N   0  0  0  0  0  0  0  0  0  0  0  0
   31.0211   19.7843   -4.6551 C   0  0  0  0  0  0  0  0  0  0  0  0
   32.1388   18.9918   -5.0261 N   0  0  0  0  0  0  0  0  0  0  0  0
   25.4007   24.7251    3.2010 C   0  0  1  0  0  0  0  0  0  0  0  0
   24.1596   25.2925    2.8112 O   0  0  0  0  0  0  0  0  0  0  0  0
   29.9720   21.8572    2.2799 C   0  0  2  0  0  0  0  0  0  0  0  0
   29.9894   21.6130    3.6946 N   0  0  0  0  0  0  0  0  0  0  0  0
   25.4811   20.7994   -2.2016 C   0  0  2  0  0  0  0  0  0  0  0  0
   25.0099   19.9151   -3.2078 O   0  0  0  0  0  0  0  0  0  0  0  0
   22.2630   17.3536   -3.8888 C   0  0  1  0  0  0  0  0  0  0  0  0
   23.0559   16.2098   -3.4086 O   0  0  0  0  0  0  0  0  0  0  0  0
   33.2507   19.5099   -5.7496 C   0  0  0  0  0  0  0  0  0  0  0  0
   25.6994   24.9656    4.7093 C   0  0  2  0  0  0  0  0  0  0  0  0
   25.7622   26.4152    5.0156 O   0  0  0  0  0  0  0  0  0  0  0  0
   28.4745   21.8821    1.7640 C   0  0  2  0  0  0  0  0  0  0  0  0
   24.5169   21.9701   -1.8951 C   0  0  1  0  0  0  0  0  0  0  0  0
   21.2327   17.8767   -2.7440 C   0  0  2  0  0  0  0  0  0  0  0  0
   20.4370   19.0202   -3.2169 O   0  0  0  0  0  0  0  0  0  0  0  0
   33.2720   20.8750   -6.1277 C   0  0  0  0  0  0  0  0  0  0  0  0
   27.0757   24.3069    5.1087 C   0  0  2  0  0  0  0  0  0  0  0  0
   26.9527   22.8950    4.7826 O   0  0  0  0  0  0  0  0  0  0  0  0
   28.5059   22.1542    0.2200 C   0  0  2  0  0  0  0  0  0  0  0  0
   27.1266   22.1678   -0.1272 O   0  0  0  0  0  0  0  0  0  0  0  0
   23.5229   21.6312   -0.7855 C   0  0  0  0  0  0  0  0  0  0  0  0
   22.2018   21.3918   -1.2082 O   0  0  0  0  0  0  0  0  0  0  0  0
   22.0558   18.2989   -1.4413 C   0  0  1  0  0  0  0  0  0  0  0  0
   23.0685   19.3547   -1.8342 O   0  0  0  0  0  0  0  0  0  0  0  0
   32.1287   21.7442   -5.7651 C   0  0  0  0  0  0  0  0  0  0  0  0
   27.2923   24.5479    6.5443 C   0  0  0  0  0  0  0  0  0  0  0  0
   28.5798   24.3343    6.8433 O   0  0  0  0  0  0  0  0  0  0  0  0
   29.3076   21.0118   -0.5349 C   0  0  1  0  0  0  0  0  0  0  0  0
   29.3352   21.2727   -1.8997 O   0  0  0  0  0  0  0  0  0  0  0  0
   26.4583   21.9651   -5.0775 C   0  0  0  0  0  0  0  0  0  0  0  0
   21.0256   18.7981   -0.3919 C   0  0  0  0  0  0  0  0  0  0  0  0
   21.5815   18.7305    0.9367 N   0  0  0  0  0  0  0  0  0  0  0  0
   27.6091   21.5180   -5.9848 C   0  0  0  0  0  0  0  0  0  0  0  0
   28.7899   22.4163   -5.7721 N   0  0  0  0  0  0  0  0  0  0  0  0
   29.7087   22.0454   -4.5769 C   0  0  0  0  0  0  0  0  0  0  0  0
  1  2  1  6  0  0  0
  1  9  1  0  0  0  0
  1 35  1  0  0  0  0
  3  4  1  6  0  0  0
  3 11  1  0  0  0  0
  3 45  1  0  0  0  0
  5  6  1  0  0  0  0
  5 12  1  0  0  0  0
  5 37  1  1  0  0  0
  6 30  1  0  0  0  0
  7 14  1  0  0  0  0
  7 41  1  0  0  0  0
  7 23  1  6  0  0  0
  8 16  2  0  0  0  0
  8 42  1  0  0  0  0
  9 10  1  6  0  0  0
  9 18  1  0  0  0  0
 11 20  1  0  0  0  0
 12 13  1  6  0  0  0
 12 22  1  0  0  0  0
 13 47  1  0  0  0  0
 14 15  1  1  0  0  0
 14 24  1  0  0  0  0
 16 17  1  0  0  0  0
 17 26  2  0  0  0  0
 18 19  1  1  0  0  0
 18 27  1  0  0  0  0
 20 21  1  1  0  0  0
 20 29  1  0  0  0  0
 22 23  1  6  0  0  0
 22 30  1  0  0  0  0
 24 25  1  1  0  0  0
 24 31  1  0  0  0  0
 26 33  1  0  0  0  0
 27 28  1  6  0  0  0
 27 34  1  0  0  0  0
 29  2  1  1  0  0  0
 29 36  1  0  0  0  0
 30 38  1  1  0  0  0
 31 32  1  6  0  0  0
 31 40  1  0  0  0  0
 33 42  2  0  0  0  0
 34 35  1  0  0  0  0
 34 43  1  1  0  0  0
 36 37  1  6  0  0  0
 36 45  1  0  0  0  0
 38 39  1  0  0  0  0
 40 41  1  0  0  0  0
 40 48  1  1  0  0  0
 43 44  1  0  0  0  0
 45 46  1  6  0  0  0
 47 50  1  0  0  0  0
 48 49  1  0  0  0  0
 50 51  1  0  0  0  0
 51 52  1  0  0  0  0
 52  8  1  0  0  0  0
M  END
>  <CHROM.1>
-120.58711454,-157.47827031,156.66504545,-139.65924743,-112.29488694,156.91124570
-113.76174184,137.56210555,-163.41301201,168.85224799,158.79673700,-43.92073071
84.22682598,96.40584790,-107.98481274,26.62652435,21.37811299,-0.80537088
-1.58461045,-0.20886497,-2.00768592

>  <Name>
2be0_lig

>  <RI>
0

>  <Rbt.Current_Directory>
/home/itssahil/PROJECTS/Mol_Feturizer/New_Systems/rnas/2be0

>  <Rbt.Executable>
rbdock ($Id: //depot/dev/client3/rdock/2013.1/src/exe/rbdock.cxx#4 $)

>  <Rbt.Library>
libRbt.so (2013.1, Build901 2013/11/27)

>  <Rbt.Parameter_File>
/export/apps/rDock/src/rDock_2013.1_src/data/scripts/dock_solv.prm

>  <Rbt.Receptor>
prm/blind_docking_40.prm

>  <SCORE>
33.9662

>  <SCORE.INTER>
9.15898

>  <SCORE.INTER.CONST>
1

>  <SCORE.INTER.POLAR>
-0.291742

>  <SCORE.INTER.ROT>
15

>  <SCORE.INTER.SOLV>
23.5201

>  <SCORE.INTER.VDW>
-14.3616

>  <SCORE.INTER.norm>
0.176134

>  <SCORE.INTRA>
6.52779

>  <SCORE.INTRA.DIHEDRAL>
-4.53154

>  <SCORE.INTRA.DIHEDRAL.0>
47.8724

>  <SCORE.INTRA.POLAR>
0

>  <SCORE.INTRA.POLAR.0>
0

>  <SCORE.INTRA.REPUL>
0

>  <SCORE.INTRA.REPUL.0>
0

>  <SCORE.INTRA.SOLV>
5.42758

>  <SCORE.INTRA.SOLV.lig_0>
-115.677

>  <SCORE.INTRA.VDW>
6.07977

>  <SCORE.INTRA.VDW.0>
-7.4833

>  <SCORE.INTRA.norm>
0.125534

>  <SCORE.RESTR>
18.2794

>  <SCORE.RESTR.CAVITY>
18.2794

>  <SCORE.RESTR.norm>
0.351527

>  <SCORE.SYSTEM>
0

>  <SCORE.SYSTEM.CONST>
0

>  <SCORE.SYSTEM.DIHEDRAL>
0

>  <SCORE.SYSTEM.SOLV>
0

>  <SCORE.SYSTEM.norm>
0

>  <SCORE.heavy>
52

>  <SCORE.norm>
0.653196

>  <RMSD>
25.073

$$$$
2be0_lig
 OpenBabel11021811423D
libRbt.so/2013.1/901 2013/11/27
 52 56  0  0  0  0  0  0  0  0999 V2000
   29.4140   22.8649    2.4055 C   0  0  2  0  0  0  0  0  0  0  0  0
   28.2064   22.3451    1.9012 O   0  0  0  0  0  0  0  0  0  0  0  0
   24.1989   24.0532    2.5282 C   0  0  2  0  0  0  0  0  0  0  0  0
   23.0514   24.9972    2.4206 N   0  0  0  0  0  0  0  0  0  0  0  0
   25.3883   20.9408   -0.6243 C   0  0  2  0  0  0  0  0  0  0  0  0
   26.1272   19.7312   -0.8911 O   0  0  0  0  0  0  0  0  0  0  0  0
   26.9957   20.6880   -5.1136 C   0  0  1  0  0  0  0  0  0  0  0  0
   20.7219   18.5932   -3.7655 C   0  0  0  0  0  0  0  0  0  0  0  0
   29.8522   24.1654    1.6164 C   0  0  2  0  0  0  0  0  0  0  0  0
   28.7619   25.1430    1.6283 N   0  0  0  0  0  0  0  0  0  0  0  0
   25.4782   24.8444    3.0626 C   0  0  0  0  0  0  0  0  0  0  0  0
   24.8739   21.4536   -1.9788 C   0  0  2  0  0  0  0  0  0  0  0  0
   23.5986   20.6976   -2.1773 O   0  0  0  0  0  0  0  0  0  0  0  0
   28.0492   21.9230   -5.1928 C   0  0  2  0  0  0  0  0  0  0  0  0
   27.3375   23.1281   -5.7283 N   0  0  0  0  0  0  0  0  0  0  0  0
   21.3379   17.3909   -4.2449 C   0  0  0  0  0  0  0  0  0  0  0  0
   22.1663   17.4361   -5.3967 N   0  0  0  0  0  0  0  0  0  0  0  0
   30.2859   23.7709    0.1291 C   0  0  1  0  0  0  0  0  0  0  0  0
   30.6672   24.9499   -0.5627 O   0  0  0  0  0  0  0  0  0  0  0  0
   26.7657   23.8453    3.1816 C   0  0  2  0  0  0  0  0  0  0  0  0
   27.9231   24.5448    3.6637 N   0  0  0  0  0  0  0  0  0  0  0  0
   26.1052   21.1172   -2.8411 C   0  0  2  0  0  0  0  0  0  0  0  0
   25.9208   21.0976   -4.2490 O   0  0  0  0  0  0  0  0  0  0  0  0
   29.2135   21.4984   -6.1379 C   0  0  1  0  0  0  0  0  0  0  0  0
   29.8456   20.3266   -5.5097 O   0  0  0  0  0  0  0  0  0  0  0  0
   22.4240   18.6356   -6.1198 C   0  0  0  0  0  0  0  0  0  0  0  0
   31.4520   22.7434    0.2093 C   0  0  2  0  0  0  0  0  0  0  0  0
   31.8966   22.3351   -1.1452 O   0  0  0  0  0  0  0  0  0  0  0  0
   27.0826   23.2066    1.7669 C   0  0  2  0  0  0  0  0  0  0  0  0
   26.5956   19.7719   -2.2548 C   0  0  1  0  0  0  0  0  0  0  0  0
   28.6290   21.1321   -7.6109 C   0  0  2  0  0  0  0  0  0  0  0  0
   27.9953   22.2987   -8.2448 O   0  0  0  0  0  0  0  0  0  0  0  0
   21.8435   19.8553   -5.6926 C   0  0  0  0  0  0  0  0  0  0  0  0
   30.9967   21.4561    0.9987 C   0  0  2  0  0  0  0  0  0  0  0  0
   30.5714   21.9207    2.3095 O   0  0  0  0  0  0  0  0  0  0  0  0
   25.7948   22.4531    1.2841 C   0  0  2  0  0  0  0  0  0  0  0  0
   26.1942   21.9163    0.0289 O   0  0  0  0  0  0  0  0  0  0  0  0
   28.1197   19.6786   -2.2056 C   0  0  0  0  0  0  0  0  0  0  0  0
   28.6587   18.4118   -2.4991 O   0  0  0  0  0  0  0  0  0  0  0  0
   27.5634   19.9487   -7.4803 C   0  0  1  0  0  0  0  0  0  0  0  0
   26.4770   20.3844   -6.5188 O   0  0  0  0  0  0  0  0  0  0  0  0
   20.9702   19.8611   -4.4961 C   0  0  0  0  0  0  0  0  0  0  0  0
   32.1427   20.5347    1.0601 C   0  0  0  0  0  0  0  0  0  0  0  0
   31.8556   19.5199    1.8849 O   0  0  0  0  0  0  0  0  0  0  0  0
   24.5739   23.4575    1.1506 C   0  0  1  0  0  0  0  0  0  0  0  0
   23.4389   22.7733    0.7322 O   0  0  0  0  0  0  0  0  0  0  0  0
   22.3784   20.7184   -1.3365 C   0  0  0  0  0  0  0  0  0  0  0  0
   27.0338   19.6510   -8.9095 C   0  0  0  0  0  0  0  0  0  0  0  0
   26.4443   20.8326   -9.4885 N   0  0  0  0  0  0  0  0  0  0  0  0
   21.9067   19.2684   -1.1864 C   0  0  0  0  0  0  0  0  0  0  0  0
   20.4090   19.2244   -1.2258 N   0  0  0  0  0  0  0  0  0  0  0  0
   19.7906   18.5126   -2.4591 C   0  0  0  0  0  0  0  0  0  0  0  0
  1  2  1  6  0  0  0
  1  9  1  0  0  0  0
  1 35  1  0  0  0  0
  3  4  1  6  0  0  0
  3 11  1  0  0  0  0
  3 45  1  0  0  0  0
  5  6  1  0  0  0  0
  5 12  1  0  0  0  0
  5 37  1  6  0  0  0
  6 30  1  0  0  0  0
  7 14  1  0  0  0  0
  7 41  1  0  0  0  0
  7 23  1  1  0  0  0
  8 16  2  0  0  0  0
  8 42  1  0  0  0  0
  9 10  1  6  0  0  0
  9 18  1  0  0  0  0
 11 20  1  0  0  0  0
 12 13  1  6  0  0  0
 12 22  1  0  0  0  0
 13 47  1  0  0  0  0
 14 15  1  6  0  0  0
 14 24  1  0  0  0  0
 16 17  1  0  0  0  0
 17 26  2  0  0  0  0
 18 19  1  6  0  0  0
 18 27  1  0  0  0  0
 20 21  1  6  0  0  0
 20 29  1  0  0  0  0
 22 23  1  6  0  0  0
 22 30  1  0  0  0  0
 24 25  1  1  0  0  0
 24 31  1  0  0  0  0
 26 33  1  0  0  0  0
 27 28  1  6  0  0  0
 27 34  1  0  0  0  0
 29  2  1  1  0  0  0
 29 36  1  0  0  0  0
 30 38  1  1  0  0  0
 31 32  1  1  0  0  0
 31 40  1  0  0  0  0
 33 42  2  0  0  0  0
 34 35  1  0  0  0  0
 34 43  1  1  0  0  0
 36 37  1  6  0  0  0
 36 45  1  0  0  0  0
 38 39  1  0  0  0  0
 40 41  1  0  0  0  0
 40 48  1  6  0  0  0
 43 44  1  0  0  0  0
 45 46  1  1  0  0  0
 47 50  1  0  0  0  0
 48 49  1  0  0  0  0
 50 51  1  0  0  0  0
 51 52  1  0  0  0  0
 52  8  1  0  0  0  0
M  END
>  <CHROM.1>
-51.85235296,-123.02168290,-76.27891723,61.46375924,-136.57289406,-175.03448608
-56.88582225,101.39075048,171.12709548,167.83573227,-58.26112834,-141.90864329
113.19073963,-28.50424585,111.14339865,26.52263089,21.38521939,-1.89930358
1.01163698,0.20002875,1.25385341

>  <Name>
2be0_lig

>  <RI>
2.57068e+07

>  <Rbt.Current_Directory>
/home/itssahil/PROJECTS/Mol_Feturizer/New_Systems/rnas/2be0

>  <Rbt.Executable>
rbdock ($Id: //depot/dev/client3/rdock/2013.1/src/exe/rbdock.cxx#4 $)

>  <Rbt.Library>
libRbt.so (2013.1, Build901 2013/11/27)

>  <Rbt.Parameter_File>
/export/apps/rDock/src/rDock_2013.1_src/data/scripts/dock_solv.prm

>  <Rbt.Receptor>
prm/blind_docking_60.prm

>  <SCORE>
23.0826

>  <SCORE.INTER>
-6.04861

>  <SCORE.INTER.CONST>
1

>  <SCORE.INTER.POLAR>
-0.690767

>  <SCORE.INTER.ROT>
15

>  <SCORE.INTER.SOLV>
24.6955

>  <SCORE.INTER.VDW>
-23.5617

>  <SCORE.INTER.norm>
-0.116319

>  <SCORE.INTRA>
0.731508

>  <SCORE.INTRA.DIHEDRAL>
-21.0607

>  <SCORE.INTRA.DIHEDRAL.0>
47.8724

>  <SCORE.INTRA.POLAR>
0

>  <SCORE.INTRA.POLAR.0>
0

>  <SCORE.INTRA.REPUL>
0

>  <SCORE.INTRA.REPUL.0>
0

>  <SCORE.INTRA.SOLV>
4.75129

>  <SCORE.INTRA.SOLV.lig_0>
-115.677

>  <SCORE.INTRA.VDW>
8.88622

>  <SCORE.INTRA.VDW.0>
-7.4833

>  <SCORE.INTRA.norm>
0.0140675

>  <SCORE.RESTR>
28.3997

>  <SCORE.RESTR.CAVITY>
28.3997

>  <SCORE.RESTR.norm>
0.546148

>  <SCORE.SYSTEM>
0

>  <SCORE.SYSTEM.CONST>
0

>  <SCORE.SYSTEM.DIHEDRAL>
0

>  <SCORE.SYSTEM.SOLV>
0

>  <SCORE.SYSTEM.norm>
0

>  <SCORE.heavy>
52

>  <SCORE.norm>
0.443896

>  <RMSD>
25.080

$$$$
2be0_lig
 OpenBabel11021811423D
libRbt.so/2013.1/901 2013/11/27
 52 56  0  0  0  0  0  0  0  0999 V2000
   24.3104   19.0942   -1.9389 C   0  0  2  0  0  0  0  0  0  0  0  0
   25.2285   20.1320   -1.6883 O   0  0  0  0  0  0  0  0  0  0  0  0
   28.8199   18.0166   -0.2747 C   0  0  2  0  0  0  0  0  0  0  0  0
   30.2574   17.6590   -0.1158 N   0  0  0  0  0  0  0  0  0  0  0  0
   27.5409   22.2316   -0.0118 C   0  0  2  0  0  0  0  0  0  0  0  0
   26.8338   23.4886    0.0027 O   0  0  0  0  0  0  0  0  0  0  0  0
   27.2682   21.8451   -4.5270 C   0  0  1  0  0  0  0  0  0  0  0  0
   28.5166   23.4173    3.0440 C   0  0  0  0  0  0  0  0  0  0  0  0
   23.5819   19.2968   -3.3296 C   0  0  2  0  0  0  0  0  0  0  0  0
   24.5774   19.4462   -4.3933 N   0  0  0  0  0  0  0  0  0  0  0  0
   28.4335   17.9527   -1.8222 C   0  0  0  0  0  0  0  0  0  0  0  0
   28.0256   22.0127   -1.4539 C   0  0  2  0  0  0  0  0  0  0  0  0
   29.3197   22.7612   -1.5051 O   0  0  0  0  0  0  0  0  0  0  0  0
   28.3486   22.4561   -5.5762 C   0  0  2  0  0  0  0  0  0  0  0  0
   27.7475   23.6582   -6.2392 N   0  0  0  0  0  0  0  0  0  0  0  0
   28.7356   22.0074    3.1819 C   0  0  0  0  0  0  0  0  0  0  0  0
   27.8662   21.2372    3.9980 N   0  0  0  0  0  0  0  0  0  0  0  0
   22.6031   20.5580   -3.2449 C   0  0  1  0  0  0  0  0  0  0  0  0
   21.9665   20.7266   -4.5020 O   0  0  0  0  0  0  0  0  0  0  0  0
   26.8645   18.3531   -2.0415 C   0  0  2  0  0  0  0  0  0  0  0  0
   26.5034   18.2972   -3.4300 N   0  0  0  0  0  0  0  0  0  0  0  0
   26.7950   22.5596   -2.2017 C   0  0  2  0  0  0  0  0  0  0  0  0
   26.9644   22.8802   -3.5747 O   0  0  0  0  0  0  0  0  0  0  0  0
   28.6773   21.3492   -6.6231 C   0  0  1  0  0  0  0  0  0  0  0  0
   29.2720   20.2340   -5.8682 O   0  0  0  0  0  0  0  0  0  0  0  0
   26.7651   21.7998    4.7045 C   0  0  0  0  0  0  0  0  0  0  0  0
   21.5746   20.3108   -2.1032 C   0  0  2  0  0  0  0  0  0  0  0  0
   20.6382   21.4533   -1.9731 O   0  0  0  0  0  0  0  0  0  0  0  0
   26.5990   19.8112   -1.4823 C   0  0  2  0  0  0  0  0  0  0  0  0
   26.3495   23.7573   -1.3292 C   0  0  1  0  0  0  0  0  0  0  0  0
   27.3182   20.8840   -7.3862 C   0  0  2  0  0  0  0  0  0  0  0  0
   26.7179   21.9939   -8.1426 O   0  0  0  0  0  0  0  0  0  0  0  0
   26.4985   23.1876    4.6056 C   0  0  0  0  0  0  0  0  0  0  0  0
   22.3189   20.1110   -0.7271 C   0  0  2  0  0  0  0  0  0  0  0  0
   23.2198   18.9858   -0.9196 O   0  0  0  0  0  0  0  0  0  0  0  0
   27.0035   19.8225    0.0327 C   0  0  2  0  0  0  0  0  0  0  0  0
   26.7148   21.1582    0.4275 O   0  0  0  0  0  0  0  0  0  0  0  0
   24.8293   23.8763   -1.2352 C   0  0  0  0  0  0  0  0  0  0  0  0
   24.3332   24.3397   -0.0022 O   0  0  0  0  0  0  0  0  0  0  0  0
   26.2678   20.3365   -6.3140 C   0  0  1  0  0  0  0  0  0  0  0  0
   26.0134   21.4249   -5.2915 O   0  0  0  0  0  0  0  0  0  0  0  0
   27.3773   24.0354    3.7670 C   0  0  0  0  0  0  0  0  0  0  0  0
   21.3003   19.8610    0.3054 C   0  0  0  0  0  0  0  0  0  0  0  0
   20.9931   18.5579    0.3228 O   0  0  0  0  0  0  0  0  0  0  0  0
   28.5384   19.4598    0.2063 C   0  0  1  0  0  0  0  0  0  0  0  0
   28.8785   19.4639    1.5538 O   0  0  0  0  0  0  0  0  0  0  0  0
   29.6353   24.0898   -0.9295 C   0  0  0  0  0  0  0  0  0  0  0  0
   24.9923   19.9196   -7.0957 C   0  0  0  0  0  0  0  0  0  0  0  0
   25.3265   19.0114   -8.1644 N   0  0  0  0  0  0  0  0  0  0  0  0
   30.8798   23.9196   -0.0523 C   0  0  0  0  0  0  0  0  0  0  0  0
   30.4775   23.3713    1.2834 N   0  0  0  0  0  0  0  0  0  0  0  0
   29.5153   24.2636    2.1130 C   0  0  0  0  0  0  0  0  0  0  0  0
  1  2  1  1  0  0  0
  1  9  1  0  0  0  0
  1 35  1  0  0  0  0
  3  4  1  6  0  0  0
  3 11  1  0  0  0  0
  3 45  1  0  0  0  0
  5  6  1  0  0  0  0
  5 12  1  0  0  0  0
  5 37  1  6  0  0  0
  6 30  1  0  0  0  0
  7 14  1  0  0  0  0
  7 41  1  0  0  0  0
  7 23  1  1  0  0  0
  8 16  2  0  0  0  0
  8 42  1  0  0  0  0
  9 10  1  6  0  0  0
  9 18  1  0  0  0  0
 11 20  1  0  0  0  0
 12 13  1  6  0  0  0
 12 22  1  0  0  0  0
 13 47  1  0  0  0  0
 14 15  1  6  0  0  0
 14 24  1  0  0  0  0
 16 17  1  0  0  0  0
 17 26  2  0  0  0  0
 18 19  1  6  0  0  0
 18 27  1  0  0  0  0
 20 21  1  6  0  0  0
 20 29  1  0  0  0  0
 22 23  1  6  0  0  0
 22 30  1  0  0  0  0
 24 25  1  1  0  0  0
 24 31  1  0  0  0  0
 26 33  1  0  0  0  0
 27 28  1  1  0  0  0
 27 34  1  0  0  0  0
 29  2  1  1  0  0  0
 29 36  1  0  0  0  0
 30 38  1  1  0  0  0
 31 32  1  1  0  0  0
 31 40  1  0  0  0  0
 33 42  2  0  0  0  0
 34 35  1  0  0  0  0
 34 43  1  1  0  0  0
 36 37  1  6  0  0  0
 36 45  1  0  0  0  0
 38 39  1  0  0  0  0
 40 41  1  0  0  0  0
 40 48  1  6  0  0  0
 43 44  1  0  0  0  0
 45 46  1  1  0  0  0
 47 50  1  0  0  0  0
 48 49  1  0  0  0  0
 50 51  1  0  0  0  0
 51 52  1  0  0  0  0
 52  8  1  0  0  0  0
M  END
>  <CHROM.1>
-121.30359168,156.23531586,-140.72782784,-41.71424706,126.33677771,64.53725212
18.03309231,29.05421328,85.14753090,-72.34676896,53.07498340,-81.22053236
-61.54275757,148.40897613,9.49389486,26.42278850,21.17292982,-1.73129929
1.91211551,-0.32498158,-1.68821001

>  <Name>
2be0_lig

>  <RI>
0

>  <Rbt.Current_Directory>
/home/itssahil/PROJECTS/Mol_Feturizer/New_Systems/rnas/2be0

>  <Rbt.Executable>
rbdock ($Id: //depot/dev/client3/rdock/2013.1/src/exe/rbdock.cxx#4 $)

>  <Rbt.Library>
libRbt.so (2013.1, Build901 2013/11/27)

>  <Rbt.Parameter_File>
/export/apps/rDock/src/rDock_2013.1_src/data/scripts/dock_solv.prm

>  <Rbt.Receptor>
prm/blind_docking_40.prm

>  <SCORE>
39.1034

>  <SCORE.INTER>
16.9281

>  <SCORE.INTER.CONST>
1

>  <SCORE.INTER.POLAR>
-0.695202

>  <SCORE.INTER.ROT>
15

>  <SCORE.INTER.SOLV>
33.088

>  <SCORE.INTER.VDW>
-11.0266

>  <SCORE.INTER.norm>
0.325541

>  <SCORE.INTRA>
9.58528

>  <SCORE.INTRA.DIHEDRAL>
-9.85823

>  <SCORE.INTRA.DIHEDRAL.0>
47.8724

>  <SCORE.INTRA.POLAR>
0

>  <SCORE.INTRA.POLAR.0>
0

>  <SCORE.INTRA.REPUL>
0.0346954

>  <SCORE.INTRA.REPUL.0>
0

>  <SCORE.INTRA.SOLV>
9.79502

>  <SCORE.INTRA.SOLV.lig_0>
-115.677

>  <SCORE.INTRA.VDW>
9.4434

>  <SCORE.INTRA.VDW.0>
-7.4833

>  <SCORE.INTRA.norm>
0.184332

>  <SCORE.RESTR>
12.59

>  <SCORE.RESTR.CAVITY>
12.59

>  <SCORE.RESTR.norm>
0.242116

>  <SCORE.SYSTEM>
0

>  <SCORE.SYSTEM.CONST>
0

>  <SCORE.SYSTEM.DIHEDRAL>
0

>  <SCORE.SYSTEM.SOLV>
0

>  <SCORE.SYSTEM.norm>
0

>  <SCORE.heavy>
52

>  <SCORE.norm>
0.751989

>  <RMSD>
25.092

$$$$
2be0_lig
 OpenBabel11021811423D
libRbt.so/2013.1/901 2013/11/27
 52 56  0  0  0  0  0  0  0  0999 V2000
   24.5464   20.2756   -1.2738 C   0  0  2  0  0  0  0  0  0  0  0  0
   25.4451   19.3000   -0.8011 O   0  0  0  0  0  0  0  0  0  0  0  0
   29.7560   18.8832   -0.0177 C   0  0  2  0  0  0  0  0  0  0  0  0
   31.2187   19.1592   -0.0778 N   0  0  0  0  0  0  0  0  0  0  0  0
   26.6782   22.1142    0.4720 C   0  0  2  0  0  0  0  0  0  0  0  0
   27.9993   22.6920    0.4363 O   0  0  0  0  0  0  0  0  0  0  0  0
   25.8997   24.8410    4.2364 C   0  0  1  0  0  0  0  0  0  0  0  0
   28.2832   21.6969   -4.4032 C   0  0  0  0  0  0  0  0  0  0  0  0
   23.0484   19.8805   -0.9488 C   0  0  2  0  0  0  0  0  0  0  0  0
   22.9046   19.6201    0.4851 N   0  0  0  0  0  0  0  0  0  0  0  0
   29.2053   18.6579   -1.4990 C   0  0  0  0  0  0  0  0  0  0  0  0
   25.7668   23.1353    1.1714 C   0  0  2  0  0  0  0  0  0  0  0  0
   25.3548   24.0523    0.0639 O   0  0  0  0  0  0  0  0  0  0  0  0
   25.1013   26.2406    4.4485 C   0  0  2  0  0  0  0  0  0  0  0  0
   26.0583   27.3754    4.2439 N   0  0  0  0  0  0  0  0  0  0  0  0
   27.7947   22.1732   -5.6639 C   0  0  0  0  0  0  0  0  0  0  0  0
   28.7132   22.5034   -6.6947 N   0  0  0  0  0  0  0  0  0  0  0  0
   22.6220   18.6178   -1.8318 C   0  0  1  0  0  0  0  0  0  0  0  0
   21.2804   18.2756   -1.5203 O   0  0  0  0  0  0  0  0  0  0  0  0
   27.5978   18.3656   -1.4782 C   0  0  2  0  0  0  0  0  0  0  0  0
   27.0902   18.1588   -2.8052 N   0  0  0  0  0  0  0  0  0  0  0  0
   26.7505   23.6299    2.2488 C   0  0  2  0  0  0  0  0  0  0  0  0
   26.4331   24.8512    2.9000 O   0  0  0  0  0  0  0  0  0  0  0  0
   24.5289   26.2497    5.8982 C   0  0  1  0  0  0  0  0  0  0  0  0
   23.5975   25.1124    5.9789 O   0  0  0  0  0  0  0  0  0  0  0  0
   30.1243   22.3870   -6.5423 C   0  0  0  0  0  0  0  0  0  0  0  0
   22.7925   18.9842   -3.3347 C   0  0  2  0  0  0  0  0  0  0  0  0
   22.4144   17.8461   -4.2069 O   0  0  0  0  0  0  0  0  0  0  0  0
   26.8394   19.5817   -0.8034 C   0  0  2  0  0  0  0  0  0  0  0  0
   28.1099   23.6488    1.5101 C   0  0  1  0  0  0  0  0  0  0  0  0
   25.7385   26.0966    6.9749 C   0  0  2  0  0  0  0  0  0  0  0  0
   26.6737   27.2298    6.8996 O   0  0  0  0  0  0  0  0  0  0  0  0
   30.6656   21.9206   -5.3190 C   0  0  0  0  0  0  0  0  0  0  0  0
   24.2900   19.3751   -3.6385 C   0  0  2  0  0  0  0  0  0  0  0  0
   24.6000   20.4874   -2.7544 O   0  0  0  0  0  0  0  0  0  0  0  0
   27.4232   19.7666    0.6402 C   0  0  2  0  0  0  0  0  0  0  0  0
   26.6702   20.8612    1.1484 O   0  0  0  0  0  0  0  0  0  0  0  0
   29.2633   23.1887    2.4001 C   0  0  0  0  0  0  0  0  0  0  0  0
   30.5537   23.4583    1.9069 O   0  0  0  0  0  0  0  0  0  0  0  0
   26.5253   24.7335    6.6996 C   0  0  1  0  0  0  0  0  0  0  0  0
   27.0226   24.7463    5.2688 O   0  0  0  0  0  0  0  0  0  0  0  0
   29.7489   21.5636   -4.2115 C   0  0  0  0  0  0  0  0  0  0  0  0
   24.3841   19.7307   -5.0635 C   0  0  0  0  0  0  0  0  0  0  0  0
   25.6701   19.8930   -5.3989 O   0  0  0  0  0  0  0  0  0  0  0  0
   28.9777   20.0787    0.5810 C   0  0  1  0  0  0  0  0  0  0  0  0
   29.4818   20.2296    1.8674 O   0  0  0  0  0  0  0  0  0  0  0  0
   26.1164   24.4238   -1.1519 C   0  0  0  0  0  0  0  0  0  0  0  0
   27.6698   24.6475    7.7457 C   0  0  0  0  0  0  0  0  0  0  0  0
   27.1415   24.3410    9.0517 N   0  0  0  0  0  0  0  0  0  0  0  0
   25.9385   23.2867   -2.1632 C   0  0  0  0  0  0  0  0  0  0  0  0
   27.1450   22.3979   -2.1318 N   0  0  0  0  0  0  0  0  0  0  0  0
   27.2210   21.3295   -3.2556 C   0  0  0  0  0  0  0  0  0  0  0  0
  1  2  1  6  0  0  0
  1  9  1  0  0  0  0
  1 35  1  0  0  0  0
  3  4  1  6  0  0  0
  3 11  1  0  0  0  0
  3 45  1  0  0  0  0
  5  6  1  0  0  0  0
  5 12  1  0  0  0  0
  5 37  1  1  0  0  0
  6 30  1  0  0  0  0
  7 14  1  0  0  0  0
  7 41  1  0  0  0  0
  7 23  1  6  0  0  0
  8 16  2  0  0  0  0
  8 42  1  0  0  0  0
  9 10  1  1  0  0  0
  9 18  1  0  0  0  0
 11 20  1  0  0  0  0
 12 13  1  6  0  0  0
 12 22  1  0  0  0  0
 13 47  1  0  0  0  0
 14 15  1  1  0  0  0
 14 24  1  0  0  0  0
 16 17  1  0  0  0  0
 17 26  2  0  0  0  0
 18 19  1  6  0  0  0
 18 27  1  0  0  0  0
 20 21  1  6  0  0  0
 20 29  1  0  0  0  0
 22 23  1  6  0  0  0
 22 30  1  0  0  0  0
 24 25  1  6  0  0  0
 24 31  1  0  0  0  0
 26 33  1  0  0  0  0
 27 28  1  6  0  0  0
 27 34  1  0  0  0  0
 29  2  1  1  0  0  0
 29 36  1  0  0  0  0
 30 38  1  1  0  0  0
 31 32  1  6  0  0  0
 31 40  1  0  0  0  0
 33 42  2  0  0  0  0
 34 35  1  0  0  0  0
 34 43  1  6  0  0  0
 36 37  1  6  0  0  0
 36 45  1  0  0  0  0
 38 39  1  0  0  0  0
 40 41  1  0  0  0  0
 40 48  1  1  0  0  0
 43 44  1  0  0  0  0
 45 46  1  1  0  0  0
 47 50  1  0  0  0  0
 48 49  1  0  0  0  0
 50 51  1  0  0  0  0
 51 52  1  0  0  0  0
 52  8  1  0  0  0  0
M  END
>  <CHROM.1>
-169.74386195,-62.39422757,-157.20038283,-30.69032909,80.97879815,103.68983655
-130.67004079,77.35636890,-171.71323261,-58.19540147,73.19482135,-99.54238751
-170.64107988,104.81584747,-104.59201590,26.56486593,21.97189205,0.16463611
1.57957468,-0.28974091,-2.07485831

>  <Name>
2be0_lig

>  <RI>
0

>  <Rbt.Current_Directory>
/home/itssahil/PROJECTS/Mol_Feturizer/New_Systems/rnas/2be0

>  <Rbt.Executable>
rbdock ($Id: //depot/dev/client3/rdock/2013.1/src/exe/rbdock.cxx#4 $)

>  <Rbt.Library>
libRbt.so (2013.1, Build901 2013/11/27)

>  <Rbt.Parameter_File>
/export/apps/rDock/src/rDock_2013.1_src/data/scripts/dock_solv.prm

>  <Rbt.Receptor>
prm/blind_docking_40.prm

>  <SCORE>
-11.0849

>  <SCORE.INTER>
-14.3391

>  <SCORE.INTER.CONST>
1

>  <SCORE.INTER.POLAR>
-1.46476

>  <SCORE.INTER.ROT>
15

>  <SCORE.INTER.SOLV>
24.4564

>  <SCORE.INTER.VDW>
-26.429

>  <SCORE.INTER.norm>
-0.275753

>  <SCORE.INTRA>
-6.17443

>  <SCORE.INTRA.DIHEDRAL>
-19.1609

>  <SCORE.INTRA.DIHEDRAL.0>
47.8724

>  <SCORE.INTRA.POLAR>
0

>  <SCORE.INTRA.POLAR.0>
0

>  <SCORE.INTRA.REPUL>
0

>  <SCORE.INTRA.REPUL.0>
0

>  <SCORE.INTRA.SOLV>
4.68712

>  <SCORE.INTRA.SOLV.lig_0>
-115.677

>  <SCORE.INTRA.VDW>
1.06247

>  <SCORE.INTRA.VDW.0>
-7.4833

>  <SCORE.INTRA.norm>
-0.118739

>  <SCORE.RESTR>
9.42863

>  <SCORE.RESTR.CAVITY>
9.42863

>  <SCORE.RESTR.norm>
0.18132

>  <SCORE.SYSTEM>
0

>  <SCORE.SYSTEM.CONST>
0

>  <SCORE.SYSTEM.DIHEDRAL>
0

>  <SCORE.SYSTEM.SOLV>
0

>  <SCORE.SYSTEM.norm>
0

>  <SCORE.heavy>
52

>  <SCORE.norm>
-0.213172

>  <RMSD>
25.184

$$$$
2be0_lig
 OpenBabel11021811423D
libRbt.so/2013.1/901 2013/11/27
 52 56  0  0  0  0  0  0  0  0999 V2000
   28.5782   20.0444    0.0170 C   0  0  2  0  0  0  0  0  0  0  0  0
   27.8371   19.9626    1.2116 O   0  0  0  0  0  0  0  0  0  0  0  0
   23.6080   18.7593    1.0160 C   0  0  2  0  0  0  0  0  0  0  0  0
   22.1227   18.8737    1.0177 N   0  0  0  0  0  0  0  0  0  0  0  0
   25.8359   21.3763   -1.6449 C   0  0  2  0  0  0  0  0  0  0  0  0
   24.7509   21.1168   -2.5592 O   0  0  0  0  0  0  0  0  0  0  0  0
   28.1110   21.6662   -5.8549 C   0  0  1  0  0  0  0  0  0  0  0  0
   26.7450   24.3119    3.2719 C   0  0  0  0  0  0  0  0  0  0  0  0
   30.0722   19.5692    0.2357 C   0  0  2  0  0  0  0  0  0  0  0  0
   30.0846   18.2279    0.8233 N   0  0  0  0  0  0  0  0  0  0  0  0
   24.1818   19.3821    2.3692 C   0  0  0  0  0  0  0  0  0  0  0  0
   26.8508   22.2507   -2.3986 C   0  0  2  0  0  0  0  0  0  0  0  0
   26.3300   23.6390   -2.2020 O   0  0  0  0  0  0  0  0  0  0  0  0
   28.6653   22.8156   -6.8613 C   0  0  2  0  0  0  0  0  0  0  0  0
   27.4955   23.4878   -7.5136 N   0  0  0  0  0  0  0  0  0  0  0  0
   25.5305   25.0721    3.3152 C   0  0  0  0  0  0  0  0  0  0  0  0
   25.0084   25.4928    4.5664 N   0  0  0  0  0  0  0  0  0  0  0  0
   30.8452   20.6296    1.1489 C   0  0  1  0  0  0  0  0  0  0  0  0
   32.1784   20.1819    1.3388 O   0  0  0  0  0  0  0  0  0  0  0  0
   25.8128   19.2888    2.4006 C   0  0  2  0  0  0  0  0  0  0  0  0
   26.3415   19.8441    3.6145 N   0  0  0  0  0  0  0  0  0  0  0  0
   26.7519   21.5851   -3.7842 C   0  0  2  0  0  0  0  0  0  0  0  0
   27.2653   22.3154   -4.8886 O   0  0  0  0  0  0  0  0  0  0  0  0
   29.5732   22.1244   -7.9230 C   0  0  1  0  0  0  0  0  0  0  0  0
   30.6877   21.5171   -7.1771 O   0  0  0  0  0  0  0  0  0  0  0  0
   25.6368   25.1936    5.8088 C   0  0  0  0  0  0  0  0  0  0  0  0
   30.7946   22.0177    0.4468 C   0  0  2  0  0  0  0  0  0  0  0  0
   31.4948   23.0477    1.2518 O   0  0  0  0  0  0  0  0  0  0  0  0
   26.4190   20.0595    1.1564 C   0  0  2  0  0  0  0  0  0  0  0  0
   25.2493   21.2373   -3.9074 C   0  0  1  0  0  0  0  0  0  0  0  0
   28.7240   20.9974   -8.7321 C   0  0  2  0  0  0  0  0  0  0  0  0
   27.6079   21.5972   -9.4798 O   0  0  0  0  0  0  0  0  0  0  0  0
   26.8402   24.4464    5.8287 C   0  0  0  0  0  0  0  0  0  0  0  0
   29.2993   22.4733    0.2375 C   0  0  2  0  0  0  0  0  0  0  0  0
   28.6689   21.4263   -0.5507 O   0  0  0  0  0  0  0  0  0  0  0  0
   25.8172   19.4180   -0.1418 C   0  0  2  0  0  0  0  0  0  0  0  0
   26.4327   20.1697   -1.1809 O   0  0  0  0  0  0  0  0  0  0  0  0
   25.0169   19.8906   -4.5905 C   0  0  0  0  0  0  0  0  0  0  0  0
   24.8660   19.9389   -5.9891 O   0  0  0  0  0  0  0  0  0  0  0  0
   28.1581   19.9164   -7.7005 C   0  0  1  0  0  0  0  0  0  0  0  0
   27.3223   20.6353   -6.6616 O   0  0  0  0  0  0  0  0  0  0  0  0
   27.4256   23.9831    4.5492 C   0  0  0  0  0  0  0  0  0  0  0  0
   29.3154   23.7762   -0.4468 C   0  0  0  0  0  0  0  0  0  0  0  0
   29.7695   24.7154    0.3926 O   0  0  0  0  0  0  0  0  0  0  0  0
   24.2364   19.5533   -0.1536 C   0  0  1  0  0  0  0  0  0  0  0  0
   23.7180   18.9715   -1.3044 O   0  0  0  0  0  0  0  0  0  0  0  0
   25.1805   24.0804   -1.3772 C   0  0  0  0  0  0  0  0  0  0  0  0
   27.3507   18.8771   -8.5249 C   0  0  0  0  0  0  0  0  0  0  0  0
   26.0169   19.3599   -8.7829 N   0  0  0  0  0  0  0  0  0  0  0  0
   25.4560   23.6310    0.0614 C   0  0  0  0  0  0  0  0  0  0  0  0
   26.5434   24.4787    0.6493 N   0  0  0  0  0  0  0  0  0  0  0  0
   27.3133   23.8505    1.8420 C   0  0  0  0  0  0  0  0  0  0  0  0
  1  2  1  1  0  0  0
  1  9  1  0  0  0  0
  1 35  1  0  0  0  0
  3  4  1  1  0  0  0
  3 11  1  0  0  0  0
  3 45  1  0  0  0  0
  5  6  1  0  0  0  0
  5 12  1  0  0  0  0
  5 37  1  6  0  0  0
  6 30  1  0  0  0  0
  7 14  1  0  0  0  0
  7 41  1  0  0  0  0
  7 23  1  1  0  0  0
  8 16  2  0  0  0  0
  8 42  1  0  0  0  0
  9 10  1  1  0  0  0
  9 18  1  0  0  0  0
 11 20  1  0  0  0  0
 12 13  1  6  0  0  0
 12 22  1  0  0  0  0
 13 47  1  0  0  0  0
 14 15  1  6  0  0  0
 14 24  1  0  0  0  0
 16 17  1  0  0  0  0
 17 26  2  0  0  0  0
 18 19  1  6  0  0  0
 18 27  1  0  0  0  0
 20 21  1  1  0  0  0
 20 29  1  0  0  0  0
 22 23  1  6  0  0  0
 22 30  1  0  0  0  0
 24 25  1  1  0  0  0
 24 31  1  0  0  0  0
 26 33  1  0  0  0  0
 27 28  1  1  0  0  0
 27 34  1  0  0  0  0
 29  2  1  6  0  0  0
 29 36  1  0  0  0  0
 30 38  1  6  0  0  0
 31 32  1  1  0  0  0
 31 40  1  0  0  0  0
 33 42  2  0  0  0  0
 34 35  1  0  0  0  0
 34 43  1  6  0  0  0
 36 37  1  6  0  0  0
 36 45  1  0  0  0  0
 38 39  1  0  0  0  0
 40 41  1  0  0  0  0
 40 48  1  6  0  0  0
 43 44  1  0  0  0  0
 45 46  1  6  0  0  0
 47 50  1  0  0  0  0
 48 49  1  0  0  0  0
 50 51  1  0  0  0  0
 51 52  1  0  0  0  0
 52  8  1  0  0  0  0
M  END
>  <CHROM.1>
-166.15958000,-79.66753350,-172.98317641,4.91245013,58.23429803,133.79239241
153.52477435,152.95941008,-70.16832024,-88.08005467,-82.42381272,72.26464211
-157.46235541,-95.90671096,8.10519435,27.17169254,21.55036441,-1.49322310
-1.64902218,-0.44033634,-1.76129079

>  <Name>
2be0_lig

>  <RI>
0

>  <Rbt.Current_Directory>
/home/itssahil/PROJECTS/Mol_Feturizer/New_Systems/rnas/2be0

>  <Rbt.Executable>
rbdock ($Id: //depot/dev/client3/rdock/2013.1/src/exe/rbdock.cxx#4 $)

>  <Rbt.Library>
libRbt.so (2013.1, Build901 2013/11/27)

>  <Rbt.Parameter_File>
/export/apps/rDock/src/rDock_2013.1_src/data/scripts/dock_solv.prm

>  <Rbt.Receptor>
prm/blind_docking_40.prm

>  <SCORE>
9.21116

>  <SCORE.INTER>
-9.8999

>  <SCORE.INTER.CONST>
1

>  <SCORE.INTER.POLAR>
-0.872385

>  <SCORE.INTER.ROT>
15

>  <SCORE.INTER.SOLV>
25.9676

>  <SCORE.INTER.VDW>
-25.9478

>  <SCORE.INTER.norm>
-0.190383

>  <SCORE.INTRA>
0.0805027

>  <SCORE.INTRA.DIHEDRAL>
-19.1482

>  <SCORE.INTRA.DIHEDRAL.0>
47.8724

>  <SCORE.INTRA.POLAR>
0

>  <SCORE.INTRA.POLAR.0>
0

>  <SCORE.INTRA.REPUL>
0

>  <SCORE.INTRA.REPUL.0>
0

>  <SCORE.INTRA.SOLV>
2.81643

>  <SCORE.INTRA.SOLV.lig_0>
-115.677

>  <SCORE.INTRA.VDW>
8.24637

>  <SCORE.INTRA.VDW.0>
-7.4833

>  <SCORE.INTRA.norm>
0.00154813

>  <SCORE.RESTR>
19.0306

>  <SCORE.RESTR.CAVITY>
19.0306

>  <SCORE.RESTR.norm>
0.365972

>  <SCORE.SYSTEM>
0

>  <SCORE.SYSTEM.CONST>
0

>  <SCORE.SYSTEM.DIHEDRAL>
0

>  <SCORE.SYSTEM.SOLV>
0

>  <SCORE.SYSTEM.norm>
0

>  <SCORE.heavy>
52

>  <SCORE.norm>
0.177138

>  <RMSD>
25.279

$$$$
2be0_lig
 OpenBabel11021811423D
libRbt.so/2013.1/901 2013/11/27
 52 56  0  0  0  0  0  0  0  0999 V2000
   28.0770   20.8427   -4.1188 C   0  0  2  0  0  0  0  0  0  0  0  0
   27.4271   21.8986   -3.4513 O   0  0  0  0  0  0  0  0  0  0  0  0
   23.6981   21.4598   -1.1551 C   0  0  2  0  0  0  0  0  0  0  0  0
   22.7793   21.0890   -0.0425 N   0  0  0  0  0  0  0  0  0  0  0  0
   27.0511   23.9487   -0.1028 C   0  0  2  0  0  0  0  0  0  0  0  0
   28.1401   24.8740    0.0924 O   0  0  0  0  0  0  0  0  0  0  0  0
   29.5371   20.3438    0.9688 C   0  0  1  0  0  0  0  0  0  0  0  0
   25.8282   26.4972    5.9554 C   0  0  0  0  0  0  0  0  0  0  0  0
   29.4500   21.3198   -4.7459 C   0  0  2  0  0  0  0  0  0  0  0  0
   30.2808   21.9358   -3.7092 N   0  0  0  0  0  0  0  0  0  0  0  0
   24.4657   20.1530   -1.6565 C   0  0  0  0  0  0  0  0  0  0  0  0
   27.4602   22.6331    0.5786 C   0  0  2  0  0  0  0  0  0  0  0  0
   27.0547   22.8368    2.0039 O   0  0  0  0  0  0  0  0  0  0  0  0
   29.9516   19.7433   -0.4834 C   0  0  2  0  0  0  0  0  0  0  0  0
   29.1416   20.4343   -1.5380 N   0  0  0  0  0  0  0  0  0  0  0  0
   26.1780   27.2054    7.1516 C   0  0  0  0  0  0  0  0  0  0  0  0
   25.9628   28.6064    7.2278 N   0  0  0  0  0  0  0  0  0  0  0  0
   29.1672   22.3214   -5.9595 C   0  0  1  0  0  0  0  0  0  0  0  0
   30.4091   22.7426   -6.5021 O   0  0  0  0  0  0  0  0  0  0  0  0
   25.4965   20.5200   -2.8700 C   0  0  2  0  0  0  0  0  0  0  0  0
   26.1921   19.3520   -3.3318 N   0  0  0  0  0  0  0  0  0  0  0  0
   28.9536   22.6267    0.2012 C   0  0  2  0  0  0  0  0  0  0  0  0
   29.8014   21.7580    0.9381 O   0  0  0  0  0  0  0  0  0  0  0  0
   29.6578   18.2128   -0.4697 C   0  0  1  0  0  0  0  0  0  0  0  0
   30.5126   17.6402    0.5833 O   0  0  0  0  0  0  0  0  0  0  0  0
   25.4081   29.3649    6.1577 C   0  0  0  0  0  0  0  0  0  0  0  0
   28.2932   21.5851   -7.0160 C   0  0  2  0  0  0  0  0  0  0  0  0
   27.9933   22.4686   -8.1686 O   0  0  0  0  0  0  0  0  0  0  0  0
   26.5441   21.6011   -2.3766 C   0  0  2  0  0  0  0  0  0  0  0  0
   29.3523   24.1188    0.2945 C   0  0  1  0  0  0  0  0  0  0  0  0
   28.0833   17.9514   -0.1556 C   0  0  2  0  0  0  0  0  0  0  0  0
   27.2227   18.5214   -1.2038 O   0  0  0  0  0  0  0  0  0  0  0  0
   25.0420   28.7193    4.9510 C   0  0  0  0  0  0  0  0  0  0  0  0
   26.9312   21.1175   -6.3727 C   0  0  2  0  0  0  0  0  0  0  0  0
   27.2908   20.2626   -5.2526 O   0  0  0  0  0  0  0  0  0  0  0  0
   25.7406   22.8554   -1.8865 C   0  0  2  0  0  0  0  0  0  0  0  0
   26.7687   23.7526   -1.4846 O   0  0  0  0  0  0  0  0  0  0  0  0
   30.3245   24.5325   -0.8091 C   0  0  0  0  0  0  0  0  0  0  0  0
   31.6789   24.2370   -0.5653 O   0  0  0  0  0  0  0  0  0  0  0  0
   27.7086   18.5991    1.2561 C   0  0  1  0  0  0  0  0  0  0  0  0
   28.0532   20.0736    1.2148 O   0  0  0  0  0  0  0  0  0  0  0  0
   25.2474   27.2580    4.8210 C   0  0  0  0  0  0  0  0  0  0  0  0
   26.1605   20.4121   -7.4092 C   0  0  0  0  0  0  0  0  0  0  0  0
   25.8080   21.2765   -8.3690 O   0  0  0  0  0  0  0  0  0  0  0  0
   24.7735   22.4697   -0.6894 C   0  0  1  0  0  0  0  0  0  0  0  0
   24.0617   23.5887   -0.2737 O   0  0  0  0  0  0  0  0  0  0  0  0
   27.9112   22.8230    3.2132 C   0  0  0  0  0  0  0  0  0  0  0  0
   26.1983   18.3290    1.4962 C   0  0  0  0  0  0  0  0  0  0  0  0
   26.0178   17.1898    2.3613 N   0  0  0  0  0  0  0  0  0  0  0  0
   26.9884   22.9951    4.4241 C   0  0  0  0  0  0  0  0  0  0  0  0
   26.5138   24.4152    4.4919 N   0  0  0  0  0  0  0  0  0  0  0  0
   26.0815   24.9120    5.8977 C   0  0  0  0  0  0  0  0  0  0  0  0
  1  2  1  6  0  0  0
  1  9  1  0  0  0  0
  1 35  1  0  0  0  0
  3  4  1  1  0  0  0
  3 11  1  0  0  0  0
  3 45  1  0  0  0  0
  5  6  1  0  0  0  0
  5 12  1  0  0  0  0
  5 37  1  6  0  0  0
  6 30  1  0  0  0  0
  7 14  1  0  0  0  0
  7 41  1  0  0  0  0
  7 23  1  6  0  0  0
  8 16  2  0  0  0  0
  8 42  1  0  0  0  0
  9 10  1  1  0  0  0
  9 18  1  0  0  0  0
 11 20  1  0  0  0  0
 12 13  1  1  0  0  0
 12 22  1  0  0  0  0
 13 47  1  0  0  0  0
 14 15  1  6  0  0  0
 14 24  1  0  0  0  0
 16 17  1  0  0  0  0
 17 26  2  0  0  0  0
 18 19  1  6  0  0  0
 18 27  1  0  0  0  0
 20 21  1  1  0  0  0
 20 29  1  0  0  0  0
 22 23  1  1  0  0  0
 22 30  1  0  0  0  0
 24 25  1  1  0  0  0
 24 31  1  0  0  0  0
 26 33  1  0  0  0  0
 27 28  1  6  0  0  0
 27 34  1  0  0  0  0
 29  2  1  6  0  0  0
 29 36  1  0  0  0  0
 30 38  1  6  0  0  0
 31 32  1  6  0  0  0
 31 40  1  0  0  0  0
 33 42  2  0  0  0  0
 34 35  1  0  0  0  0
 34 43  1  6  0  0  0
 36 37  1  1  0  0  0
 36 45  1  0  0  0  0
 38 39  1  0  0  0  0
 40 41  1  0  0  0  0
 40 48  1  6  0  0  0
 43 44  1  0  0  0  0
 45 46  1  6  0  0  0
 47 50  1  0  0  0  0
 48 49  1  0  0  0  0
 50 51  1  0  0  0  0
 51 52  1  0  0  0  0
 52  8  1  0  0  0  0
M  END
>  <CHROM.1>
-152.86516553,178.90893333,73.47574135,-119.75062426,-176.49592930,58.05102212
-52.02677727,161.18990252,-66.43524048,-103.71123102,98.72378077,-73.66658447
-155.78322810,170.04778241,-144.56849674,27.35570239,22.20535773,-0.57837656
0.72505435,1.38450824,-1.20222363

>  <Name>
2be0_lig

>  <RI>
0

>  <Rbt.Current_Directory>
/home/itssahil/PROJECTS/Mol_Feturizer/New_Systems/rnas/2be0

>  <Rbt.Executable>
rbdock ($Id: //depot/dev/client3/rdock/2013.1/src/exe/rbdock.cxx#4 $)

>  <Rbt.Library>
libRbt.so (2013.1, Build901 2013/11/27)

>  <Rbt.Parameter_File>
/export/apps/rDock/src/rDock_2013.1_src/data/scripts/dock_solv.prm

>  <Rbt.Receptor>
prm/blind_docking_40.prm

>  <SCORE>
3.30707

>  <SCORE.INTER>
-4.98493

>  <SCORE.INTER.CONST>
1

>  <SCORE.INTER.POLAR>
0

>  <SCORE.INTER.ROT>
15

>  <SCORE.INTER.SOLV>
26.228

>  <SCORE.INTER.VDW>
-25.6659

>  <SCORE.INTER.norm>
-0.095864

>  <SCORE.INTRA>
-1.52826

>  <SCORE.INTRA.DIHEDRAL>
-23.7353

>  <SCORE.INTRA.DIHEDRAL.0>
47.8724

>  <SCORE.INTRA.POLAR>
0

>  <SCORE.INTRA.POLAR.0>
0

>  <SCORE.INTRA.REPUL>
0

>  <SCORE.INTRA.REPUL.0>
0

>  <SCORE.INTRA.SOLV>
9.31369

>  <SCORE.INTRA.SOLV.lig_0>
-115.677

>  <SCORE.INTRA.VDW>
5.68255

>  <SCORE.INTRA.VDW.0>
-7.4833

>  <SCORE.INTRA.norm>
-0.0293895

>  <SCORE.RESTR>
9.82025

>  <SCORE.RESTR.CAVITY>
9.82025

>  <SCORE.RESTR.norm>
0.188851

>  <SCORE.SYSTEM>
0

>  <SCORE.SYSTEM.CONST>
0

>  <SCORE.SYSTEM.DIHEDRAL>
0

>  <SCORE.SYSTEM.SOLV>
0

>  <SCORE.SYSTEM.norm>
0

>  <SCORE.heavy>
52

>  <SCORE.norm>
0.0635974

>  <RMSD>
25.312

$$$$
2be0_lig
 OpenBabel11021811423D
libRbt.so/2013.1/901 2013/11/27
 52 56  0  0  0  0  0  0  0  0999 V2000
   26.3101   20.4294   -6.1289 C   0  0  2  0  0  0  0  0  0  0  0  0
   24.9259   20.2661   -6.3296 O   0  0  0  0  0  0  0  0  0  0  0  0
   21.7277   19.4118   -3.4291 C   0  0  2  0  0  0  0  0  0  0  0  0
   20.9015   18.6600   -2.4433 N   0  0  0  0  0  0  0  0  0  0  0  0
   25.8206   21.6227   -2.8109 C   0  0  2  0  0  0  0  0  0  0  0  0
   27.0385   22.2111   -3.3118 O   0  0  0  0  0  0  0  0  0  0  0  0
   28.2736   21.5639    0.6782 C   0  0  1  0  0  0  0  0  0  0  0  0
   25.5896   25.0495    3.9725 C   0  0  0  0  0  0  0  0  0  0  0  0
   26.7431   21.9397   -6.3220 C   0  0  2  0  0  0  0  0  0  0  0  0
   25.9361   22.8012   -5.4554 N   0  0  0  0  0  0  0  0  0  0  0  0
   21.7793   18.5942   -4.7992 C   0  0  0  0  0  0  0  0  0  0  0  0
   26.0951   21.2062   -1.3570 C   0  0  2  0  0  0  0  0  0  0  0  0
   25.8314   22.4566   -0.5795 O   0  0  0  0  0  0  0  0  0  0  0  0
   29.7719   22.1802    0.8073 C   0  0  2  0  0  0  0  0  0  0  0  0
   30.7178   21.0732    1.1618 N   0  0  0  0  0  0  0  0  0  0  0  0
   24.5528   26.0251    4.1401 C   0  0  0  0  0  0  0  0  0  0  0  0
   24.7010   27.0488    5.1124 N   0  0  0  0  0  0  0  0  0  0  0  0
   26.6070   22.3449   -7.8625 C   0  0  1  0  0  0  0  0  0  0  0  0
   26.9921   23.7026   -8.0127 O   0  0  0  0  0  0  0  0  0  0  0  0
   22.6898   19.3799   -5.9054 C   0  0  2  0  0  0  0  0  0  0  0  0
   22.7424   18.6554   -7.1438 N   0  0  0  0  0  0  0  0  0  0  0  0
   27.5403   20.7003   -1.5258 C   0  0  2  0  0  0  0  0  0  0  0  0
   28.3139   20.5523   -0.3443 O   0  0  0  0  0  0  0  0  0  0  0  0
   29.7468   23.2692    1.9220 C   0  0  1  0  0  0  0  0  0  0  0  0
   28.8059   24.3044    1.4633 O   0  0  0  0  0  0  0  0  0  0  0  0
   25.8468   27.1622    5.9504 C   0  0  0  0  0  0  0  0  0  0  0  0
   27.5025   21.3919   -8.7063 C   0  0  2  0  0  0  0  0  0  0  0  0
   27.4145   21.7176  -10.1503 O   0  0  0  0  0  0  0  0  0  0  0  0
   24.1581   19.5827   -5.3464 C   0  0  2  0  0  0  0  0  0  0  0  0
   28.1468   21.6867   -2.5521 C   0  0  1  0  0  0  0  0  0  0  0  0
   29.2599   22.6140    3.3289 C   0  0  2  0  0  0  0  0  0  0  0  0
   30.1955   21.5780    3.7934 O   0  0  0  0  0  0  0  0  0  0  0  0
   26.9044   26.2273    5.8295 C   0  0  0  0  0  0  0  0  0  0  0  0
   27.0564   19.8932   -8.5004 C   0  0  2  0  0  0  0  0  0  0  0  0
   27.1604   19.6377   -7.0725 O   0  0  0  0  0  0  0  0  0  0  0  0
   24.0504   20.3787   -3.9995 C   0  0  2  0  0  0  0  0  0  0  0  0
   25.4093   20.5119   -3.6011 O   0  0  0  0  0  0  0  0  0  0  0  0
   29.0797   20.9947   -3.5446 C   0  0  0  0  0  0  0  0  0  0  0  0
   29.8785   21.8523   -4.3240 O   0  0  0  0  0  0  0  0  0  0  0  0
   27.8057   21.9785    3.1439 C   0  0  1  0  0  0  0  0  0  0  0  0
   27.8647   20.9621    2.0222 O   0  0  0  0  0  0  0  0  0  0  0  0
   26.7977   25.1392    4.8301 C   0  0  0  0  0  0  0  0  0  0  0  0
   27.9493   19.0416   -9.3026 C   0  0  0  0  0  0  0  0  0  0  0  0
   27.5876   19.1042  -10.5902 O   0  0  0  0  0  0  0  0  0  0  0  0
   23.1863   19.5739   -2.9397 C   0  0  1  0  0  0  0  0  0  0  0  0
   23.0917   20.2965   -1.7563 O   0  0  0  0  0  0  0  0  0  0  0  0
   26.4764   23.7827   -0.7268 C   0  0  0  0  0  0  0  0  0  0  0  0
   27.3997   21.3612    4.5098 C   0  0  0  0  0  0  0  0  0  0  0  0
   26.8948   22.3795    5.3968 N   0  0  0  0  0  0  0  0  0  0  0  0
   26.0451   24.6322    0.4731 C   0  0  0  0  0  0  0  0  0  0  0  0
   26.4671   23.9544    1.7416 N   0  0  0  0  0  0  0  0  0  0  0  0
   25.3956   23.9034    2.8639 C   0  0  0  0  0  0  0  0  0  0  0  0
  1  2  1  6  0  0  0
  1  9  1  0  0  0  0
  1 35  1  0  0  0  0
  3  4  1  1  0  0  0
  3 11  1  0  0  0  0
  3 45  1  0  0  0  0
  5  6  1  0  0  0  0
  5 12  1  0  0  0  0
  5 37  1  6  0  0  0
  6 30  1  0  0  0  0
  7 14  1  0  0  0  0
  7 41  1  0  0  0  0
  7 23  1  6  0  0  0
  8 16  2  0  0  0  0
  8 42  1  0  0  0  0
  9 10  1  1  0  0  0
  9 18  1  0  0  0  0
 11 20  1  0  0  0  0
 12 13  1  1  0  0  0
 12 22  1  0  0  0  0
 13 47  1  0  0  0  0
 14 15  1  1  0  0  0
 14 24  1  0  0  0  0
 16 17  1  0  0  0  0
 17 26  2  0  0  0  0
 18 19  1  1  0  0  0
 18 27  1  0  0  0  0
 20 21  1  6  0  0  0
 20 29  1  0  0  0  0
 22 23  1  1  0  0  0
 22 30  1  0  0  0  0
 24 25  1  6  0  0  0
 24 31  1  0  0  0  0
 26 33  1  0  0  0  0
 27 28  1  6  0  0  0
 27 34  1  0  0  0  0
 29  2  1  6  0  0  0
 29 36  1  0  0  0  0
 30 38  1  6  0  0  0
 31 32  1  6  0  0  0
 31 40  1  0  0  0  0
 33 42  2  0  0  0  0
 34 35  1  0  0  0  0
 34 43  1  6  0  0  0
 36 37  1  1  0  0  0
 36 45  1  0  0  0  0
 38 39  1  0  0  0  0
 40 41  1  0  0  0  0
 40 48  1  1  0  0  0
 43 44  1  0  0  0  0
 45 46  1  1  0  0  0
 47 50  1  0  0  0  0
 48 49  1  0  0  0  0
 50 51  1  0  0  0  0
 51 52  1  0  0  0  0
 52  8  1  0  0  0  0
M  END
>  <CHROM.1>
-129.15089947,-134.38641572,-117.36294366,-58.07955631,-169.36170838,-42.99370858
-172.80544843,76.42656992,-77.39020409,151.60488087,81.19398623,58.94617452
-134.72347813,-98.73031578,117.55331065,26.47827478,21.82985750,-1.88876753
-1.68086745,0.20238313,1.27110462

>  <Name>
2be0_lig

>  <RI>
0

>  <Rbt.Current_Directory>
/home/itssahil/PROJECTS/Mol_Feturizer/New_Systems/rnas/2be0

>  <Rbt.Executable>
rbdock ($Id: //depot/dev/client3/rdock/2013.1/src/exe/rbdock.cxx#4 $)

>  <Rbt.Library>
libRbt.so (2013.1, Build901 2013/11/27)

>  <Rbt.Parameter_File>
/export/apps/rDock/src/rDock_2013.1_src/data/scripts/dock_solv.prm

>  <Rbt.Receptor>
prm/blind_docking_40.prm

>  <SCORE>
18.7249

>  <SCORE.INTER>
4.25081

>  <SCORE.INTER.CONST>
1

>  <SCORE.INTER.POLAR>
0

>  <SCORE.INTER.ROT>
15

>  <SCORE.INTER.SOLV>
19.752

>  <SCORE.INTER.VDW>
-17.3501

>  <SCORE.INTER.norm>
0.0817464

>  <SCORE.INTRA>
-2.24777

>  <SCORE.INTRA.DIHEDRAL>
-15.7296

>  <SCORE.INTRA.DIHEDRAL.0>
47.8724

>  <SCORE.INTRA.POLAR>
0

>  <SCORE.INTRA.POLAR.0>
0

>  <SCORE.INTRA.REPUL>
0

>  <SCORE.INTRA.REPUL.0>
0

>  <SCORE.INTRA.SOLV>
8.38592

>  <SCORE.INTRA.SOLV.lig_0>
-115.677

>  <SCORE.INTRA.VDW>
1.42405

>  <SCORE.INTRA.VDW.0>
-7.4833

>  <SCORE.INTRA.norm>
-0.0432263

>  <SCORE.RESTR>
16.7219

>  <SCORE.RESTR.CAVITY>
16.7219

>  <SCORE.RESTR.norm>
0.321575

>  <SCORE.SYSTEM>
0

>  <SCORE.SYSTEM.CONST>
0

>  <SCORE.SYSTEM.DIHEDRAL>
0

>  <SCORE.SYSTEM.SOLV>
0

>  <SCORE.SYSTEM.norm>
0

>  <SCORE.heavy>
52

>  <SCORE.norm>
0.360095

>  <RMSD>
25.319

$$$$
2be0_lig
 OpenBabel11021811423D
libRbt.so/2013.1/901 2013/11/27
 52 56  0  0  0  0  0  0  0  0999 V2000
   26.1496   19.6717   -4.0689 C   0  0  2  0  0  0  0  0  0  0  0  0
   25.2883   20.3752   -3.2052 O   0  0  0  0  0  0  0  0  0  0  0  0
   21.2408   19.5883   -1.6659 C   0  0  2  0  0  0  0  0  0  0  0  0
   20.0853   18.8412   -1.0948 N   0  0  0  0  0  0  0  0  0  0  0  0
   24.9822   21.4319    0.4991 C   0  0  2  0  0  0  0  0  0  0  0  0
   24.6337   22.7261   -0.0338 O   0  0  0  0  0  0  0  0  0  0  0  0
   29.4177   22.2378    0.3337 C   0  0  1  0  0  0  0  0  0  0  0  0
   27.1233   24.2954    7.3462 C   0  0  0  0  0  0  0  0  0  0  0  0
   27.6669   19.9941   -3.7531 C   0  0  2  0  0  0  0  0  0  0  0  0
   27.9440   19.7371   -2.3382 N   0  0  0  0  0  0  0  0  0  0  0  0
   21.7236   18.8618   -3.0029 C   0  0  0  0  0  0  0  0  0  0  0  0
   26.4457   21.5221    0.9601 C   0  0  2  0  0  0  0  0  0  0  0  0
   26.3427   22.0831    2.3428 O   0  0  0  0  0  0  0  0  0  0  0  0
   30.6870   23.2514    0.3860 C   0  0  2  0  0  0  0  0  0  0  0  0
   30.8066   23.9404   -0.9394 N   0  0  0  0  0  0  0  0  0  0  0  0
   26.4614   25.5057    6.9564 C   0  0  0  0  0  0  0  0  0  0  0  0
   26.8198   26.7331    7.5728 N   0  0  0  0  0  0  0  0  0  0  0  0
   27.9913   21.5054   -4.1612 C   0  0  1  0  0  0  0  0  0  0  0  0
   29.3522   21.7762   -3.8635 O   0  0  0  0  0  0  0  0  0  0  0  0
   23.0016   19.6440   -3.6546 C   0  0  2  0  0  0  0  0  0  0  0  0
   23.4444   19.0014   -4.8597 N   0  0  0  0  0  0  0  0  0  0  0  0
   26.9988   22.3963   -0.1814 C   0  0  2  0  0  0  0  0  0  0  0  0
   28.2515   23.0276    0.0387 O   0  0  0  0  0  0  0  0  0  0  0  0
   31.9609   22.4072    0.6915 C   0  0  1  0  0  0  0  0  0  0  0  0
   31.7407   21.7949    2.0121 O   0  0  0  0  0  0  0  0  0  0  0  0
   27.8212   26.8313    8.5806 C   0  0  0  0  0  0  0  0  0  0  0  0
   27.6824   21.6866   -5.6758 C   0  0  2  0  0  0  0  0  0  0  0  0
   27.9613   23.0756   -6.1141 O   0  0  0  0  0  0  0  0  0  0  0  0
   24.1919   19.6916   -2.6103 C   0  0  2  0  0  0  0  0  0  0  0  0
   25.8421   23.3829   -0.4687 C   0  0  1  0  0  0  0  0  0  0  0  0
   32.1646   21.2724   -0.4560 C   0  0  2  0  0  0  0  0  0  0  0  0
   32.3849   21.8771   -1.7789 O   0  0  0  0  0  0  0  0  0  0  0  0
   28.5103   25.6689    9.0059 C   0  0  0  0  0  0  0  0  0  0  0  0
   26.1676   21.3606   -5.9703 C   0  0  2  0  0  0  0  0  0  0  0  0
   25.9573   19.9947   -5.5176 O   0  0  0  0  0  0  0  0  0  0  0  0
   23.6636   20.4025   -1.3164 C   0  0  2  0  0  0  0  0  0  0  0  0
   24.8038   20.4002   -0.4659 O   0  0  0  0  0  0  0  0  0  0  0  0
   25.6799   23.6725   -1.9600 C   0  0  0  0  0  0  0  0  0  0  0  0
   26.2315   22.7108   -2.8272 O   0  0  0  0  0  0  0  0  0  0  0  0
   30.8755   20.3298   -0.5058 C   0  0  1  0  0  0  0  0  0  0  0  0
   29.6575   21.1946   -0.7572 O   0  0  0  0  0  0  0  0  0  0  0  0
   28.1725   24.3629    8.3939 C   0  0  0  0  0  0  0  0  0  0  0  0
   25.9421   21.5278   -7.4151 C   0  0  0  0  0  0  0  0  0  0  0  0
   26.5407   20.5307   -8.0785 O   0  0  0  0  0  0  0  0  0  0  0  0
   22.4441   19.6008   -0.6938 C   0  0  1  0  0  0  0  0  0  0  0  0
   21.9811   20.2486    0.4453 O   0  0  0  0  0  0  0  0  0  0  0  0
   26.4675   23.4961    2.7722 C   0  0  0  0  0  0  0  0  0  0  0  0
   31.1214   19.2780   -1.6215 C   0  0  0  0  0  0  0  0  0  0  0  0
   30.1040   18.2570   -1.5894 N   0  0  0  0  0  0  0  0  0  0  0  0
   26.0023   23.5695    4.2301 C   0  0  0  0  0  0  0  0  0  0  0  0
   27.0152   22.9029    5.1111 N   0  0  0  0  0  0  0  0  0  0  0  0
   26.6985   22.9213    6.6309 C   0  0  0  0  0  0  0  0  0  0  0  0
  1  2  1  1  0  0  0
  1  9  1  0  0  0  0
  1 35  1  0  0  0  0
  3  4  1  1  0  0  0
  3 11  1  0  0  0  0
  3 45  1  0  0  0  0
  5  6  1  0  0  0  0
  5 12  1  0  0  0  0
  5 37  1  6  0  0  0
  6 30  1  0  0  0  0
  7 14  1  0  0  0  0
  7 41  1  0  0  0  0
  7 23  1  6  0  0  0
  8 16  2  0  0  0  0
  8 42  1  0  0  0  0
  9 10  1  1  0  0  0
  9 18  1  0  0  0  0
 11 20  1  0  0  0  0
 12 13  1  1  0  0  0
 12 22  1  0  0  0  0
 13 47  1  0  0  0  0
 14 15  1  6  0  0  0
 14 24  1  0  0  0  0
 16 17  1  0  0  0  0
 17 26  2  0  0  0  0
 18 19  1  6  0  0  0
 18 27  1  0  0  0  0
 20 21  1  6  0  0  0
 20 29  1  0  0  0  0
 22 23  1  1  0  0  0
 22 30  1  0  0  0  0
 24 25  1  1  0  0  0
 24 31  1  0  0  0  0
 26 33  1  0  0  0  0
 27 28  1  1  0  0  0
 27 34  1  0  0  0  0
 29  2  1  6  0  0  0
 29 36  1  0  0  0  0
 30 38  1  6  0  0  0
 31 32  1  6  0  0  0
 31 40  1  0  0  0  0
 33 42  2  0  0  0  0
 34 35  1  0  0  0  0
 34 43  1  6  0  0  0
 36 37  1  1  0  0  0
 36 45  1  0  0  0  0
 38 39  1  0  0  0  0
 40 41  1  0  0  0  0
 40 48  1  6  0  0  0
 43 44  1  0  0  0  0
 45 46  1  1  0  0  0
 47 50  1  0  0  0  0
 48 49  1  0  0  0  0
 50 51  1  0  0  0  0
 51 52  1  0  0  0  0
 52  8  1  0  0  0  0
M  END
>  <CHROM.1>
-135.12482224,-41.33979652,174.72025372,-95.88484487,168.70830738,58.64807959
-82.02591838,-95.13872407,71.46232428,150.58670486,170.73458330,70.86479132
178.77234503,-82.41419254,64.32995609,26.90613808,21.76163186,-0.44763246
1.75641839,-0.17383803,-1.89930302

>  <Name>
2be0_lig

>  <RI>
0

>  <Rbt.Current_Directory>
/home/itssahil/PROJECTS/Mol_Feturizer/New_Systems/rnas/2be0

>  <Rbt.Executable>
rbdock ($Id: //depot/dev/client3/rdock/2013.1/src/exe/rbdock.cxx#4 $)

>  <Rbt.Library>
libRbt.so (2013.1, Build901 2013/11/27)

>  <Rbt.Parameter_File>
/export/apps/rDock/src/rDock_2013.1_src/data/scripts/dock_solv.prm

>  <Rbt.Receptor>
prm/blind_docking_40.prm

>  <SCORE>
-0.825966

>  <SCORE.INTER>
-10.8057

>  <SCORE.INTER.CONST>
1

>  <SCORE.INTER.POLAR>
-0.536233

>  <SCORE.INTER.ROT>
15

>  <SCORE.INTER.SOLV>
16.2598

>  <SCORE.INTER.VDW>
-24.4362

>  <SCORE.INTER.norm>
-0.207801

>  <SCORE.INTRA>
-5.49773

>  <SCORE.INTRA.DIHEDRAL>
-23.5905

>  <SCORE.INTRA.DIHEDRAL.0>
47.8724

>  <SCORE.INTRA.POLAR>
0

>  <SCORE.INTRA.POLAR.0>
0

>  <SCORE.INTRA.REPUL>
0.347638

>  <SCORE.INTRA.REPUL.0>
0

>  <SCORE.INTRA.SOLV>
7.73559

>  <SCORE.INTRA.SOLV.lig_0>
-115.677

>  <SCORE.INTRA.VDW>
0.691535

>  <SCORE.INTRA.VDW.0>
-7.4833

>  <SCORE.INTRA.norm>
-0.105725

>  <SCORE.RESTR>
15.4774

>  <SCORE.RESTR.CAVITY>
15.4774

>  <SCORE.RESTR.norm>
0.297643

>  <SCORE.SYSTEM>
0

>  <SCORE.SYSTEM.CONST>
0

>  <SCORE.SYSTEM.DIHEDRAL>
0

>  <SCORE.SYSTEM.SOLV>
0

>  <SCORE.SYSTEM.norm>
0

>  <SCORE.heavy>
52

>  <SCORE.norm>
-0.015884

>  <RMSD>
25.467

$$$$
2be0_lig
 OpenBabel11021811423D
libRbt.so/2013.1/901 2013/11/27
 52 56  0  0  0  0  0  0  0  0999 V2000
   26.4117   19.7994   -4.3522 C   0  0  2  0  0  0  0  0  0  0  0  0
   25.4120   20.4542   -3.6075 O   0  0  0  0  0  0  0  0  0  0  0  0
   21.5970   19.3345   -1.7197 C   0  0  2  0  0  0  0  0  0  0  0  0
   20.5586   18.4913   -1.0639 N   0  0  0  0  0  0  0  0  0  0  0  0
   25.3164   21.2931    0.2559 C   0  0  2  0  0  0  0  0  0  0  0  0
   24.8164   22.6040   -0.0787 O   0  0  0  0  0  0  0  0  0  0  0  0
   29.5719   22.5730    0.3275 C   0  0  1  0  0  0  0  0  0  0  0  0
   26.3332   25.4454    6.3818 C   0  0  0  0  0  0  0  0  0  0  0  0
   27.8302   20.4599   -4.1125 C   0  0  2  0  0  0  0  0  0  0  0  0
   28.1222   20.4997   -2.6780 N   0  0  0  0  0  0  0  0  0  0  0  0
   22.0024   18.6735   -3.1151 C   0  0  0  0  0  0  0  0  0  0  0  0
   26.7862   21.4716    0.6686 C   0  0  2  0  0  0  0  0  0  0  0  0
   26.7012   21.8285    2.1187 O   0  0  0  0  0  0  0  0  0  0  0  0
   30.7443   22.9071   -0.7472 C   0  0  2  0  0  0  0  0  0  0  0  0
   30.2983   22.4491   -2.1026 N   0  0  0  0  0  0  0  0  0  0  0  0
   25.1965   25.9160    5.6461 C   0  0  0  0  0  0  0  0  0  0  0  0
   24.5644   27.1283    6.0281 N   0  0  0  0  0  0  0  0  0  0  0  0
   27.8628   21.9166   -4.7702 C   0  0  1  0  0  0  0  0  0  0  0  0
   29.1385   22.4936   -4.5379 O   0  0  0  0  0  0  0  0  0  0  0  0
   23.1523   19.5625   -3.8616 C   0  0  2  0  0  0  0  0  0  0  0  0
   23.5243   18.9795   -5.1198 N   0  0  0  0  0  0  0  0  0  0  0  0
   27.1914   22.5434   -0.3609 C   0  0  2  0  0  0  0  0  0  0  0  0
   28.3866   23.2658   -0.1035 O   0  0  0  0  0  0  0  0  0  0  0  0
   32.0322   22.1516   -0.3004 C   0  0  1  0  0  0  0  0  0  0  0  0
   32.3845   22.6890    1.0242 O   0  0  0  0  0  0  0  0  0  0  0  0
   25.0052   27.9198    7.1269 C   0  0  0  0  0  0  0  0  0  0  0  0
   27.5565   21.7808   -6.2901 C   0  0  2  0  0  0  0  0  0  0  0  0
   27.5689   23.1054   -6.9566 O   0  0  0  0  0  0  0  0  0  0  0  0
   24.4297   19.6782   -2.9319 C   0  0  2  0  0  0  0  0  0  0  0  0
   25.9309   23.4347   -0.4643 C   0  0  1  0  0  0  0  0  0  0  0  0
   31.7424   20.5527   -0.2280 C   0  0  2  0  0  0  0  0  0  0  0  0
   31.3892   20.0086   -1.5484 O   0  0  0  0  0  0  0  0  0  0  0  0
   26.1243   27.5057    7.8904 C   0  0  0  0  0  0  0  0  0  0  0  0
   26.1407   21.1209   -6.5083 C   0  0  2  0  0  0  0  0  0  0  0  0
   26.1908   19.8344   -5.8321 O   0  0  0  0  0  0  0  0  0  0  0  0
   23.9763   20.3211   -1.5754 C   0  0  2  0  0  0  0  0  0  0  0  0
   25.1892   20.3872   -0.8353 O   0  0  0  0  0  0  0  0  0  0  0  0
   25.6639   23.9033   -1.8937 C   0  0  0  0  0  0  0  0  0  0  0  0
   26.3174   23.1715   -2.9030 O   0  0  0  0  0  0  0  0  0  0  0  0
   30.5528   20.2745    0.8017 C   0  0  1  0  0  0  0  0  0  0  0  0
   29.3382   21.0630    0.3570 O   0  0  0  0  0  0  0  0  0  0  0  0
   26.8185   26.2469    7.5328 C   0  0  0  0  0  0  0  0  0  0  0  0
   25.9174   20.9994   -7.9579 C   0  0  0  0  0  0  0  0  0  0  0  0
   24.8522   20.2195   -8.1815 O   0  0  0  0  0  0  0  0  0  0  0  0
   22.8831   19.4176   -0.8640 C   0  0  1  0  0  0  0  0  0  0  0  0
   22.4844   20.0056    0.3305 O   0  0  0  0  0  0  0  0  0  0  0  0
   27.8026   21.9328    3.1048 C   0  0  0  0  0  0  0  0  0  0  0  0
   30.3143   18.7401    0.8205 C   0  0  0  0  0  0  0  0  0  0  0  0
   29.7018   18.3067   -0.4106 N   0  0  0  0  0  0  0  0  0  0  0  0
   27.8529   23.3899    3.5755 C   0  0  0  0  0  0  0  0  0  0  0  0
   26.6813   23.6664    4.4685 N   0  0  0  0  0  0  0  0  0  0  0  0
   27.0293   24.0712    5.9263 C   0  0  0  0  0  0  0  0  0  0  0  0
  1  2  1  1  0  0  0
  1  9  1  0  0  0  0
  1 35  1  0  0  0  0
  3  4  1  1  0  0  0
  3 11  1  0  0  0  0
  3 45  1  0  0  0  0
  5  6  1  0  0  0  0
  5 12  1  0  0  0  0
  5 37  1  6  0  0  0
  6 30  1  0  0  0  0
  7 14  1  0  0  0  0
  7 41  1  0  0  0  0
  7 23  1  6  0  0  0
  8 16  2  0  0  0  0
  8 42  1  0  0  0  0
  9 10  1  1  0  0  0
  9 18  1  0  0  0  0
 11 20  1  0  0  0  0
 12 13  1  1  0  0  0
 12 22  1  0  0  0  0
 13 47  1  0  0  0  0
 14 15  1  6  0  0  0
 14 24  1  0  0  0  0
 16 17  1  0  0  0  0
 17 26  2  0  0  0  0
 18 19  1  6  0  0  0
 18 27  1  0  0  0  0
 20 21  1  6  0  0  0
 20 29  1  0  0  0  0
 22 23  1  1  0  0  0
 22 30  1  0  0  0  0
 24 25  1  1  0  0  0
 24 31  1  0  0  0  0
 26 33  1  0  0  0  0
 27 28  1  1  0  0  0
 27 34  1  0  0  0  0
 29  2  1  6  0  0  0
 29 36  1  0  0  0  0
 30 38  1  6  0  0  0
 31 32  1  6  0  0  0
 31 40  1  0  0  0  0
 33 42  2  0  0  0  0
 34 35  1  0  0  0  0
 34 43  1  6  0  0  0
 36 37  1  1  0  0  0
 36 45  1  0  0  0  0
 38 39  1  0  0  0  0
 40 41  1  0  0  0  0
 40 48  1  6  0  0  0
 43 44  1  0  0  0  0
 45 46  1  1  0  0  0
 47 50  1  0  0  0  0
 48 49  1  0  0  0  0
 50 51  1  0  0  0  0
 51 52  1  0  0  0  0
 52  8  1  0  0  0  0
M  END
>  <CHROM.1>
-137.27969667,-45.69351467,122.41439824,170.50031542,116.93491370,44.76977915
-95.06676348,-98.35045352,168.28014746,158.96106062,-71.41110998,72.55928303
118.06160608,126.71745973,19.34326757,26.77456146,21.81552170,-0.73297161
1.66531866,-0.08217172,-1.98541749

>  <Name>
2be0_lig

>  <RI>
0

>  <Rbt.Current_Directory>
/home/itssahil/PROJECTS/Mol_Feturizer/New_Systems/rnas/2be0

>  <Rbt.Executable>
rbdock ($Id: //depot/dev/client3/rdock/2013.1/src/exe/rbdock.cxx#4 $)

>  <Rbt.Library>
libRbt.so (2013.1, Build901 2013/11/27)

>  <Rbt.Parameter_File>
/export/apps/rDock/src/rDock_2013.1_src/data/scripts/dock_solv.prm

>  <Rbt.Receptor>
prm/blind_docking_40.prm

>  <SCORE>
4.42892

>  <SCORE.INTER>
-9.81383

>  <SCORE.INTER.CONST>
1

>  <SCORE.INTER.POLAR>
-0.869864

>  <SCORE.INTER.ROT>
15

>  <SCORE.INTER.SOLV>
15.21

>  <SCORE.INTER.VDW>
-22.313

>  <SCORE.INTER.norm>
-0.188728

>  <SCORE.INTRA>
2.87014

>  <SCORE.INTRA.DIHEDRAL>
-10.0092

>  <SCORE.INTRA.DIHEDRAL.0>
47.8724

>  <SCORE.INTRA.POLAR>
0

>  <SCORE.INTRA.POLAR.0>
0

>  <SCORE.INTRA.REPUL>
0.414417

>  <SCORE.INTRA.REPUL.0>
0

>  <SCORE.INTRA.SOLV>
11.6499

>  <SCORE.INTRA.SOLV.lig_0>
-115.677

>  <SCORE.INTRA.VDW>
-0.022295

>  <SCORE.INTRA.VDW.0>
-7.4833

>  <SCORE.INTRA.norm>
0.0551949

>  <SCORE.RESTR>
11.3726

>  <SCORE.RESTR.CAVITY>
11.3726

>  <SCORE.RESTR.norm>
0.218704

>  <SCORE.SYSTEM>
0

>  <SCORE.SYSTEM.CONST>
0

>  <SCORE.SYSTEM.DIHEDRAL>
0

>  <SCORE.SYSTEM.SOLV>
0

>  <SCORE.SYSTEM.norm>
0

>  <SCORE.heavy>
52

>  <SCORE.norm>
0.0851715

>  <RMSD>
25.498

$$$$
2be0_lig
 OpenBabel11021811423D
libRbt.so/2013.1/901 2013/11/27
 52 56  0  0  0  0  0  0  0  0999 V2000
   27.8140   20.6757   -4.1901 C   0  0  2  0  0  0  0  0  0  0  0  0
   27.2578   21.7697   -3.4997 O   0  0  0  0  0  0  0  0  0  0  0  0
   23.6650   21.5167   -0.9702 C   0  0  2  0  0  0  0  0  0  0  0  0
   22.8044   21.2042    0.2051 N   0  0  0  0  0  0  0  0  0  0  0  0
   27.1156   23.9617   -0.1840 C   0  0  2  0  0  0  0  0  0  0  0  0
   28.2332   24.8672   -0.0774 O   0  0  0  0  0  0  0  0  0  0  0  0
   29.6288   20.3408    0.9145 C   0  0  1  0  0  0  0  0  0  0  0  0
   24.8555   27.0929    5.2146 C   0  0  0  0  0  0  0  0  0  0  0  0
   29.2458   21.0290   -4.7654 C   0  0  2  0  0  0  0  0  0  0  0  0
   30.1062   21.5191   -3.6865 N   0  0  0  0  0  0  0  0  0  0  0  0
   24.3545   20.1723   -1.4853 C   0  0  0  0  0  0  0  0  0  0  0  0
   27.5114   22.6794    0.5653 C   0  0  2  0  0  0  0  0  0  0  0  0
   27.1543   22.9805    1.9863 O   0  0  0  0  0  0  0  0  0  0  0  0
   29.9901   19.7956   -0.5733 C   0  0  2  0  0  0  0  0  0  0  0  0
   29.1025   20.4834   -1.5657 N   0  0  0  0  0  0  0  0  0  0  0  0
   25.1369   28.3760    4.6408 C   0  0  0  0  0  0  0  0  0  0  0  0
   25.5453   29.4467    5.4786 N   0  0  0  0  0  0  0  0  0  0  0  0
   29.1018   22.0959   -5.9473 C   0  0  1  0  0  0  0  0  0  0  0  0
   30.3952   22.4043   -6.4435 O   0  0  0  0  0  0  0  0  0  0  0  0
   25.3203   20.4748   -2.7681 C   0  0  2  0  0  0  0  0  0  0  0  0
   25.9452   19.2725   -3.2428 N   0  0  0  0  0  0  0  0  0  0  0  0
   28.9921   22.6093    0.1465 C   0  0  2  0  0  0  0  0  0  0  0  0
   29.8393   21.7642    0.9111 O   0  0  0  0  0  0  0  0  0  0  0  0
   29.7534   18.2552   -0.5887 C   0  0  1  0  0  0  0  0  0  0  0  0
   30.6814   17.6874    0.4032 O   0  0  0  0  0  0  0  0  0  0  0  0
   25.6925   29.3150    6.8889 C   0  0  0  0  0  0  0  0  0  0  0  0
   28.1866   21.4913   -7.0515 C   0  0  2  0  0  0  0  0  0  0  0  0
   28.0117   22.4406   -8.1773 O   0  0  0  0  0  0  0  0  0  0  0  0
   26.4331   21.5282   -2.3662 C   0  0  2  0  0  0  0  0  0  0  0  0
   29.4313   24.0929    0.1363 C   0  0  1  0  0  0  0  0  0  0  0  0
   28.2077   17.9259   -0.2037 C   0  0  2  0  0  0  0  0  0  0  0  0
   27.2744   18.4907   -1.1907 O   0  0  0  0  0  0  0  0  0  0  0  0
   25.4294   28.0703    7.5123 C   0  0  0  0  0  0  0  0  0  0  0  0
   26.7662   21.1459   -6.4594 C   0  0  2  0  0  0  0  0  0  0  0  0
   27.0043   20.2200   -5.3635 O   0  0  0  0  0  0  0  0  0  0  0  0
   25.7054   22.8213   -1.8588 C   0  0  2  0  0  0  0  0  0  0  0  0
   26.7867   23.6896   -1.5424 O   0  0  0  0  0  0  0  0  0  0  0  0
   30.3800   24.4119   -1.0181 C   0  0  0  0  0  0  0  0  0  0  0  0
   30.8751   25.7291   -1.0488 O   0  0  0  0  0  0  0  0  0  0  0  0
   27.8823   18.5209    1.2430 C   0  0  1  0  0  0  0  0  0  0  0  0
   28.1702   20.0080    1.2268 O   0  0  0  0  0  0  0  0  0  0  0  0
   24.9994   26.9216    6.6818 C   0  0  0  0  0  0  0  0  0  0  0  0
   25.9564   20.5605   -7.5399 C   0  0  0  0  0  0  0  0  0  0  0  0
   24.7358   20.2673   -7.0741 O   0  0  0  0  0  0  0  0  0  0  0  0
   24.8014   22.4974   -0.5958 C   0  0  1  0  0  0  0  0  0  0  0  0
   24.1558   23.6503   -0.1650 O   0  0  0  0  0  0  0  0  0  0  0  0
   25.9499   23.6719    2.5037 C   0  0  0  0  0  0  0  0  0  0  0  0
   26.3972   18.1873    1.5506 C   0  0  0  0  0  0  0  0  0  0  0  0
   25.5177   19.0400    0.7903 N   0  0  0  0  0  0  0  0  0  0  0  0
   26.2821   24.1651    3.9157 C   0  0  0  0  0  0  0  0  0  0  0  0
   25.0144   24.5283    4.6284 N   0  0  0  0  0  0  0  0  0  0  0  0
   24.3967   25.8993    4.2424 C   0  0  0  0  0  0  0  0  0  0  0  0
  1  2  1  6  0  0  0
  1  9  1  0  0  0  0
  1 35  1  0  0  0  0
  3  4  1  1  0  0  0
  3 11  1  0  0  0  0
  3 45  1  0  0  0  0
  5  6  1  0  0  0  0
  5 12  1  0  0  0  0
  5 37  1  6  0  0  0
  6 30  1  0  0  0  0
  7 14  1  0  0  0  0
  7 41  1  0  0  0  0
  7 23  1  6  0  0  0
  8 16  2  0  0  0  0
  8 42  1  0  0  0  0
  9 10  1  1  0  0  0
  9 18  1  0  0  0  0
 11 20  1  0  0  0  0
 12 13  1  1  0  0  0
 12 22  1  0  0  0  0
 13 47  1  0  0  0  0
 14 15  1  6  0  0  0
 14 24  1  0  0  0  0
 16 17  1  0  0  0  0
 17 26  2  0  0  0  0
 18 19  1  6  0  0  0
 18 27  1  0  0  0  0
 20 21  1  1  0  0  0
 20 29  1  0  0  0  0
 22 23  1  1  0  0  0
 22 30  1  0  0  0  0
 24 25  1  1  0  0  0
 24 31  1  0  0  0  0
 26 33  1  0  0  0  0
 27 28  1  6  0  0  0
 27 34  1  0  0  0  0
 29  2  1  6  0  0  0
 29 36  1  0  0  0  0
 30 38  1  6  0  0  0
 31 32  1  6  0  0  0
 31 40  1  0  0  0  0
 33 42  2  0  0  0  0
 34 35  1  0  0  0  0
 34 43  1  6  0  0  0
 36 37  1  1  0  0  0
 36 45  1  0  0  0  0
 38 39  1  0  0  0  0
 40 41  1  0  0  0  0
 40 48  1  6  0  0  0
 43 44  1  0  0  0  0
 45 46  1  6  0  0  0
 47 50  1  0  0  0  0
 48 49  1  0  0  0  0
 50 51  1  0  0  0  0
 51 52  1  0  0  0  0
 52  8  1  0  0  0  0
M  END
>  <CHROM.1>
-146.08223321,-179.68430748,67.93875356,41.33485924,-160.16758748,65.07456735
-51.20038608,66.88620910,-179.36466865,-107.04773913,-74.66880766,-164.46770559
-78.12963785,-93.91736932,140.60329413,27.14684798,22.30704772,-0.65437331
0.61880874,1.34162202,-1.17930667

>  <Name>
2be0_lig

>  <RI>
0

>  <Rbt.Current_Directory>
/home/itssahil/PROJECTS/Mol_Feturizer/New_Systems/rnas/2be0

>  <Rbt.Executable>
rbdock ($Id: //depot/dev/client3/rdock/2013.1/src/exe/rbdock.cxx#4 $)

>  <Rbt.Library>
libRbt.so (2013.1, Build901 2013/11/27)

>  <Rbt.Parameter_File>
/export/apps/rDock/src/rDock_2013.1_src/data/scripts/dock_solv.prm

>  <Rbt.Receptor>
prm/blind_docking_40.prm

>  <SCORE>
2.89596

>  <SCORE.INTER>
-6.33393

>  <SCORE.INTER.CONST>
1

>  <SCORE.INTER.POLAR>
0

>  <SCORE.INTER.ROT>
15

>  <SCORE.INTER.SOLV>
18.7358

>  <SCORE.INTER.VDW>
-24.0679

>  <SCORE.INTER.norm>
-0.121806

>  <SCORE.INTRA>
-1.67869

>  <SCORE.INTRA.DIHEDRAL>
-29.1966

>  <SCORE.INTRA.DIHEDRAL.0>
47.8724

>  <SCORE.INTRA.POLAR>
0

>  <SCORE.INTRA.POLAR.0>
0

>  <SCORE.INTRA.REPUL>
0

>  <SCORE.INTRA.REPUL.0>
0

>  <SCORE.INTRA.SOLV>
15.2209

>  <SCORE.INTRA.SOLV.lig_0>
-115.677

>  <SCORE.INTRA.VDW>
5.30917

>  <SCORE.INTRA.VDW.0>
-7.4833

>  <SCORE.INTRA.norm>
-0.0322825

>  <SCORE.RESTR>
10.9086

>  <SCORE.RESTR.CAVITY>
10.9086

>  <SCORE.RESTR.norm>
0.209781

>  <SCORE.SYSTEM>
0

>  <SCORE.SYSTEM.CONST>
0

>  <SCORE.SYSTEM.DIHEDRAL>
0

>  <SCORE.SYSTEM.SOLV>
0

>  <SCORE.SYSTEM.norm>
0

>  <SCORE.heavy>
52

>  <SCORE.norm>
0.0556916

>  <RMSD>
25.527

$$$$
2be0_lig
 OpenBabel11021811423D
libRbt.so/2013.1/901 2013/11/27
 52 56  0  0  0  0  0  0  0  0999 V2000
   25.9960   20.7520   -8.9377 C   0  0  2  0  0  0  0  0  0  0  0  0
   25.0149   19.8429   -8.4975 O   0  0  0  0  0  0  0  0  0  0  0  0
   21.1186   21.8589   -8.1431 C   0  0  2  0  0  0  0  0  0  0  0  0
   19.6954   22.2040   -8.4169 N   0  0  0  0  0  0  0  0  0  0  0  0
   23.7765   18.3533   -5.8888 C   0  0  2  0  0  0  0  0  0  0  0  0
   23.2009   17.2820   -5.1133 O   0  0  0  0  0  0  0  0  0  0  0  0
   21.7177   19.5677   -1.8406 C   0  0  1  0  0  0  0  0  0  0  0  0
   26.9652   22.0750   -1.6639 C   0  0  0  0  0  0  0  0  0  0  0  0
   27.4320   20.0859   -8.9467 C   0  0  2  0  0  0  0  0  0  0  0  0
   27.4015   18.8534   -9.7370 N   0  0  0  0  0  0  0  0  0  0  0  0
   21.9640   22.0226   -9.4873 C   0  0  0  0  0  0  0  0  0  0  0  0
   23.9310   19.5531   -4.9405 C   0  0  2  0  0  0  0  0  0  0  0  0
   25.2471   19.3048   -4.2744 O   0  0  0  0  0  0  0  0  0  0  0  0
   20.4366   20.5560   -1.6884 C   0  0  2  0  0  0  0  0  0  0  0  0
   20.9295   21.9380   -1.3839 N   0  0  0  0  0  0  0  0  0  0  0  0
   26.0196   22.7329   -2.5170 C   0  0  0  0  0  0  0  0  0  0  0  0
   24.9985   23.5372   -1.9466 N   0  0  0  0  0  0  0  0  0  0  0  0
   27.9112   19.8215   -7.4445 C   0  0  1  0  0  0  0  0  0  0  0  0
   29.1953   19.2180   -7.4749 O   0  0  0  0  0  0  0  0  0  0  0  0
   23.5318   21.6390   -9.2325 C   0  0  2  0  0  0  0  0  0  0  0  0
   24.3040   21.7844  -10.4341 N   0  0  0  0  0  0  0  0  0  0  0  0
   22.6252   19.3903   -4.1399 C   0  0  2  0  0  0  0  0  0  0  0  0
   22.5342   20.0869   -2.9058 O   0  0  0  0  0  0  0  0  0  0  0  0
   19.5491   20.0132   -0.5279 C   0  0  1  0  0  0  0  0  0  0  0  0
   19.1119   18.6691   -0.9396 O   0  0  0  0  0  0  0  0  0  0  0  0
   24.8568   23.7299   -0.5427 C   0  0  0  0  0  0  0  0  0  0  0  0
   27.9268   21.1790   -6.6835 C   0  0  2  0  0  0  0  0  0  0  0  0
   28.3612   20.9967   -5.2774 O   0  0  0  0  0  0  0  0  0  0  0  0
   23.6417   20.1481   -8.7081 C   0  0  2  0  0  0  0  0  0  0  0  0
   22.4770   17.8560   -4.0055 C   0  0  1  0  0  0  0  0  0  0  0  0
   20.4105   19.9546    0.8506 C   0  0  2  0  0  0  0  0  0  0  0  0
   20.8513   21.2947    1.2681 O   0  0  0  0  0  0  0  0  0  0  0  0
   25.7626   23.1058    0.3500 C   0  0  0  0  0  0  0  0  0  0  0  0
   26.4888   21.8268   -6.6859 C   0  0  2  0  0  0  0  0  0  0  0  0
   26.1197   21.9756   -8.0846 O   0  0  0  0  0  0  0  0  0  0  0  0
   22.7880   20.0390   -7.3973 C   0  0  2  0  0  0  0  0  0  0  0  0
   22.9682   18.6810   -7.0143 O   0  0  0  0  0  0  0  0  0  0  0  0
   21.0256   17.3970   -4.1358 C   0  0  0  0  0  0  0  0  0  0  0  0
   20.8372   16.0059   -4.2386 O   0  0  0  0  0  0  0  0  0  0  0  0
   21.6841   19.0128    0.6415 C   0  0  1  0  0  0  0  0  0  0  0  0
   22.4916   19.5482   -0.5229 O   0  0  0  0  0  0  0  0  0  0  0  0
   26.8458   22.2553   -0.1955 C   0  0  0  0  0  0  0  0  0  0  0  0
   26.5711   23.1122   -5.9738 C   0  0  0  0  0  0  0  0  0  0  0  0
   27.2197   22.9398   -4.8153 O   0  0  0  0  0  0  0  0  0  0  0  0
   21.2676   20.3881   -7.6871 C   0  0  1  0  0  0  0  0  0  0  0  0
   20.5270   20.2970   -6.5147 O   0  0  0  0  0  0  0  0  0  0  0  0
   25.5343   18.4497   -3.0985 C   0  0  0  0  0  0  0  0  0  0  0  0
   22.4707   19.0042    1.9805 C   0  0  0  0  0  0  0  0  0  0  0  0
   23.8851   19.1450    1.7390 N   0  0  0  0  0  0  0  0  0  0  0  0
   26.3558   19.2909   -2.1162 C   0  0  0  0  0  0  0  0  0  0  0  0
   27.5980   19.7810   -2.7969 N   0  0  0  0  0  0  0  0  0  0  0  0
   28.1108   21.1723   -2.3370 C   0  0  0  0  0  0  0  0  0  0  0  0
  1  2  1  1  0  0  0
  1  9  1  0  0  0  0
  1 35  1  0  0  0  0
  3  4  1  6  0  0  0
  3 11  1  0  0  0  0
  3 45  1  0  0  0  0
  5  6  1  0  0  0  0
  5 12  1  0  0  0  0
  5 37  1  6  0  0  0
  6 30  1  0  0  0  0
  7 14  1  0  0  0  0
  7 41  1  0  0  0  0
  7 23  1  6  0  0  0
  8 16  2  0  0  0  0
  8 42  1  0  0  0  0
  9 10  1  6  0  0  0
  9 18  1  0  0  0  0
 11 20  1  0  0  0  0
 12 13  1  1  0  0  0
 12 22  1  0  0  0  0
 13 47  1  0  0  0  0
 14 15  1  1  0  0  0
 14 24  1  0  0  0  0
 16 17  1  0  0  0  0
 17 26  2  0  0  0  0
 18 19  1  6  0  0  0
 18 27  1  0  0  0  0
 20 21  1  6  0  0  0
 20 29  1  0  0  0  0
 22 23  1  1  0  0  0
 22 30  1  0  0  0  0
 24 25  1  6  0  0  0
 24 31  1  0  0  0  0
 26 33  1  0  0  0  0
 27 28  1  1  0  0  0
 27 34  1  0  0  0  0
 29  2  1  1  0  0  0
 29 36  1  0  0  0  0
 30 38  1  6  0  0  0
 31 32  1  6  0  0  0
 31 40  1  0  0  0  0
 33 42  2  0  0  0  0
 34 35  1  0  0  0  0
 34 43  1  6  0  0  0
 36 37  1  6  0  0  0
 36 45  1  0  0  0  0
 38 39  1  0  0  0  0
 40 41  1  0  0  0  0
 40 48  1  1  0  0  0
 43 44  1  0  0  0  0
 45 46  1  1  0  0  0
 47 50  1  0  0  0  0
 48 49  1  0  0  0  0
 50 51  1  0  0  0  0
 51 52  1  0  0  0  0
 52  8  1  0  0  0  0
M  END
>  <CHROM.1>
-165.72277107,140.25660635,-109.88724332,-83.51378047,-130.09550207,-151.29885083
-8.84534284,53.98153972,-48.18680252,107.67166952,-135.93508096,-57.28845336
147.25416352,-22.36208428,-77.79115310,24.02309137,20.34287018,-4.40548484
-1.14164871,0.27307739,1.52689316

>  <Name>
2be0_lig

>  <RI>
0

>  <Rbt.Current_Directory>
/home/itssahil/PROJECTS/Mol_Feturizer/New_Systems/rnas/2be0

>  <Rbt.Executable>
rbdock ($Id: //depot/dev/client3/rdock/2013.1/src/exe/rbdock.cxx#4 $)

>  <Rbt.Library>
libRbt.so (2013.1, Build901 2013/11/27)

>  <Rbt.Parameter_File>
/export/apps/rDock/src/rDock_2013.1_src/data/scripts/dock_solv.prm

>  <Rbt.Receptor>
prm/blind_docking_80.prm

>  <SCORE>
60.8865

>  <SCORE.INTER>
4.53337

>  <SCORE.INTER.CONST>
1

>  <SCORE.INTER.POLAR>
0

>  <SCORE.INTER.ROT>
15

>  <SCORE.INTER.SOLV>
18.179

>  <SCORE.INTER.VDW>
-16.6374

>  <SCORE.INTER.norm>
0.0871802

>  <SCORE.INTRA>
10.4204

>  <SCORE.INTRA.DIHEDRAL>
-1.61886

>  <SCORE.INTRA.DIHEDRAL.0>
47.8724

>  <SCORE.INTRA.POLAR>
0

>  <SCORE.INTRA.POLAR.0>
0

>  <SCORE.INTRA.REPUL>
0

>  <SCORE.INTRA.REPUL.0>
0

>  <SCORE.INTRA.SOLV>
2.22072

>  <SCORE.INTRA.SOLV.lig_0>
-115.677

>  <SCORE.INTRA.VDW>
10.1195

>  <SCORE.INTRA.VDW.0>
-7.4833

>  <SCORE.INTRA.norm>
0.200393

>  <SCORE.RESTR>
45.9326

>  <SCORE.RESTR.CAVITY>
45.9326

>  <SCORE.RESTR.norm>
0.88332

>  <SCORE.SYSTEM>
0

>  <SCORE.SYSTEM.CONST>
0

>  <SCORE.SYSTEM.DIHEDRAL>
0

>  <SCORE.SYSTEM.SOLV>
0

>  <SCORE.SYSTEM.norm>
0

>  <SCORE.heavy>
52

>  <SCORE.norm>
1.17089

>  <RMSD>
25.624

$$$$
2be0_lig
 OpenBabel11021811423D
libRbt.so/2013.1/901 2013/11/27
 52 56  0  0  0  0  0  0  0  0999 V2000
   20.5965   19.9945   -4.1128 C   0  0  2  0  0  0  0  0  0  0  0  0
   20.5756   20.4704   -2.7877 O   0  0  0  0  0  0  0  0  0  0  0  0
   21.4739   18.9857    1.2570 C   0  0  2  0  0  0  0  0  0  0  0  0
   21.6908   18.0256    2.3754 N   0  0  0  0  0  0  0  0  0  0  0  0
   23.7264   20.7034   -2.8220 C   0  0  2  0  0  0  0  0  0  0  0  0
   23.4024   20.7176   -4.2274 O   0  0  0  0  0  0  0  0  0  0  0  0
   27.4153   20.8416   -5.0916 C   0  0  1  0  0  0  0  0  0  0  0  0
   28.4278   20.3177   -1.1662 C   0  0  0  0  0  0  0  0  0  0  0  0
   19.2292   19.2927   -4.4916 C   0  0  2  0  0  0  0  0  0  0  0  0
   18.1146   20.2063   -4.2317 N   0  0  0  0  0  0  0  0  0  0  0  0
   20.0176   18.7551    0.6452 C   0  0  0  0  0  0  0  0  0  0  0  0
   25.2598   20.6709   -2.7213 C   0  0  2  0  0  0  0  0  0  0  0  0
   25.6468   22.1128   -2.8138 O   0  0  0  0  0  0  0  0  0  0  0  0
   26.6095   20.9658   -6.4974 C   0  0  2  0  0  0  0  0  0  0  0  0
   26.8049   19.7007   -7.2766 N   0  0  0  0  0  0  0  0  0  0  0  0
   27.3092   19.4851   -0.8341 C   0  0  0  0  0  0  0  0  0  0  0  0
   27.1590   18.2235   -1.4673 N   0  0  0  0  0  0  0  0  0  0  0  0
   19.0836   17.9247   -3.6771 C   0  0  1  0  0  0  0  0  0  0  0  0
   17.8497   17.3159   -4.0247 O   0  0  0  0  0  0  0  0  0  0  0  0
   19.7449   19.7815   -0.5966 C   0  0  2  0  0  0  0  0  0  0  0  0
   18.4366   19.5857   -1.1545 N   0  0  0  0  0  0  0  0  0  0  0  0
   25.5532   19.7225   -3.8992 C   0  0  2  0  0  0  0  0  0  0  0  0
   26.8842   19.7008   -4.3936 O   0  0  0  0  0  0  0  0  0  0  0  0
   27.1840   22.1906   -7.2713 C   0  0  1  0  0  0  0  0  0  0  0  0
   26.9239   23.3683   -6.4271 O   0  0  0  0  0  0  0  0  0  0  0  0
   28.0770   17.7286   -2.4370 C   0  0  0  0  0  0  0  0  0  0  0  0
   20.2969   17.0124   -4.0205 C   0  0  2  0  0  0  0  0  0  0  0  0
   20.2193   15.7248   -3.2888 O   0  0  0  0  0  0  0  0  0  0  0  0
   20.8393   19.5665   -1.7216 C   0  0  2  0  0  0  0  0  0  0  0  0
   24.4989   20.1287   -4.9563 C   0  0  1  0  0  0  0  0  0  0  0  0
   28.7780   21.9901   -7.5258 C   0  0  2  0  0  0  0  0  0  0  0  0
   29.0455   20.8143   -8.3687 O   0  0  0  0  0  0  0  0  0  0  0  0
   29.2024   18.5067   -2.8047 C   0  0  0  0  0  0  0  0  0  0  0  0
   21.6487   17.7285   -3.6368 C   0  0  2  0  0  0  0  0  0  0  0  0
   21.6633   18.9790   -4.3790 O   0  0  0  0  0  0  0  0  0  0  0  0
   22.2466   19.7932   -1.0680 C   0  0  2  0  0  0  0  0  0  0  0  0
   23.1381   19.5898   -2.1577 O   0  0  0  0  0  0  0  0  0  0  0  0
   23.9369   18.9252   -5.7113 C   0  0  0  0  0  0  0  0  0  0  0  0
   22.8630   19.2016   -6.5782 O   0  0  0  0  0  0  0  0  0  0  0  0
   29.5232   21.8238   -6.1222 C   0  0  1  0  0  0  0  0  0  0  0  0
   28.9035   20.6546   -5.3848 O   0  0  0  0  0  0  0  0  0  0  0  0
   29.4038   19.8314   -2.1731 C   0  0  0  0  0  0  0  0  0  0  0  0
   22.7556   16.8304   -4.0030 C   0  0  0  0  0  0  0  0  0  0  0  0
   22.6242   16.4590   -5.2827 O   0  0  0  0  0  0  0  0  0  0  0  0
   22.4901   18.7612    0.1122 C   0  0  1  0  0  0  0  0  0  0  0  0
   23.7360   18.9817    0.6872 O   0  0  0  0  0  0  0  0  0  0  0  0
   25.3876   23.1975   -1.8379 C   0  0  0  0  0  0  0  0  0  0  0  0
   31.0329   21.6255   -6.4272 C   0  0  0  0  0  0  0  0  0  0  0  0
   31.7809   21.4673   -5.2049 N   0  0  0  0  0  0  0  0  0  0  0  0
   26.3015   22.9512   -0.6331 C   0  0  0  0  0  0  0  0  0  0  0  0
   27.7237   22.8566   -1.0969 N   0  0  0  0  0  0  0  0  0  0  0  0
   28.5732   21.7395   -0.4330 C   0  0  0  0  0  0  0  0  0  0  0  0
  1  2  1  1  0  0  0
  1  9  1  0  0  0  0
  1 35  1  0  0  0  0
  3  4  1  1  0  0  0
  3 11  1  0  0  0  0
  3 45  1  0  0  0  0
  5  6  1  0  0  0  0
  5 12  1  0  0  0  0
  5 37  1  6  0  0  0
  6 30  1  0  0  0  0
  7 14  1  0  0  0  0
  7 41  1  0  0  0  0
  7 23  1  6  0  0  0
  8 16  2  0  0  0  0
  8 42  1  0  0  0  0
  9 10  1  1  0  0  0
  9 18  1  0  0  0  0
 11 20  1  0  0  0  0
 12 13  1  6  0  0  0
 12 22  1  0  0  0  0
 13 47  1  0  0  0  0
 14 15  1  6  0  0  0
 14 24  1  0  0  0  0
 16 17  1  0  0  0  0
 17 26  2  0  0  0  0
 18 19  1  6  0  0  0
 18 27  1  0  0  0  0
 20 21  1  6  0  0  0
 20 29  1  0  0  0  0
 22 23  1  6  0  0  0
 22 30  1  0  0  0  0
 24 25  1  1  0  0  0
 24 31  1  0  0  0  0
 26 33  1  0  0  0  0
 27 28  1  1  0  0  0
 27 34  1  0  0  0  0
 29  2  1  6  0  0  0
 29 36  1  0  0  0  0
 30 38  1  1  0  0  0
 31 32  1  6  0  0  0
 31 40  1  0  0  0  0
 33 42  2  0  0  0  0
 34 35  1  0  0  0  0
 34 43  1  6  0  0  0
 36 37  1  6  0  0  0
 36 45  1  0  0  0  0
 38 39  1  0  0  0  0
 40 41  1  0  0  0  0
 40 48  1  6  0  0  0
 43 44  1  0  0  0  0
 45 46  1  1  0  0  0
 47 50  1  0  0  0  0
 48 49  1  0  0  0  0
 50 51  1  0  0  0  0
 51 52  1  0  0  0  0
 52  8  1  0  0  0  0
M  END
>  <CHROM.1>
81.59448949,-121.38050236,-67.63272482,67.53373885,71.92935921,-69.06433873
-133.46499450,56.66658578,52.60790809,102.15475149,179.97900138,55.18047343
-138.25910987,85.96923570,-83.03833809,24.42605804,19.83749994,-3.38912855
2.84985958,0.29925126,1.55508924

>  <Name>
2be0_lig

>  <RI>
0

>  <Rbt.Current_Directory>
/home/itssahil/PROJECTS/Mol_Feturizer/New_Systems/rnas/2be0

>  <Rbt.Executable>
rbdock ($Id: //depot/dev/client3/rdock/2013.1/src/exe/rbdock.cxx#4 $)

>  <Rbt.Library>
libRbt.so (2013.1, Build901 2013/11/27)

>  <Rbt.Parameter_File>
/export/apps/rDock/src/rDock_2013.1_src/data/scripts/dock_solv.prm

>  <Rbt.Receptor>
prm/blind_docking_80.prm

>  <SCORE>
29.689

>  <SCORE.INTER>
2.49057

>  <SCORE.INTER.CONST>
1

>  <SCORE.INTER.POLAR>
0

>  <SCORE.INTER.ROT>
15

>  <SCORE.INTER.SOLV>
17.188

>  <SCORE.INTER.VDW>
-17.6689

>  <SCORE.INTER.norm>
0.0478955

>  <SCORE.INTRA>
-4.73774

>  <SCORE.INTRA.DIHEDRAL>
-21.9875

>  <SCORE.INTRA.DIHEDRAL.0>
47.8724

>  <SCORE.INTRA.POLAR>
0

>  <SCORE.INTRA.POLAR.0>
0

>  <SCORE.INTRA.REPUL>
0

>  <SCORE.INTRA.REPUL.0>
0

>  <SCORE.INTRA.SOLV>
7.18897

>  <SCORE.INTRA.SOLV.lig_0>
-115.677

>  <SCORE.INTRA.VDW>
2.66154

>  <SCORE.INTRA.VDW.0>
-7.4833

>  <SCORE.INTRA.norm>
-0.0911104

>  <SCORE.RESTR>
31.9362

>  <SCORE.RESTR.CAVITY>
31.9362

>  <SCORE.RESTR.norm>
0.614158

>  <SCORE.SYSTEM>
0

>  <SCORE.SYSTEM.CONST>
0

>  <SCORE.SYSTEM.DIHEDRAL>
0

>  <SCORE.SYSTEM.SOLV>
0

>  <SCORE.SYSTEM.norm>
0

>  <SCORE.heavy>
52

>  <SCORE.norm>
0.570943

>  <RMSD>
25.724

$$$$
2be0_lig
 OpenBabel11021811423D
libRbt.so/2013.1/901 2013/11/27
 52 56  0  0  0  0  0  0  0  0999 V2000
   21.3027   21.1244   -4.5066 C   0  0  2  0  0  0  0  0  0  0  0  0
   20.6790   20.9093   -3.2626 O   0  0  0  0  0  0  0  0  0  0  0  0
   21.3709   18.3993    0.2859 C   0  0  2  0  0  0  0  0  0  0  0  0
   21.7530   17.2151    1.1051 N   0  0  0  0  0  0  0  0  0  0  0  0
   24.5742   20.4953   -1.7583 C   0  0  2  0  0  0  0  0  0  0  0  0
   25.0096   21.4782   -0.7967 O   0  0  0  0  0  0  0  0  0  0  0  0
   26.9831   22.2796   -5.1177 C   0  0  1  0  0  0  0  0  0  0  0  0
   28.1377   21.1622    1.7190 C   0  0  0  0  0  0  0  0  0  0  0  0
   20.4474   20.5130   -5.6900 C   0  0  2  0  0  0  0  0  0  0  0  0
   19.0821   21.0401   -5.6383 N   0  0  0  0  0  0  0  0  0  0  0  0
   20.2593   17.9647   -0.7743 C   0  0  0  0  0  0  0  0  0  0  0  0
   25.5386   20.5856   -2.9517 C   0  0  2  0  0  0  0  0  0  0  0  0
   26.6801   19.7083   -2.5458 O   0  0  0  0  0  0  0  0  0  0  0  0
   27.0303   20.6586   -5.2253 C   0  0  2  0  0  0  0  0  0  0  0  0
   28.1822   20.1563   -4.4088 N   0  0  0  0  0  0  0  0  0  0  0  0
   28.0216   22.0902    0.6327 C   0  0  0  0  0  0  0  0  0  0  0  0
   28.3237   23.4611    0.8436 N   0  0  0  0  0  0  0  0  0  0  0  0
   20.4761   18.9168   -5.6048 C   0  0  1  0  0  0  0  0  0  0  0  0
   19.6984   18.3892   -6.6683 O   0  0  0  0  0  0  0  0  0  0  0  0
   19.8221   19.2350   -1.7044 C   0  0  2  0  0  0  0  0  0  0  0  0
   18.8205   18.8577   -2.6613 N   0  0  0  0  0  0  0  0  0  0  0  0
   25.7240   22.1143   -2.9896 C   0  0  2  0  0  0  0  0  0  0  0  0
   26.8319   22.6116   -3.7258 O   0  0  0  0  0  0  0  0  0  0  0  0
   27.2077   20.2840   -6.7277 C   0  0  1  0  0  0  0  0  0  0  0  0
   26.0215   20.8083   -7.4244 O   0  0  0  0  0  0  0  0  0  0  0  0
   28.7434   23.9777    2.1026 C   0  0  0  0  0  0  0  0  0  0  0  0
   21.9568   18.4434   -5.6795 C   0  0  2  0  0  0  0  0  0  0  0  0
   22.0483   16.9653   -5.6010 O   0  0  0  0  0  0  0  0  0  0  0  0
   21.0901   19.8082   -2.4614 C   0  0  2  0  0  0  0  0  0  0  0  0
   25.7375   22.5100   -1.4939 C   0  0  1  0  0  0  0  0  0  0  0  0
   28.5732   20.9495   -7.3095 C   0  0  2  0  0  0  0  0  0  0  0  0
   29.7632   20.4303   -6.6176 O   0  0  0  0  0  0  0  0  0  0  0  0
   28.8774   23.1079    3.2128 C   0  0  0  0  0  0  0  0  0  0  0  0
   22.7921   19.0628   -4.4937 C   0  0  2  0  0  0  0  0  0  0  0  0
   22.6605   20.5053   -4.6229 O   0  0  0  0  0  0  0  0  0  0  0  0
   22.1517   20.2086   -1.3789 C   0  0  2  0  0  0  0  0  0  0  0  0
   23.2263   20.7149   -2.1614 O   0  0  0  0  0  0  0  0  0  0  0  0
   25.0062   23.8257   -1.2324 C   0  0  0  0  0  0  0  0  0  0  0  0
   25.4856   24.9380   -1.9494 O   0  0  0  0  0  0  0  0  0  0  0  0
   28.5047   22.5368   -7.1398 C   0  0  1  0  0  0  0  0  0  0  0  0
   28.2850   22.8543   -5.6750 O   0  0  0  0  0  0  0  0  0  0  0  0
   28.5731   21.6680    3.0447 C   0  0  0  0  0  0  0  0  0  0  0  0
   24.1821   18.5986   -4.6294 C   0  0  0  0  0  0  0  0  0  0  0  0
   24.2510   17.2986   -4.3165 O   0  0  0  0  0  0  0  0  0  0  0  0
   22.5757   18.9469   -0.5152 C   0  0  1  0  0  0  0  0  0  0  0  0
   23.5083   19.3199    0.4453 O   0  0  0  0  0  0  0  0  0  0  0  0
   27.7678   20.0032   -1.5834 C   0  0  0  0  0  0  0  0  0  0  0  0
   29.8333   23.1138   -7.6995 C   0  0  0  0  0  0  0  0  0  0  0  0
   29.8182   23.1155   -9.1413 N   0  0  0  0  0  0  0  0  0  0  0  0
   28.1625   18.6771   -0.9253 C   0  0  0  0  0  0  0  0  0  0  0  0
   28.7472   18.9465    0.4283 N   0  0  0  0  0  0  0  0  0  0  0  0
   27.7908   19.6168    1.4511 C   0  0  0  0  0  0  0  0  0  0  0  0
  1  2  1  1  0  0  0
  1  9  1  0  0  0  0
  1 35  1  0  0  0  0
  3  4  1  6  0  0  0
  3 11  1  0  0  0  0
  3 45  1  0  0  0  0
  5  6  1  0  0  0  0
  5 12  1  0  0  0  0
  5 37  1  6  0  0  0
  6 30  1  0  0  0  0
  7 14  1  0  0  0  0
  7 41  1  0  0  0  0
  7 23  1  1  0  0  0
  8 16  2  0  0  0  0
  8 42  1  0  0  0  0
  9 10  1  1  0  0  0
  9 18  1  0  0  0  0
 11 20  1  0  0  0  0
 12 13  1  1  0  0  0
 12 22  1  0  0  0  0
 13 47  1  0  0  0  0
 14 15  1  1  0  0  0
 14 24  1  0  0  0  0
 16 17  1  0  0  0  0
 17 26  2  0  0  0  0
 18 19  1  6  0  0  0
 18 27  1  0  0  0  0
 20 21  1  6  0  0  0
 20 29  1  0  0  0  0
 22 23  1  1  0  0  0
 22 30  1  0  0  0  0
 24 25  1  6  0  0  0
 24 31  1  0  0  0  0
 26 33  1  0  0  0  0
 27 28  1  1  0  0  0
 27 34  1  0  0  0  0
 29  2  1  1  0  0  0
 29 36  1  0  0  0  0
 30 38  1  6  0  0  0
 31 32  1  1  0  0  0
 31 40  1  0  0  0  0
 33 42  2  0  0  0  0
 34 35  1  0  0  0  0
 34 43  1  6  0  0  0
 36 37  1  6  0  0  0
 36 45  1  0  0  0  0
 38 39  1  0  0  0  0
 40 41  1  0  0  0  0
 40 48  1  1  0  0  0
 43 44  1  0  0  0  0
 45 46  1  1  0  0  0
 47 50  1  0  0  0  0
 48 49  1  0  0  0  0
 50 51  1  0  0  0  0
 51 52  1  0  0  0  0
 52  8  1  0  0  0  0
M  END
>  <CHROM.1>
97.17175243,-84.09537075,-57.65013824,-76.60435923,148.24671288,56.87889895
-144.86843781,-173.50034534,-71.76466519,-144.42178039,76.55007574,-154.06349792
62.44590008,-106.68957050,63.70895492,24.94849965,20.57739340,-2.96997509
-2.96480206,0.36892044,1.57715655

>  <Name>
2be0_lig

>  <RI>
2.57068e+07

>  <Rbt.Current_Directory>
/home/itssahil/PROJECTS/Mol_Feturizer/New_Systems/rnas/2be0

>  <Rbt.Executable>
rbdock ($Id: //depot/dev/client3/rdock/2013.1/src/exe/rbdock.cxx#4 $)

>  <Rbt.Library>
libRbt.so (2013.1, Build901 2013/11/27)

>  <Rbt.Parameter_File>
/export/apps/rDock/src/rDock_2013.1_src/data/scripts/dock_solv.prm

>  <Rbt.Receptor>
prm/blind_docking_60.prm

>  <SCORE>
17.4719

>  <SCORE.INTER>
-1.80629

>  <SCORE.INTER.CONST>
1

>  <SCORE.INTER.POLAR>
0

>  <SCORE.INTER.ROT>
15

>  <SCORE.INTER.SOLV>
20.6276

>  <SCORE.INTER.VDW>
-21.6801

>  <SCORE.INTER.norm>
-0.0347363

>  <SCORE.INTRA>
-1.18923

>  <SCORE.INTRA.DIHEDRAL>
-20.0962

>  <SCORE.INTRA.DIHEDRAL.0>
47.8724

>  <SCORE.INTRA.POLAR>
0

>  <SCORE.INTRA.POLAR.0>
0

>  <SCORE.INTRA.REPUL>
0

>  <SCORE.INTRA.REPUL.0>
0

>  <SCORE.INTRA.SOLV>
4.41275

>  <SCORE.INTRA.SOLV.lig_0>
-115.677

>  <SCORE.INTRA.VDW>
6.65248

>  <SCORE.INTRA.VDW.0>
-7.4833

>  <SCORE.INTRA.norm>
-0.0228697

>  <SCORE.RESTR>
20.4674

>  <SCORE.RESTR.CAVITY>
20.4674

>  <SCORE.RESTR.norm>
0.393604

>  <SCORE.SYSTEM>
0

>  <SCORE.SYSTEM.CONST>
0

>  <SCORE.SYSTEM.DIHEDRAL>
0

>  <SCORE.SYSTEM.SOLV>
0

>  <SCORE.SYSTEM.norm>
0

>  <SCORE.heavy>
52

>  <SCORE.norm>
0.335998

>  <RMSD>
25.795

$$$$
2be0_lig
 OpenBabel11021811423D
libRbt.so/2013.1/901 2013/11/27
 52 56  0  0  0  0  0  0  0  0999 V2000
   27.4691   26.3902    7.9996 C   0  0  2  0  0  0  0  0  0  0  0  0
   27.4679   25.8761    6.6887 O   0  0  0  0  0  0  0  0  0  0  0  0
   23.5240   26.6378    4.8898 C   0  0  2  0  0  0  0  0  0  0  0  0
   22.4982   27.1646    3.9465 N   0  0  0  0  0  0  0  0  0  0  0  0
   26.2016   23.4763    3.4781 C   0  0  2  0  0  0  0  0  0  0  0  0
   26.8909   22.2103    3.5301 O   0  0  0  0  0  0  0  0  0  0  0  0
   30.0186   24.1239    0.6270 C   0  0  1  0  0  0  0  0  0  0  0  0
   26.7554   22.0039   -4.2529 C   0  0  0  0  0  0  0  0  0  0  0  0
   28.8170   26.0392    8.7518 C   0  0  2  0  0  0  0  0  0  0  0  0
   29.9603   26.4966    7.9592 N   0  0  0  0  0  0  0  0  0  0  0  0
   24.3585   27.8592    5.4898 C   0  0  0  0  0  0  0  0  0  0  0  0
   26.5407   24.1097    2.1193 C   0  0  2  0  0  0  0  0  0  0  0  0
   25.5358   23.5047    1.1911 O   0  0  0  0  0  0  0  0  0  0  0  0
   30.2869   24.5024   -0.9306 C   0  0  2  0  0  0  0  0  0  0  0  0
   29.9512   23.3133   -1.7785 N   0  0  0  0  0  0  0  0  0  0  0  0
   27.7439   20.9695   -4.3406 C   0  0  0  0  0  0  0  0  0  0  0  0
   28.5547   20.8680   -5.5013 N   0  0  0  0  0  0  0  0  0  0  0  0
   28.8786   24.4677    9.0390 C   0  0  1  0  0  0  0  0  0  0  0  0
   30.0962   24.1732    9.7060 O   0  0  0  0  0  0  0  0  0  0  0  0
   25.5063   27.3217    6.5211 C   0  0  2  0  0  0  0  0  0  0  0  0
   26.2630   28.4115    7.0698 N   0  0  0  0  0  0  0  0  0  0  0  0
   28.0196   23.6892    2.0258 C   0  0  2  0  0  0  0  0  0  0  0  0
   28.6311   23.7616    0.7462 O   0  0  0  0  0  0  0  0  0  0  0  0
   31.7907   24.8842   -1.0777 C   0  0  1  0  0  0  0  0  0  0  0  0
   32.0005   26.0634   -0.2216 O   0  0  0  0  0  0  0  0  0  0  0  0
   28.4371   21.7552   -6.6091 C   0  0  0  0  0  0  0  0  0  0  0  0
   27.6395   24.0714    9.8932 C   0  0  2  0  0  0  0  0  0  0  0  0
   27.6392   22.6184   10.1896 O   0  0  0  0  0  0  0  0  0  0  0  0
   26.4807   26.3250    5.7683 C   0  0  2  0  0  0  0  0  0  0  0  0
   28.0279   22.2710    2.6446 C   0  0  1  0  0  0  0  0  0  0  0  0
   32.7289   23.6416   -0.6070 C   0  0  2  0  0  0  0  0  0  0  0  0
   32.5243   22.4592   -1.4581 O   0  0  0  0  0  0  0  0  0  0  0  0
   27.4785   22.7979   -6.5792 C   0  0  0  0  0  0  0  0  0  0  0  0
   26.3076   24.4291    9.1280 C   0  0  2  0  0  0  0  0  0  0  0  0
   26.3694   25.8579    8.8642 O   0  0  0  0  0  0  0  0  0  0  0  0
   25.6125   25.1537    5.1908 C   0  0  2  0  0  0  0  0  0  0  0  0
   26.5797   24.3257    4.5565 O   0  0  0  0  0  0  0  0  0  0  0  0
   29.2701   22.0139    3.4960 C   0  0  0  0  0  0  0  0  0  0  0  0
   30.2854   21.2626    2.8746 O   0  0  0  0  0  0  0  0  0  0  0  0
   32.3984   23.2720    0.9119 C   0  0  1  0  0  0  0  0  0  0  0  0
   30.9211   22.9543    1.0184 O   0  0  0  0  0  0  0  0  0  0  0  0
   26.6071   22.9458   -5.3904 C   0  0  0  0  0  0  0  0  0  0  0  0
   25.1759   24.0529    9.9905 C   0  0  0  0  0  0  0  0  0  0  0  0
   25.2454   22.7460   10.2730 O   0  0  0  0  0  0  0  0  0  0  0  0
   24.5299   25.7075    4.1715 C   0  0  1  0  0  0  0  0  0  0  0  0
   23.7626   24.6596    3.6770 O   0  0  0  0  0  0  0  0  0  0  0  0
   25.7740   22.8304   -0.1069 C   0  0  0  0  0  0  0  0  0  0  0  0
   33.3119   22.0779    1.3006 C   0  0  0  0  0  0  0  0  0  0  0  0
   32.5192   20.9240    1.6455 N   0  0  0  0  0  0  0  0  0  0  0  0
   26.1478   23.9170   -1.1202 C   0  0  0  0  0  0  0  0  0  0  0  0
   25.5954   23.5555   -2.4659 N   0  0  0  0  0  0  0  0  0  0  0  0
   25.8532   22.0957   -2.9271 C   0  0  0  0  0  0  0  0  0  0  0  0
  1  2  1  6  0  0  0
  1  9  1  0  0  0  0
  1 35  1  0  0  0  0
  3  4  1  6  0  0  0
  3 11  1  0  0  0  0
  3 45  1  0  0  0  0
  5  6  1  0  0  0  0
  5 12  1  0  0  0  0
  5 37  1  1  0  0  0
  6 30  1  0  0  0  0
  7 14  1  0  0  0  0
  7 41  1  0  0  0  0
  7 23  1  6  0  0  0
  8 16  2  0  0  0  0
  8 42  1  0  0  0  0
  9 10  1  6  0  0  0
  9 18  1  0  0  0  0
 11 20  1  0  0  0  0
 12 13  1  6  0  0  0
 12 22  1  0  0  0  0
 13 47  1  0  0  0  0
 14 15  1  6  0  0  0
 14 24  1  0  0  0  0
 16 17  1  0  0  0  0
 17 26  2  0  0  0  0
 18 19  1  1  0  0  0
 18 27  1  0  0  0  0
 20 21  1  6  0  0  0
 20 29  1  0  0  0  0
 22 23  1  6  0  0  0
 22 30  1  0  0  0  0
 24 25  1  1  0  0  0
 24 31  1  0  0  0  0
 26 33  1  0  0  0  0
 27 28  1  6  0  0  0
 27 34  1  0  0  0  0
 29  2  1  1  0  0  0
 29 36  1  0  0  0  0
 30 38  1  1  0  0  0
 31 32  1  6  0  0  0
 31 40  1  0  0  0  0
 33 42  2  0  0  0  0
 34 35  1  0  0  0  0
 34 43  1  1  0  0  0
 36 37  1  6  0  0  0
 36 45  1  0  0  0  0
 38 39  1  0  0  0  0
 40 41  1  0  0  0  0
 40 48  1  6  0  0  0
 43 44  1  0  0  0  0
 45 46  1  1  0  0  0
 47 50  1  0  0  0  0
 48 49  1  0  0  0  0
 50 51  1  0  0  0  0
 51 52  1  0  0  0  0
 52  8  1  0  0  0  0
M  END
>  <CHROM.1>
-166.66633260,-142.12917159,-164.96902268,-128.72466044,-72.64594687,145.37002885
-2.79755747,143.22293433,-58.42351149,-154.41233545,-118.19755630,-145.05687144
-47.56033672,-117.12973678,140.53122977,27.83991940,24.00621674,2.82060368
-1.77126064,0.25194277,-1.74748923

>  <Name>
2be0_lig

>  <RI>
2.57068e+07

>  <Rbt.Current_Directory>
/home/itssahil/PROJECTS/Mol_Feturizer/New_Systems/rnas/2be0

>  <Rbt.Executable>
rbdock ($Id: //depot/dev/client3/rdock/2013.1/src/exe/rbdock.cxx#4 $)

>  <Rbt.Library>
libRbt.so (2013.1, Build901 2013/11/27)

>  <Rbt.Parameter_File>
/export/apps/rDock/src/rDock_2013.1_src/data/scripts/dock_solv.prm

>  <Rbt.Receptor>
prm/blind_docking_60.prm

>  <SCORE>
65.3327

>  <SCORE.INTER>
37.3135

>  <SCORE.INTER.CONST>
1

>  <SCORE.INTER.POLAR>
-1.53792

>  <SCORE.INTER.ROT>
15

>  <SCORE.INTER.SOLV>
38.4756

>  <SCORE.INTER.VDW>
3.57684

>  <SCORE.INTER.norm>
0.717567

>  <SCORE.INTRA>
8.96565

>  <SCORE.INTRA.DIHEDRAL>
-4.98194

>  <SCORE.INTRA.DIHEDRAL.0>
47.8724

>  <SCORE.INTRA.POLAR>
0

>  <SCORE.INTRA.POLAR.0>
0

>  <SCORE.INTRA.REPUL>
0

>  <SCORE.INTRA.REPUL.0>
0

>  <SCORE.INTRA.SOLV>
2.47483

>  <SCORE.INTRA.SOLV.lig_0>
-115.677

>  <SCORE.INTRA.VDW>
10.2192

>  <SCORE.INTRA.VDW.0>
-7.4833

>  <SCORE.INTRA.norm>
0.172416

>  <SCORE.RESTR>
19.0536

>  <SCORE.RESTR.CAVITY>
19.0536

>  <SCORE.RESTR.norm>
0.366416

>  <SCORE.SYSTEM>
0

>  <SCORE.SYSTEM.CONST>
0

>  <SCORE.SYSTEM.DIHEDRAL>
0

>  <SCORE.SYSTEM.SOLV>
0

>  <SCORE.SYSTEM.norm>
0

>  <SCORE.heavy>
52

>  <SCORE.norm>
1.2564

>  <RMSD>
27.347

$$$$
2be0_lig
 OpenBabel11021811423D
libRbt.so/2013.1/901 2013/11/27
 52 56  0  0  0  0  0  0  0  0999 V2000
   26.6044   20.5162    0.7953 C   0  0  2  0  0  0  0  0  0  0  0  0
   27.8324   20.9685    1.3152 O   0  0  0  0  0  0  0  0  0  0  0  0
   30.6631   24.2882    0.7341 C   0  0  2  0  0  0  0  0  0  0  0  0
   31.2849   25.5046    0.1398 N   0  0  0  0  0  0  0  0  0  0  0  0
   26.8792   23.1264    3.6590 C   0  0  2  0  0  0  0  0  0  0  0  0
   25.4466   23.1402    3.8260 O   0  0  0  0  0  0  0  0  0  0  0  0
   25.1640   26.9639    5.8613 C   0  0  1  0  0  0  0  0  0  0  0  0
   28.0340   24.7086   10.2317 C   0  0  0  0  0  0  0  0  0  0  0  0
   26.6444   18.9613    0.5008 C   0  0  2  0  0  0  0  0  0  0  0  0
   27.0532   18.2389    1.7073 N   0  0  0  0  0  0  0  0  0  0  0  0
   30.5358   23.1633   -0.3914 C   0  0  0  0  0  0  0  0  0  0  0  0
   27.4556   24.1019    4.6975 C   0  0  2  0  0  0  0  0  0  0  0  0
   27.5741   23.2673    5.9331 O   0  0  0  0  0  0  0  0  0  0  0  0
   24.8765   27.7074    4.4450 C   0  0  2  0  0  0  0  0  0  0  0  0
   26.0814   28.5178    4.0746 N   0  0  0  0  0  0  0  0  0  0  0  0
   28.2010   23.5958   11.1198 C   0  0  0  0  0  0  0  0  0  0  0  0
   29.4382   23.4110   11.7907 N   0  0  0  0  0  0  0  0  0  0  0  0
   27.6231   18.6724   -0.7298 C   0  0  1  0  0  0  0  0  0  0  0  0
   27.6507   17.2744   -0.9723 O   0  0  0  0  0  0  0  0  0  0  0  0
   29.8438   21.8142    0.2176 C   0  0  2  0  0  0  0  0  0  0  0  0
   29.7256   20.7932   -0.7849 N   0  0  0  0  0  0  0  0  0  0  0  0
   26.3768   25.1984    4.6150 C   0  0  2  0  0  0  0  0  0  0  0  0
   26.3264   26.1351    5.6810 O   0  0  0  0  0  0  0  0  0  0  0  0
   23.6268   28.6202    4.6290 C   0  0  1  0  0  0  0  0  0  0  0  0
   22.5105   27.7236    4.9716 O   0  0  0  0  0  0  0  0  0  0  0  0
   30.5482   24.2879   11.6257 C   0  0  0  0  0  0  0  0  0  0  0  0
   27.1102   19.4651   -1.9671 C   0  0  2  0  0  0  0  0  0  0  0  0
   27.9836   19.2392   -3.1441 O   0  0  0  0  0  0  0  0  0  0  0  0
   28.4096   22.1598    0.7948 C   0  0  2  0  0  0  0  0  0  0  0  0
   25.0670   24.3975    4.4225 C   0  0  1  0  0  0  0  0  0  0  0  0
   23.8972   29.7015    5.8137 C   0  0  2  0  0  0  0  0  0  0  0  0
   25.0121   30.6009    5.4783 O   0  0  0  0  0  0  0  0  0  0  0  0
   30.4419   25.4055   10.7617 C   0  0  0  0  0  0  0  0  0  0  0  0
   27.0770   21.0106   -1.6544 C   0  0  2  0  0  0  0  0  0  0  0  0
   26.2126   21.1654   -0.4952 O   0  0  0  0  0  0  0  0  0  0  0  0
   28.5891   23.2731    1.8845 C   0  0  2  0  0  0  0  0  0  0  0  0
   27.2581   23.4917    2.3360 O   0  0  0  0  0  0  0  0  0  0  0  0
   24.1045   25.0790    3.4512 C   0  0  0  0  0  0  0  0  0  0  0  0
   22.7841   25.2317    3.9142 O   0  0  0  0  0  0  0  0  0  0  0  0
   24.2228   28.9290    7.1739 C   0  0  1  0  0  0  0  0  0  0  0  0
   25.4115   28.0203    6.9376 O   0  0  0  0  0  0  0  0  0  0  0  0
   29.1715   25.6420   10.0374 C   0  0  0  0  0  0  0  0  0  0  0  0
   26.5657   21.7024   -2.8485 C   0  0  0  0  0  0  0  0  0  0  0  0
   25.3028   21.3215   -3.0783 O   0  0  0  0  0  0  0  0  0  0  0  0
   29.2346   24.5776    1.2529 C   0  0  1  0  0  0  0  0  0  0  0  0
   29.3966   25.5501    2.2324 O   0  0  0  0  0  0  0  0  0  0  0  0
   26.5197   22.4785    6.6130 C   0  0  0  0  0  0  0  0  0  0  0  0
   24.4819   30.0073    8.2609 C   0  0  0  0  0  0  0  0  0  0  0  0
   25.4667   30.9579    7.8079 N   0  0  0  0  0  0  0  0  0  0  0  0
   25.7610   23.4373    7.5364 C   0  0  0  0  0  0  0  0  0  0  0  0
   26.6795   24.5367    7.9773 N   0  0  0  0  0  0  0  0  0  0  0  0
   26.6227   24.8937    9.4870 C   0  0  0  0  0  0  0  0  0  0  0  0
  1  2  1  6  0  0  0
  1  9  1  0  0  0  0
  1 35  1  0  0  0  0
  3  4  1  6  0  0  0
  3 11  1  0  0  0  0
  3 45  1  0  0  0  0
  5  6  1  0  0  0  0
  5 12  1  0  0  0  0
  5 37  1  6  0  0  0
  6 30  1  0  0  0  0
  7 14  1  0  0  0  0
  7 41  1  0  0  0  0
  7 23  1  6  0  0  0
  8 16  2  0  0  0  0
  8 42  1  0  0  0  0
  9 10  1  1  0  0  0
  9 18  1  0  0  0  0
 11 20  1  0  0  0  0
 12 13  1  1  0  0  0
 12 22  1  0  0  0  0
 13 47  1  0  0  0  0
 14 15  1  1  0  0  0
 14 24  1  0  0  0  0
 16 17  1  0  0  0  0
 17 26  2  0  0  0  0
 18 19  1  6  0  0  0
 18 27  1  0  0  0  0
 20 21  1  6  0  0  0
 20 29  1  0  0  0  0
 22 23  1  1  0  0  0
 22 30  1  0  0  0  0
 24 25  1  1  0  0  0
 24 31  1  0  0  0  0
 26 33  1  0  0  0  0
 27 28  1  6  0  0  0
 27 34  1  0  0  0  0
 29  2  1  1  0  0  0
 29 36  1  0  0  0  0
 30 38  1  6  0  0  0
 31 32  1  6  0  0  0
 31 40  1  0  0  0  0
 33 42  2  0  0  0  0
 34 35  1  0  0  0  0
 34 43  1  6  0  0  0
 36 37  1  6  0  0  0
 36 45  1  0  0  0  0
 38 39  1  0  0  0  0
 40 41  1  0  0  0  0
 40 48  1  1  0  0  0
 43 44  1  0  0  0  0
 45 46  1  1  0  0  0
 47 50  1  0  0  0  0
 48 49  1  0  0  0  0
 50 51  1  0  0  0  0
 51 52  1  0  0  0  0
 52  8  1  0  0  0  0
M  END
>  <CHROM.1>
134.24361524,-166.83823968,-53.10023025,-54.84094167,-84.35418386,-164.10227432
-121.28769590,114.05108993,63.86212931,112.40063721,-52.01656315,-28.73178003
-135.28791696,120.46814205,-106.68734376,26.93393120,24.08502241,3.78735209
-1.34430567,-0.94457988,1.12633260

>  <Name>
2be0_lig

>  <RI>
2.57068e+07

>  <Rbt.Current_Directory>
/home/itssahil/PROJECTS/Mol_Feturizer/New_Systems/rnas/2be0

>  <Rbt.Executable>
rbdock ($Id: //depot/dev/client3/rdock/2013.1/src/exe/rbdock.cxx#4 $)

>  <Rbt.Library>
libRbt.so (2013.1, Build901 2013/11/27)

>  <Rbt.Parameter_File>
/export/apps/rDock/src/rDock_2013.1_src/data/scripts/dock_solv.prm

>  <Rbt.Receptor>
prm/blind_docking_60.prm

>  <SCORE>
19.2374

>  <SCORE.INTER>
2.22044

>  <SCORE.INTER.CONST>
1

>  <SCORE.INTER.POLAR>
-0.456893

>  <SCORE.INTER.ROT>
15

>  <SCORE.INTER.SOLV>
37.6634

>  <SCORE.INTER.VDW>
-23.1512

>  <SCORE.INTER.norm>
0.0427008

>  <SCORE.INTRA>
2.4

>  <SCORE.INTRA.DIHEDRAL>
-10.8915

>  <SCORE.INTRA.DIHEDRAL.0>
47.8724

>  <SCORE.INTRA.POLAR>
0

>  <SCORE.INTRA.POLAR.0>
0

>  <SCORE.INTRA.REPUL>
0.0727398

>  <SCORE.INTRA.REPUL.0>
0

>  <SCORE.INTRA.SOLV>
6.88865

>  <SCORE.INTRA.SOLV.lig_0>
-115.677

>  <SCORE.INTRA.VDW>
4.03775

>  <SCORE.INTRA.VDW.0>
-7.4833

>  <SCORE.INTRA.norm>
0.0461538

>  <SCORE.RESTR>
14.6169

>  <SCORE.RESTR.CAVITY>
14.6169

>  <SCORE.RESTR.norm>
0.281094

>  <SCORE.SYSTEM>
0

>  <SCORE.SYSTEM.CONST>
0

>  <SCORE.SYSTEM.DIHEDRAL>
0

>  <SCORE.SYSTEM.SOLV>
0

>  <SCORE.SYSTEM.norm>
0

>  <SCORE.heavy>
52

>  <SCORE.norm>
0.369949

>  <RMSD>
27.497

$$$$
2be0_lig
 OpenBabel11021811423D
libRbt.so/2013.1/901 2013/11/27
 52 56  0  0  0  0  0  0  0  0999 V2000
   28.5829   21.3252    0.0301 C   0  0  2  0  0  0  0  0  0  0  0  0
   28.3812   21.1279    1.4097 O   0  0  0  0  0  0  0  0  0  0  0  0
   25.0832   18.2193    1.5972 C   0  0  2  0  0  0  0  0  0  0  0  0
   24.2911   17.0329    2.0266 N   0  0  0  0  0  0  0  0  0  0  0  0
   26.0560   22.7488    3.2230 C   0  0  2  0  0  0  0  0  0  0  0  0
   26.9871   23.4587    2.3807 O   0  0  0  0  0  0  0  0  0  0  0  0
   27.8878   24.4746    7.0371 C   0  0  1  0  0  0  0  0  0  0  0  0
   24.0665   29.5553    5.5787 C   0  0  0  0  0  0  0  0  0  0  0  0
   29.5567   22.5440   -0.2382 C   0  0  2  0  0  0  0  0  0  0  0  0
   30.8074   22.3505    0.4986 N   0  0  0  0  0  0  0  0  0  0  0  0
   26.5243   17.7367    1.1088 C   0  0  0  0  0  0  0  0  0  0  0  0
   26.0592   23.4608    4.5852 C   0  0  2  0  0  0  0  0  0  0  0  0
   25.0737   24.5710    4.4017 O   0  0  0  0  0  0  0  0  0  0  0  0
   26.5927   25.2583    7.6285 C   0  0  2  0  0  0  0  0  0  0  0  0
   26.7597   26.7251    7.3708 N   0  0  0  0  0  0  0  0  0  0  0  0
   23.9872   30.8993    5.0864 C   0  0  0  0  0  0  0  0  0  0  0  0
   24.7701   31.9172    5.6913 N   0  0  0  0  0  0  0  0  0  0  0  0
   28.8308   23.9105    0.1637 C   0  0  1  0  0  0  0  0  0  0  0  0
   29.7220   24.9884   -0.0770 O   0  0  0  0  0  0  0  0  0  0  0  0
   27.4318   19.0126    0.6415 C   0  0  2  0  0  0  0  0  0  0  0  0
   28.7306   18.5914    0.1975 N   0  0  0  0  0  0  0  0  0  0  0  0
   27.5631   23.7802    4.6805 C   0  0  2  0  0  0  0  0  0  0  0  0
   27.9551   24.7619    5.6287 O   0  0  0  0  0  0  0  0  0  0  0  0
   26.5147   24.9672    9.1576 C   0  0  1  0  0  0  0  0  0  0  0  0
   26.3361   23.5119    9.2899 O   0  0  0  0  0  0  0  0  0  0  0  0
   25.6483   31.6727    6.7854 C   0  0  0  0  0  0  0  0  0  0  0  0
   27.5241   24.0415   -0.6715 C   0  0  2  0  0  0  0  0  0  0  0  0
   26.8019   25.2930   -0.3383 O   0  0  0  0  0  0  0  0  0  0  0  0
   27.5868   20.0311    1.8449 C   0  0  2  0  0  0  0  0  0  0  0  0
   27.9477   24.1286    3.2228 C   0  0  1  0  0  0  0  0  0  0  0  0
   27.8817   25.4605    9.8883 C   0  0  2  0  0  0  0  0  0  0  0  0
   28.0670   26.9143    9.7599 O   0  0  0  0  0  0  0  0  0  0  0  0
   25.7693   30.3639    7.3140 C   0  0  0  0  0  0  0  0  0  0  0  0
   26.5680   22.8189   -0.3912 C   0  0  2  0  0  0  0  0  0  0  0  0
   27.3308   21.6285   -0.7318 O   0  0  0  0  0  0  0  0  0  0  0  0
   26.1476   20.4642    2.2922 C   0  0  2  0  0  0  0  0  0  0  0  0
   26.4066   21.3749    3.3536 O   0  0  0  0  0  0  0  0  0  0  0  0
   29.3263   23.5930    2.8398 C   0  0  0  0  0  0  0  0  0  0  0  0
   29.5258   22.2180    3.0650 O   0  0  0  0  0  0  0  0  0  0  0  0
   29.1318   24.7021    9.2441 C   0  0  1  0  0  0  0  0  0  0  0  0
   29.1422   24.9731    7.7538 O   0  0  0  0  0  0  0  0  0  0  0  0
   24.9726   29.2664    6.7182 C   0  0  0  0  0  0  0  0  0  0  0  0
   25.3645   22.9867   -1.2216 C   0  0  0  0  0  0  0  0  0  0  0  0
   25.6792   22.7907   -2.5081 O   0  0  0  0  0  0  0  0  0  0  0  0
   25.3055   19.2063    2.7676 C   0  0  1  0  0  0  0  0  0  0  0  0
   24.0304   19.6049    3.1506 O   0  0  0  0  0  0  0  0  0  0  0  0
   23.6142   24.5551    4.6585 C   0  0  0  0  0  0  0  0  0  0  0  0
   30.4034   25.2192    9.9702 C   0  0  0  0  0  0  0  0  0  0  0  0
   30.4684   24.6979   11.3129 N   0  0  0  0  0  0  0  0  0  0  0  0
   23.0654   25.9227    4.2392 C   0  0  0  0  0  0  0  0  0  0  0  0
   23.7778   27.0005    4.9993 N   0  0  0  0  0  0  0  0  0  0  0  0
   23.1703   28.4236    4.8742 C   0  0  0  0  0  0  0  0  0  0  0  0
  1  2  1  1  0  0  0
  1  9  1  0  0  0  0
  1 35  1  0  0  0  0
  3  4  1  1  0  0  0
  3 11  1  0  0  0  0
  3 45  1  0  0  0  0
  5  6  1  0  0  0  0
  5 12  1  0  0  0  0
  5 37  1  1  0  0  0
  6 30  1  0  0  0  0
  7 14  1  0  0  0  0
  7 41  1  0  0  0  0
  7 23  1  6  0  0  0
  8 16  2  0  0  0  0
  8 42  1  0  0  0  0
  9 10  1  1  0  0  0
  9 18  1  0  0  0  0
 11 20  1  0  0  0  0
 12 13  1  6  0  0  0
 12 22  1  0  0  0  0
 13 47  1  0  0  0  0
 14 15  1  1  0  0  0
 14 24  1  0  0  0  0
 16 17  1  0  0  0  0
 17 26  2  0  0  0  0
 18 19  1  6  0  0  0
 18 27  1  0  0  0  0
 20 21  1  1  0  0  0
 20 29  1  0  0  0  0
 22 23  1  1  0  0  0
 22 30  1  0  0  0  0
 24 25  1  6  0  0  0
 24 31  1  0  0  0  0
 26 33  1  0  0  0  0
 27 28  1  1  0  0  0
 27 34  1  0  0  0  0
 29  2  1  6  0  0  0
 29 36  1  0  0  0  0
 30 38  1  6  0  0  0
 31 32  1  6  0  0  0
 31 40  1  0  0  0  0
 33 42  2  0  0  0  0
 34 35  1  0  0  0  0
 34 43  1  6  0  0  0
 36 37  1  1  0  0  0
 36 45  1  0  0  0  0
 38 39  1  0  0  0  0
 40 41  1  0  0  0  0
 40 48  1  1  0  0  0
 43 44  1  0  0  0  0
 45 46  1  6  0  0  0
 47 50  1  0  0  0  0
 48 49  1  0  0  0  0
 50 51  1  0  0  0  0
 51 52  1  0  0  0  0
 52  8  1  0  0  0  0
M  END
>  <CHROM.1>
-176.80189413,-76.34229097,-104.51857936,90.13313911,-177.11107843,70.67844285
16.08858961,-63.04028721,70.32109291,114.87583246,72.29127485,-57.32963444
-169.71247520,-173.76757613,153.23314043,26.85206971,23.92701899,3.87890420
1.41992892,1.13736487,-2.20080190

>  <Name>
2be0_lig

>  <RI>
2.57068e+07

>  <Rbt.Current_Directory>
/home/itssahil/PROJECTS/Mol_Feturizer/New_Systems/rnas/2be0

>  <Rbt.Executable>
rbdock ($Id: //depot/dev/client3/rdock/2013.1/src/exe/rbdock.cxx#4 $)

>  <Rbt.Library>
libRbt.so (2013.1, Build901 2013/11/27)

>  <Rbt.Parameter_File>
/export/apps/rDock/src/rDock_2013.1_src/data/scripts/dock_solv.prm

>  <Rbt.Receptor>
prm/blind_docking_60.prm

>  <SCORE>
36.4349

>  <SCORE.INTER>
12.8458

>  <SCORE.INTER.CONST>
1

>  <SCORE.INTER.POLAR>
-1.23185

>  <SCORE.INTER.ROT>
15

>  <SCORE.INTER.SOLV>
30.805

>  <SCORE.INTER.VDW>
-11.1983

>  <SCORE.INTER.norm>
0.247034

>  <SCORE.INTRA>
-2.63862

>  <SCORE.INTRA.DIHEDRAL>
-21.3808

>  <SCORE.INTRA.DIHEDRAL.0>
47.8724

>  <SCORE.INTRA.POLAR>
0

>  <SCORE.INTRA.POLAR.0>
0

>  <SCORE.INTRA.REPUL>
0

>  <SCORE.INTRA.REPUL.0>
0

>  <SCORE.INTRA.SOLV>
4.77996

>  <SCORE.INTRA.SOLV.lig_0>
-115.677

>  <SCORE.INTRA.VDW>
5.6618

>  <SCORE.INTRA.VDW.0>
-7.4833

>  <SCORE.INTRA.norm>
-0.0507428

>  <SCORE.RESTR>
26.2277

>  <SCORE.RESTR.CAVITY>
26.2277

>  <SCORE.RESTR.norm>
0.50438

>  <SCORE.SYSTEM>
0

>  <SCORE.SYSTEM.CONST>
0

>  <SCORE.SYSTEM.DIHEDRAL>
0

>  <SCORE.SYSTEM.SOLV>
0

>  <SCORE.SYSTEM.norm>
0

>  <SCORE.heavy>
52

>  <SCORE.norm>
0.700671

>  <RMSD>
27.653

$$$$
2be0_lig
 OpenBabel11021811423D
libRbt.so/2013.1/901 2013/11/27
 52 56  0  0  0  0  0  0  0  0999 V2000
   26.4571   26.5884    5.2292 C   0  0  2  0  0  0  0  0  0  0  0  0
   25.3614   25.7096    5.3287 O   0  0  0  0  0  0  0  0  0  0  0  0
   21.5861   24.9332    3.2037 C   0  0  2  0  0  0  0  0  0  0  0  0
   20.3746   25.1832    2.3736 N   0  0  0  0  0  0  0  0  0  0  0  0
   26.0291   24.1146    1.8860 C   0  0  2  0  0  0  0  0  0  0  0  0
   26.1607   22.9220    2.6865 O   0  0  0  0  0  0  0  0  0  0  0  0
   30.2817   24.2471    1.4434 C   0  0  1  0  0  0  0  0  0  0  0  0
   24.7611   20.3480   -2.9830 C   0  0  0  0  0  0  0  0  0  0  0  0
   27.2785   26.6358    6.5815 C   0  0  2  0  0  0  0  0  0  0  0  0
   27.6694   25.2795    6.9716 N   0  0  0  0  0  0  0  0  0  0  0  0
   21.5958   25.9503    4.4340 C   0  0  0  0  0  0  0  0  0  0  0  0
   27.4492   24.5236    1.4637 C   0  0  2  0  0  0  0  0  0  0  0  0
   27.6980   23.7060    0.2361 O   0  0  0  0  0  0  0  0  0  0  0  0
   30.0788   22.8771    0.5931 C   0  0  2  0  0  0  0  0  0  0  0  0
   30.6514   21.7357    1.3773 N   0  0  0  0  0  0  0  0  0  0  0  0
   23.5881   19.5421   -3.1545 C   0  0  0  0  0  0  0  0  0  0  0  0
   23.2212   19.1016   -4.4531 N   0  0  0  0  0  0  0  0  0  0  0  0
   26.4094   27.3567    7.7132 C   0  0  1  0  0  0  0  0  0  0  0  0
   27.1596   27.3821    8.9177 O   0  0  0  0  0  0  0  0  0  0  0  0
   22.9192   25.7179    5.3637 C   0  0  2  0  0  0  0  0  0  0  0  0
   22.9387   26.6257    6.4758 N   0  0  0  0  0  0  0  0  0  0  0  0
   28.1902   24.1861    2.7713 C   0  0  2  0  0  0  0  0  0  0  0  0
   29.6041   24.0742    2.7010 O   0  0  0  0  0  0  0  0  0  0  0  0
   30.8198   23.0447   -0.7678 C   0  0  1  0  0  0  0  0  0  0  0  0
   30.1689   24.1732   -1.4534 O   0  0  0  0  0  0  0  0  0  0  0  0
   23.9691   19.4242   -5.6213 C   0  0  0  0  0  0  0  0  0  0  0  0
   26.0501   28.7899    7.2241 C   0  0  2  0  0  0  0  0  0  0  0  0
   25.2374   29.5096    8.2343 O   0  0  0  0  0  0  0  0  0  0  0  0
   24.2283   25.9160    4.4939 C   0  0  2  0  0  0  0  0  0  0  0  0
   27.4837   22.8995    3.2608 C   0  0  1  0  0  0  0  0  0  0  0  0
   32.3974   23.3450   -0.5089 C   0  0  2  0  0  0  0  0  0  0  0  0
   33.0546   22.2213    0.1765 O   0  0  0  0  0  0  0  0  0  0  0  0
   25.1385   20.2167   -5.5138 C   0  0  0  0  0  0  0  0  0  0  0  0
   25.2332   28.7218    5.8767 C   0  0  2  0  0  0  0  0  0  0  0  0
   26.0770   28.0055    4.9334 O   0  0  0  0  0  0  0  0  0  0  0  0
   24.1640   24.9045    3.2973 C   0  0  2  0  0  0  0  0  0  0  0  0
   25.3783   25.1594    2.6018 O   0  0  0  0  0  0  0  0  0  0  0  0
   27.3105   22.8710    4.7784 C   0  0  0  0  0  0  0  0  0  0  0  0
   27.0760   21.6007    5.3376 O   0  0  0  0  0  0  0  0  0  0  0  0
   32.5485   24.6708    0.3699 C   0  0  1  0  0  0  0  0  0  0  0  0
   31.7762   24.4830    1.6595 O   0  0  0  0  0  0  0  0  0  0  0  0
   25.5634   20.7022   -4.1804 C   0  0  0  0  0  0  0  0  0  0  0  0
   24.9425   30.1014    5.4543 C   0  0  0  0  0  0  0  0  0  0  0  0
   24.0654   30.6523    6.3028 O   0  0  0  0  0  0  0  0  0  0  0  0
   22.8848   25.1781    2.3995 C   0  0  1  0  0  0  0  0  0  0  0  0
   22.8367   24.2679    1.3504 O   0  0  0  0  0  0  0  0  0  0  0  0
   26.7274   23.2947   -0.8055 C   0  0  0  0  0  0  0  0  0  0  0  0
   34.0681   24.9001    0.5933 C   0  0  0  0  0  0  0  0  0  0  0  0
   34.6375   23.8182    1.3576 N   0  0  0  0  0  0  0  0  0  0  0  0
   27.3700   22.1516   -1.5978 C   0  0  0  0  0  0  0  0  0  0  0  0
   26.6857   20.8623   -1.2573 N   0  0  0  0  0  0  0  0  0  0  0  0
   25.1529   20.8311   -1.5020 C   0  0  0  0  0  0  0  0  0  0  0  0
  1  2  1  1  0  0  0
  1  9  1  0  0  0  0
  1 35  1  0  0  0  0
  3  4  1  6  0  0  0
  3 11  1  0  0  0  0
  3 45  1  0  0  0  0
  5  6  1  0  0  0  0
  5 12  1  0  0  0  0
  5 37  1  1  0  0  0
  6 30  1  0  0  0  0
  7 14  1  0  0  0  0
  7 41  1  0  0  0  0
  7 23  1  1  0  0  0
  8 16  2  0  0  0  0
  8 42  1  0  0  0  0
  9 10  1  1  0  0  0
  9 18  1  0  0  0  0
 11 20  1  0  0  0  0
 12 13  1  6  0  0  0
 12 22  1  0  0  0  0
 13 47  1  0  0  0  0
 14 15  1  1  0  0  0
 14 24  1  0  0  0  0
 16 17  1  0  0  0  0
 17 26  2  0  0  0  0
 18 19  1  1  0  0  0
 18 27  1  0  0  0  0
 20 21  1  1  0  0  0
 20 29  1  0  0  0  0
 22 23  1  6  0  0  0
 22 30  1  0  0  0  0
 24 25  1  1  0  0  0
 24 31  1  0  0  0  0
 26 33  1  0  0  0  0
 27 28  1  1  0  0  0
 27 34  1  0  0  0  0
 29  2  1  1  0  0  0
 29 36  1  0  0  0  0
 30 38  1  1  0  0  0
 31 32  1  1  0  0  0
 31 40  1  0  0  0  0
 33 42  2  0  0  0  0
 34 35  1  0  0  0  0
 34 43  1  6  0  0  0
 36 37  1  6  0  0  0
 36 45  1  0  0  0  0
 38 39  1  0  0  0  0
 40 41  1  0  0  0  0
 40 48  1  1  0  0  0
 43 44  1  0  0  0  0
 45 46  1  6  0  0  0
 47 50  1  0  0  0  0
 48 49  1  0  0  0  0
 50 51  1  0  0  0  0
 51 52  1  0  0  0  0
 52  8  1  0  0  0  0
M  END
>  <CHROM.1>
154.37978989,-48.84463462,-77.30315308,34.26707978,-163.44563328,-1.23252016
-136.94387755,82.94371760,-68.95752973,149.57650868,-63.64175502,108.09045115
57.12833439,89.38686688,143.63364916,26.77159354,24.38406184,2.25905754,-1.82292806
-0.00043846,-2.19640514

>  <Name>
2be0_lig

>  <RI>
2.57068e+07

>  <Rbt.Current_Directory>
/home/itssahil/PROJECTS/Mol_Feturizer/New_Systems/rnas/2be0

>  <Rbt.Executable>
rbdock ($Id: //depot/dev/client3/rdock/2013.1/src/exe/rbdock.cxx#4 $)

>  <Rbt.Library>
libRbt.so (2013.1, Build901 2013/11/27)

>  <Rbt.Parameter_File>
/export/apps/rDock/src/rDock_2013.1_src/data/scripts/dock_solv.prm

>  <Rbt.Receptor>
prm/blind_docking_60.prm

>  <SCORE>
24.1284

>  <SCORE.INTER>
-3.09812

>  <SCORE.INTER.CONST>
1

>  <SCORE.INTER.POLAR>
-2.25257

>  <SCORE.INTER.ROT>
15

>  <SCORE.INTER.SOLV>
23.9037

>  <SCORE.INTER.VDW>
-16.1247

>  <SCORE.INTER.norm>
-0.0595792

>  <SCORE.INTRA>
-0.914775

>  <SCORE.INTRA.DIHEDRAL>
-13.8089

>  <SCORE.INTRA.DIHEDRAL.0>
47.8724

>  <SCORE.INTRA.POLAR>
0

>  <SCORE.INTRA.POLAR.0>
0

>  <SCORE.INTRA.REPUL>
0

>  <SCORE.INTRA.REPUL.0>
0

>  <SCORE.INTRA.SOLV>
3.80087

>  <SCORE.INTRA.SOLV.lig_0>
-115.677

>  <SCORE.INTRA.VDW>
4.08926

>  <SCORE.INTRA.VDW.0>
-7.4833

>  <SCORE.INTRA.norm>
-0.0175918

>  <SCORE.RESTR>
28.1413

>  <SCORE.RESTR.CAVITY>
28.1413

>  <SCORE.RESTR.norm>
0.541178

>  <SCORE.SYSTEM>
0

>  <SCORE.SYSTEM.CONST>
0

>  <SCORE.SYSTEM.DIHEDRAL>
0

>  <SCORE.SYSTEM.SOLV>
0

>  <SCORE.SYSTEM.norm>
0

>  <SCORE.heavy>
52

>  <SCORE.norm>
0.464007

>  <RMSD>
27.748

$$$$
2be0_lig
 OpenBabel11021811423D
libRbt.so/2013.1/901 2013/11/27
 52 56  0  0  0  0  0  0  0  0999 V2000
   27.6399   24.7208    8.2073 C   0  0  2  0  0  0  0  0  0  0  0  0
   26.8242   25.8292    8.5054 O   0  0  0  0  0  0  0  0  0  0  0  0
   24.2882   28.3129    5.9033 C   0  0  2  0  0  0  0  0  0  0  0  0
   23.9083   29.2816    4.8371 N   0  0  0  0  0  0  0  0  0  0  0  0
   25.5499   24.1108    4.9564 C   0  0  2  0  0  0  0  0  0  0  0  0
   26.1603   22.8044    4.9224 O   0  0  0  0  0  0  0  0  0  0  0  0
   28.8103   23.5870    1.5263 C   0  0  1  0  0  0  0  0  0  0  0  0
   25.7014   21.4003   -1.6520 C   0  0  0  0  0  0  0  0  0  0  0  0
   27.7346   23.7310    9.4390 C   0  0  2  0  0  0  0  0  0  0  0  0
   26.3889   23.3483    9.8717 N   0  0  0  0  0  0  0  0  0  0  0  0
   25.2979   29.0208    6.9171 C   0  0  0  0  0  0  0  0  0  0  0  0
   25.7367   24.7235    3.5592 C   0  0  2  0  0  0  0  0  0  0  0  0
   24.5780   24.1831    2.7828 O   0  0  0  0  0  0  0  0  0  0  0  0
   29.6149   24.5973    0.5397 C   0  0  2  0  0  0  0  0  0  0  0  0
   28.7497   24.9016   -0.6455 N   0  0  0  0  0  0  0  0  0  0  0  0
   24.5992   20.5404   -1.9688 C   0  0  0  0  0  0  0  0  0  0  0  0
   24.3871   20.1350   -3.3126 N   0  0  0  0  0  0  0  0  0  0  0  0
   28.5692   24.4174   10.6171 C   0  0  1  0  0  0  0  0  0  0  0  0
   28.6359   23.5180   11.7129 O   0  0  0  0  0  0  0  0  0  0  0  0
   25.7510   27.9849    8.0967 C   0  0  2  0  0  0  0  0  0  0  0  0
   26.6581   28.6105    9.0171 N   0  0  0  0  0  0  0  0  0  0  0  0
   27.1598   24.2120    3.2660 C   0  0  2  0  0  0  0  0  0  0  0  0
   27.5921   24.2477    1.9139 O   0  0  0  0  0  0  0  0  0  0  0  0
   30.9318   23.8889    0.1004 C   0  0  1  0  0  0  0  0  0  0  0  0
   31.7030   23.6555    1.3325 O   0  0  0  0  0  0  0  0  0  0  0  0
   25.2257   20.5456   -4.3878 C   0  0  0  0  0  0  0  0  0  0  0  0
   29.9835   24.7783   10.0769 C   0  0  2  0  0  0  0  0  0  0  0  0
   30.8064   25.4246   11.1278 O   0  0  0  0  0  0  0  0  0  0  0  0
   26.4398   26.7099    7.4567 C   0  0  2  0  0  0  0  0  0  0  0  0
   27.1658   22.7954    3.8883 C   0  0  1  0  0  0  0  0  0  0  0  0
   30.5861   22.4883   -0.6510 C   0  0  2  0  0  0  0  0  0  0  0  0
   29.8149   22.7139   -1.8834 O   0  0  0  0  0  0  0  0  0  0  0  0
   26.3314   21.3946   -4.1355 C   0  0  0  0  0  0  0  0  0  0  0  0
   29.8683   25.7639    8.8510 C   0  0  2  0  0  0  0  0  0  0  0  0
   29.0517   25.0782    7.8622 O   0  0  0  0  0  0  0  0  0  0  0  0
   25.4136   26.0604    6.4646 C   0  0  2  0  0  0  0  0  0  0  0  0
   26.1248   24.9339    5.9661 O   0  0  0  0  0  0  0  0  0  0  0  0
   28.4954   22.4605    4.5623 C   0  0  0  0  0  0  0  0  0  0  0  0
   29.5114   22.0018    3.7031 O   0  0  0  0  0  0  0  0  0  0  0  0
   29.7547   21.5468    0.3365 C   0  0  1  0  0  0  0  0  0  0  0  0
   28.5100   22.2905    0.7749 O   0  0  0  0  0  0  0  0  0  0  0  0
   26.5953   21.8465   -2.7497 C   0  0  0  0  0  0  0  0  0  0  0  0
   31.2302   26.0505    8.3721 C   0  0  0  0  0  0  0  0  0  0  0  0
   31.8031   26.9576    9.1732 O   0  0  0  0  0  0  0  0  0  0  0  0
   25.0193   27.0822    5.3166 C   0  0  1  0  0  0  0  0  0  0  0  0
   24.1023   26.4957    4.4524 O   0  0  0  0  0  0  0  0  0  0  0  0
   24.0013   24.6958    1.5176 C   0  0  0  0  0  0  0  0  0  0  0  0
   29.4451   20.2353   -0.4354 C   0  0  0  0  0  0  0  0  0  0  0  0
   28.7421   19.3028    0.4101 N   0  0  0  0  0  0  0  0  0  0  0  0
   24.0952   23.5665    0.4864 C   0  0  0  0  0  0  0  0  0  0  0  0
   25.5338   23.3222    0.1438 N   0  0  0  0  0  0  0  0  0  0  0  0
   25.9181   21.8418   -0.1228 C   0  0  0  0  0  0  0  0  0  0  0  0
  1  2  1  1  0  0  0
  1  9  1  0  0  0  0
  1 35  1  0  0  0  0
  3  4  1  6  0  0  0
  3 11  1  0  0  0  0
  3 45  1  0  0  0  0
  5  6  1  0  0  0  0
  5 12  1  0  0  0  0
  5 37  1  1  0  0  0
  6 30  1  0  0  0  0
  7 14  1  0  0  0  0
  7 41  1  0  0  0  0
  7 23  1  6  0  0  0
  8 16  2  0  0  0  0
  8 42  1  0  0  0  0
  9 10  1  1  0  0  0
  9 18  1  0  0  0  0
 11 20  1  0  0  0  0
 12 13  1  6  0  0  0
 12 22  1  0  0  0  0
 13 47  1  0  0  0  0
 14 15  1  6  0  0  0
 14 24  1  0  0  0  0
 16 17  1  0  0  0  0
 17 26  2  0  0  0  0
 18 19  1  1  0  0  0
 18 27  1  0  0  0  0
 20 21  1  1  0  0  0
 20 29  1  0  0  0  0
 22 23  1  6  0  0  0
 22 30  1  0  0  0  0
 24 25  1  1  0  0  0
 24 31  1  0  0  0  0
 26 33  1  0  0  0  0
 27 28  1  1  0  0  0
 27 34  1  0  0  0  0
 29  2  1  1  0  0  0
 29 36  1  0  0  0  0
 30 38  1  1  0  0  0
 31 32  1  6  0  0  0
 31 40  1  0  0  0  0
 33 42  2  0  0  0  0
 34 35  1  0  0  0  0
 34 43  1  6  0  0  0
 36 37  1  6  0  0  0
 36 45  1  0  0  0  0
 38 39  1  0  0  0  0
 40 41  1  0  0  0  0
 40 48  1  6  0  0  0
 43 44  1  0  0  0  0
 45 46  1  6  0  0  0
 47 50  1  0  0  0  0
 48 49  1  0  0  0  0
 50 51  1  0  0  0  0
 51 52  1  0  0  0  0
 52  8  1  0  0  0  0
M  END
>  <CHROM.1>
-169.61057675,-159.34530109,-136.12559006,161.07100831,120.88546326,-169.60281814
-170.30312138,161.20981076,-78.73647985,-176.23672426,177.53392837,-68.29535390
144.20281124,87.47227946,-106.68009250,27.39484644,24.13082409,3.85945510
-1.48375944,0.42258897,-1.98116577

>  <Name>
2be0_lig

>  <RI>
2.57068e+07

>  <Rbt.Current_Directory>
/home/itssahil/PROJECTS/Mol_Feturizer/New_Systems/rnas/2be0

>  <Rbt.Executable>
rbdock ($Id: //depot/dev/client3/rdock/2013.1/src/exe/rbdock.cxx#4 $)

>  <Rbt.Library>
libRbt.so (2013.1, Build901 2013/11/27)

>  <Rbt.Parameter_File>
/export/apps/rDock/src/rDock_2013.1_src/data/scripts/dock_solv.prm

>  <Rbt.Receptor>
prm/blind_docking_60.prm

>  <SCORE>
15.4905

>  <SCORE.INTER>
6.28677

>  <SCORE.INTER.CONST>
1

>  <SCORE.INTER.POLAR>
-1.66297

>  <SCORE.INTER.ROT>
15

>  <SCORE.INTER.SOLV>
30.2474

>  <SCORE.INTER.VDW>
-13.948

>  <SCORE.INTER.norm>
0.120899

>  <SCORE.INTRA>
-9.30206

>  <SCORE.INTRA.DIHEDRAL>
-24.6743

>  <SCORE.INTRA.DIHEDRAL.0>
47.8724

>  <SCORE.INTRA.POLAR>
0

>  <SCORE.INTRA.POLAR.0>
0

>  <SCORE.INTRA.REPUL>
0.157844

>  <SCORE.INTRA.REPUL.0>
0

>  <SCORE.INTRA.SOLV>
1.08885

>  <SCORE.INTRA.SOLV.lig_0>
-115.677

>  <SCORE.INTRA.VDW>
1.70145

>  <SCORE.INTRA.VDW.0>
-7.4833

>  <SCORE.INTRA.norm>
-0.178886

>  <SCORE.RESTR>
18.5058

>  <SCORE.RESTR.CAVITY>
18.5058

>  <SCORE.RESTR.norm>
0.355881

>  <SCORE.SYSTEM>
0

>  <SCORE.SYSTEM.CONST>
0

>  <SCORE.SYSTEM.DIHEDRAL>
0

>  <SCORE.SYSTEM.SOLV>
0

>  <SCORE.SYSTEM.norm>
0

>  <SCORE.heavy>
52

>  <SCORE.norm>
0.297895

>  <RMSD>
27.815

$$$$
2be0_lig
 OpenBabel11021811423D
libRbt.so/2013.1/901 2013/11/27
 52 56  0  0  0  0  0  0  0  0999 V2000
   29.3079   24.8792    0.1876 C   0  0  2  0  0  0  0  0  0  0  0  0
   29.5460   24.6509    1.5566 O   0  0  0  0  0  0  0  0  0  0  0  0
   27.7718   20.6412    1.9382 C   0  0  2  0  0  0  0  0  0  0  0  0
   27.3728   19.3441    2.5527 N   0  0  0  0  0  0  0  0  0  0  0  0
   26.6215   24.2328    4.0487 C   0  0  2  0  0  0  0  0  0  0  0  0
   25.2730   23.7355    4.1693 O   0  0  0  0  0  0  0  0  0  0  0  0
   25.5540   27.9195    5.9961 C   0  0  1  0  0  0  0  0  0  0  0  0
   28.8723   24.6520   11.0759 C   0  0  0  0  0  0  0  0  0  0  0  0
   27.7949   24.6011   -0.1853 C   0  0  2  0  0  0  0  0  0  0  0  0
   26.9176   25.3875    0.6846 N   0  0  0  0  0  0  0  0  0  0  0  0
   29.3549   20.8099    2.0551 C   0  0  0  0  0  0  0  0  0  0  0  0
   26.6542   25.5993    4.7517 C   0  0  2  0  0  0  0  0  0  0  0  0
   26.8930   25.2488    6.1861 O   0  0  0  0  0  0  0  0  0  0  0  0
   25.4358   27.1187    7.4054 C   0  0  2  0  0  0  0  0  0  0  0  0
   23.9964   27.0876    7.8210 N   0  0  0  0  0  0  0  0  0  0  0  0
   29.5191   24.3324   12.3145 C   0  0  0  0  0  0  0  0  0  0  0  0
   30.5466   25.1773   12.8098 N   0  0  0  0  0  0  0  0  0  0  0  0
   27.4944   23.0345   -0.0792 C   0  0  1  0  0  0  0  0  0  0  0  0
   26.1329   22.8078   -0.4095 O   0  0  0  0  0  0  0  0  0  0  0  0
   29.8329   22.2302    1.4038 C   0  0  2  0  0  0  0  0  0  0  0  0
   31.2560   22.3931    1.5006 N   0  0  0  0  0  0  0  0  0  0  0  0
   25.2744   26.1237    4.3114 C   0  0  2  0  0  0  0  0  0  0  0  0
   24.7396   27.2206    5.0375 O   0  0  0  0  0  0  0  0  0  0  0  0
   26.3030   27.8728    8.4581 C   0  0  1  0  0  0  0  0  0  0  0  0
   27.6871   27.8271    7.9585 O   0  0  0  0  0  0  0  0  0  0  0  0
   30.9818   26.3499   12.1289 C   0  0  0  0  0  0  0  0  0  0  0  0
   28.4574   22.2793   -1.0407 C   0  0  2  0  0  0  0  0  0  0  0  0
   28.2281   20.8154   -0.9831 O   0  0  0  0  0  0  0  0  0  0  0  0
   29.1098   23.4304    2.1427 C   0  0  2  0  0  0  0  0  0  0  0  0
   24.3844   24.8584    4.3424 C   0  0  1  0  0  0  0  0  0  0  0  0
   25.7836   29.4067    8.6109 C   0  0  2  0  0  0  0  0  0  0  0  0
   24.4005   29.4602    9.1096 O   0  0  0  0  0  0  0  0  0  0  0  0
   30.3787   26.7171   10.9007 C   0  0  0  0  0  0  0  0  0  0  0  0
   29.9587   22.5690   -0.6538 C   0  0  2  0  0  0  0  0  0  0  0  0
   30.1184   24.0127   -0.7248 O   0  0  0  0  0  0  0  0  0  0  0  0
   27.5629   23.2115    2.0078 C   0  0  2  0  0  0  0  0  0  0  0  0
   27.0233   24.3390    2.6868 O   0  0  0  0  0  0  0  0  0  0  0  0
   23.3863   24.8194    3.1864 C   0  0  0  0  0  0  0  0  0  0  0  0
   22.1975   24.1084    3.4363 O   0  0  0  0  0  0  0  0  0  0  0  0
   25.8711   30.1407    7.1944 C   0  0  1  0  0  0  0  0  0  0  0  0
   25.0546   29.3505    6.1926 O   0  0  0  0  0  0  0  0  0  0  0  0
   29.3019   25.8678   10.3408 C   0  0  0  0  0  0  0  0  0  0  0  0
   30.8181   21.8486   -1.6070 C   0  0  0  0  0  0  0  0  0  0  0  0
   32.0157   22.4445   -1.6664 O   0  0  0  0  0  0  0  0  0  0  0  0
   27.1299   21.8395    2.6768 C   0  0  1  0  0  0  0  0  0  0  0  0
   25.7592   21.6555    2.5399 O   0  0  0  0  0  0  0  0  0  0  0  0
   27.5577   24.0451    6.7389 C   0  0  0  0  0  0  0  0  0  0  0  0
   25.3544   31.5908    7.3987 C   0  0  0  0  0  0  0  0  0  0  0  0
   24.9993   32.1858    6.1343 N   0  0  0  0  0  0  0  0  0  0  0  0
   28.1314   24.4318    8.1059 C   0  0  0  0  0  0  0  0  0  0  0  0
   27.1254   24.1254    9.1739 N   0  0  0  0  0  0  0  0  0  0  0  0
   27.7119   23.6789   10.5402 C   0  0  0  0  0  0  0  0  0  0  0  0
  1  2  1  1  0  0  0
  1  9  1  0  0  0  0
  1 35  1  0  0  0  0
  3  4  1  1  0  0  0
  3 11  1  0  0  0  0
  3 45  1  0  0  0  0
  5  6  1  0  0  0  0
  5 12  1  0  0  0  0
  5 37  1  6  0  0  0
  6 30  1  0  0  0  0
  7 14  1  0  0  0  0
  7 41  1  0  0  0  0
  7 23  1  6  0  0  0
  8 16  2  0  0  0  0
  8 42  1  0  0  0  0
  9 10  1  1  0  0  0
  9 18  1  0  0  0  0
 11 20  1  0  0  0  0
 12 13  1  1  0  0  0
 12 22  1  0  0  0  0
 13 47  1  0  0  0  0
 14 15  1  1  0  0  0
 14 24  1  0  0  0  0
 16 17  1  0  0  0  0
 17 26  2  0  0  0  0
 18 19  1  6  0  0  0
 18 27  1  0  0  0  0
 20 21  1  1  0  0  0
 20 29  1  0  0  0  0
 22 23  1  1  0  0  0
 22 30  1  0  0  0  0
 24 25  1  6  0  0  0
 24 31  1  0  0  0  0
 26 33  1  0  0  0  0
 27 28  1  1  0  0  0
 27 34  1  0  0  0  0
 29  2  1  6  0  0  0
 29 36  1  0  0  0  0
 30 38  1  6  0  0  0
 31 32  1  6  0  0  0
 31 40  1  0  0  0  0
 33 42  2  0  0  0  0
 34 35  1  0  0  0  0
 34 43  1  6  0  0  0
 36 37  1  1  0  0  0
 36 45  1  0  0  0  0
 38 39  1  0  0  0  0
 40 41  1  0  0  0  0
 40 48  1  1  0  0  0
 43 44  1  0  0  0  0
 45 46  1  6  0  0  0
 47 50  1  0  0  0  0
 48 49  1  0  0  0  0
 50 51  1  0  0  0  0
 51 52  1  0  0  0  0
 52  8  1  0  0  0  0
M  END
>  <CHROM.1>
49.96407154,-85.34602321,-85.88431027,25.86102628,153.84335012,9.16910481
60.41843908,91.51697900,156.03068796,-96.42790489,-161.83284135,92.05676300
146.64389843,49.32984177,-178.56556775,27.36721929,24.88908177,4.58770216
1.34655388,0.75644708,-1.92171275

>  <Name>
2be0_lig

>  <RI>
2.57068e+07

>  <Rbt.Current_Directory>
/home/itssahil/PROJECTS/Mol_Feturizer/New_Systems/rnas/2be0

>  <Rbt.Executable>
rbdock ($Id: //depot/dev/client3/rdock/2013.1/src/exe/rbdock.cxx#4 $)

>  <Rbt.Library>
libRbt.so (2013.1, Build901 2013/11/27)

>  <Rbt.Parameter_File>
/export/apps/rDock/src/rDock_2013.1_src/data/scripts/dock_solv.prm

>  <Rbt.Receptor>
prm/blind_docking_60.prm

>  <SCORE>
58.0814

>  <SCORE.INTER>
-8.98218

>  <SCORE.INTER.CONST>
1

>  <SCORE.INTER.POLAR>
-1.70831

>  <SCORE.INTER.ROT>
15

>  <SCORE.INTER.SOLV>
25.8849

>  <SCORE.INTER.VDW>
-22.522

>  <SCORE.INTER.norm>
-0.172734

>  <SCORE.INTRA>
44.5024

>  <SCORE.INTRA.DIHEDRAL>
-12.676

>  <SCORE.INTRA.DIHEDRAL.0>
47.8724

>  <SCORE.INTRA.POLAR>
0

>  <SCORE.INTRA.POLAR.0>
0

>  <SCORE.INTRA.REPUL>
0

>  <SCORE.INTRA.REPUL.0>
0

>  <SCORE.INTRA.SOLV>
10.3749

>  <SCORE.INTRA.SOLV.lig_0>
-115.677

>  <SCORE.INTRA.VDW>
45.6529

>  <SCORE.INTRA.VDW.0>
-7.4833

>  <SCORE.INTRA.norm>
0.855815

>  <SCORE.RESTR>
22.5612

>  <SCORE.RESTR.CAVITY>
22.5612

>  <SCORE.RESTR.norm>
0.43387

>  <SCORE.SYSTEM>
0

>  <SCORE.SYSTEM.CONST>
0

>  <SCORE.SYSTEM.DIHEDRAL>
0

>  <SCORE.SYSTEM.SOLV>
0

>  <SCORE.SYSTEM.norm>
0

>  <SCORE.heavy>
52

>  <SCORE.norm>
1.11695

>  <RMSD>
27.957

$$$$
2be0_lig
 OpenBabel11021811423D
libRbt.so/2013.1/901 2013/11/27
 52 56  0  0  0  0  0  0  0  0999 V2000
   27.0603   25.1615    8.0053 C   0  0  2  0  0  0  0  0  0  0  0  0
   26.2602   26.3141    8.1237 O   0  0  0  0  0  0  0  0  0  0  0  0
   23.6669   28.3487    5.2071 C   0  0  2  0  0  0  0  0  0  0  0  0
   23.2618   29.1155    3.9958 N   0  0  0  0  0  0  0  0  0  0  0  0
   25.3717   24.4495    4.5056 C   0  0  2  0  0  0  0  0  0  0  0  0
   25.3487   23.0075    4.5199 O   0  0  0  0  0  0  0  0  0  0  0  0
   28.6341   22.9102    2.0780 C   0  0  1  0  0  0  0  0  0  0  0  0
   26.6285   22.4871   -3.4741 C   0  0  0  0  0  0  0  0  0  0  0  0
   26.3839   23.9186    8.7148 C   0  0  2  0  0  0  0  0  0  0  0  0
   25.0287   23.7276    8.1935 N   0  0  0  0  0  0  0  0  0  0  0  0
   24.7340   29.2017    6.0330 C   0  0  0  0  0  0  0  0  0  0  0  0
   26.5945   24.8648    3.6720 C   0  0  2  0  0  0  0  0  0  0  0  0
   26.0835   24.8416    2.2664 O   0  0  0  0  0  0  0  0  0  0  0  0
   28.9990   21.3444    2.3159 C   0  0  2  0  0  0  0  0  0  0  0  0
   30.3874   21.2539    2.8724 N   0  0  0  0  0  0  0  0  0  0  0  0
   26.3080   22.5290   -4.8706 C   0  0  0  0  0  0  0  0  0  0  0  0
   27.0422   21.7289   -5.7849 N   0  0  0  0  0  0  0  0  0  0  0  0
   26.3906   24.1347   10.2988 C   0  0  1  0  0  0  0  0  0  0  0  0
   25.7739   23.0146   10.9146 O   0  0  0  0  0  0  0  0  0  0  0  0
   25.2158   28.3877    7.3653 C   0  0  2  0  0  0  0  0  0  0  0  0
   26.1747   29.1456    8.1186 N   0  0  0  0  0  0  0  0  0  0  0  0
   27.5815   23.7811    4.1456 C   0  0  2  0  0  0  0  0  0  0  0  0
   28.7399   23.5722    3.3512 O   0  0  0  0  0  0  0  0  0  0  0  0
   28.9017   20.6165    0.9413 C   0  0  1  0  0  0  0  0  0  0  0  0
   27.5035   20.7545    0.5017 O   0  0  0  0  0  0  0  0  0  0  0  0
   28.1042   20.8692   -5.3836 C   0  0  0  0  0  0  0  0  0  0  0  0
   27.8636   24.3156   10.7676 C   0  0  2  0  0  0  0  0  0  0  0  0
   27.9341   24.5249   12.2341 O   0  0  0  0  0  0  0  0  0  0  0  0
   25.8494   26.9977    6.9459 C   0  0  2  0  0  0  0  0  0  0  0  0
   26.6895   22.5256    4.2947 C   0  0  1  0  0  0  0  0  0  0  0  0
   29.9232   21.3005   -0.1239 C   0  0  2  0  0  0  0  0  0  0  0  0
   31.3228   21.1666    0.3091 O   0  0  0  0  0  0  0  0  0  0  0  0
   28.4654   20.7852   -4.0164 C   0  0  0  0  0  0  0  0  0  0  0  0
   28.5200   25.5573   10.0501 C   0  0  2  0  0  0  0  0  0  0  0  0
   28.4169   25.2950    8.6234 O   0  0  0  0  0  0  0  0  0  0  0  0
   24.7680   26.2066    6.1312 C   0  0  2  0  0  0  0  0  0  0  0  0
   25.4332   24.9878    5.8224 O   0  0  0  0  0  0  0  0  0  0  0  0
   27.0698   21.6815    5.5100 C   0  0  0  0  0  0  0  0  0  0  0  0
   26.9437   22.3230    6.7565 O   0  0  0  0  0  0  0  0  0  0  0  0
   29.5595   22.8474   -0.2905 C   0  0  1  0  0  0  0  0  0  0  0  0
   29.6201   23.5046    1.0729 O   0  0  0  0  0  0  0  0  0  0  0  0
   27.7302   21.6010   -3.0222 C   0  0  0  0  0  0  0  0  0  0  0  0
   29.9122   25.6641   10.5152 C   0  0  0  0  0  0  0  0  0  0  0  0
   30.5882   24.5656   10.1557 O   0  0  0  0  0  0  0  0  0  0  0  0
   24.3461   27.0108    4.8302 C   0  0  1  0  0  0  0  0  0  0  0  0
   23.3806   26.3020    4.1253 O   0  0  0  0  0  0  0  0  0  0  0  0
   25.8249   23.6654    1.4027 C   0  0  0  0  0  0  0  0  0  0  0  0
   30.5699   23.4474   -1.3057 C   0  0  0  0  0  0  0  0  0  0  0  0
   30.4560   24.8841   -1.3460 N   0  0  0  0  0  0  0  0  0  0  0  0
   25.5648   24.1910   -0.0127 C   0  0  0  0  0  0  0  0  0  0  0  0
   26.3075   23.3458   -1.0030 N   0  0  0  0  0  0  0  0  0  0  0  0
   25.7803   23.4019   -2.4622 C   0  0  0  0  0  0  0  0  0  0  0  0
  1  2  1  1  0  0  0
  1  9  1  0  0  0  0
  1 35  1  0  0  0  0
  3  4  1  6  0  0  0
  3 11  1  0  0  0  0
  3 45  1  0  0  0  0
  5  6  1  0  0  0  0
  5 12  1  0  0  0  0
  5 37  1  1  0  0  0
  6 30  1  0  0  0  0
  7 14  1  0  0  0  0
  7 41  1  0  0  0  0
  7 23  1  1  0  0  0
  8 16  2  0  0  0  0
  8 42  1  0  0  0  0
  9 10  1  6  0  0  0
  9 18  1  0  0  0  0
 11 20  1  0  0  0  0
 12 13  1  6  0  0  0
 12 22  1  0  0  0  0
 13 47  1  0  0  0  0
 14 15  1  6  0  0  0
 14 24  1  0  0  0  0
 16 17  1  0  0  0  0
 17 26  2  0  0  0  0
 18 19  1  1  0  0  0
 18 27  1  0  0  0  0
 20 21  1  6  0  0  0
 20 29  1  0  0  0  0
 22 23  1  6  0  0  0
 22 30  1  0  0  0  0
 24 25  1  6  0  0  0
 24 31  1  0  0  0  0
 26 33  1  0  0  0  0
 27 28  1  1  0  0  0
 27 34  1  0  0  0  0
 29  2  1  1  0  0  0
 29 36  1  0  0  0  0
 30 38  1  1  0  0  0
 31 32  1  1  0  0  0
 31 40  1  0  0  0  0
 33 42  2  0  0  0  0
 34 35  1  0  0  0  0
 34 43  1  1  0  0  0
 36 37  1  6  0  0  0
 36 45  1  0  0  0  0
 38 39  1  0  0  0  0
 40 41  1  0  0  0  0
 40 48  1  6  0  0  0
 43 44  1  0  0  0  0
 45 46  1  1  0  0  0
 47 50  1  0  0  0  0
 48 49  1  0  0  0  0
 50 51  1  0  0  0  0
 51 52  1  0  0  0  0
 52  8  1  0  0  0  0
M  END
>  <CHROM.1>
-123.44128936,-145.43107841,-96.51017187,-76.20521200,-169.63216936,-73.10807717
-169.08871411,-54.66901473,62.38841721,-134.36872427,-170.41296356,135.96811816
159.11903259,179.39273493,-175.32593668,27.14736786,24.06983196,3.79997747
-1.72746463,0.74887451,-1.75963606

>  <Name>
2be0_lig

>  <RI>
0

>  <Rbt.Current_Directory>
/home/itssahil/PROJECTS/Mol_Feturizer/New_Systems/rnas/2be0

>  <Rbt.Executable>
rbdock ($Id: //depot/dev/client3/rdock/2013.1/src/exe/rbdock.cxx#4 $)

>  <Rbt.Library>
libRbt.so (2013.1, Build901 2013/11/27)

>  <Rbt.Parameter_File>
/export/apps/rDock/src/rDock_2013.1_src/data/scripts/dock_solv.prm

>  <Rbt.Receptor>
prm/blind_docking_40.prm

>  <SCORE>
7.14007

>  <SCORE.INTER>
-5.31825

>  <SCORE.INTER.CONST>
1

>  <SCORE.INTER.POLAR>
-1.71944

>  <SCORE.INTER.ROT>
15

>  <SCORE.INTER.SOLV>
35.9534

>  <SCORE.INTER.VDW>
-23.3985

>  <SCORE.INTER.norm>
-0.102274

>  <SCORE.INTRA>
-3.08076

>  <SCORE.INTRA.DIHEDRAL>
-15.6811

>  <SCORE.INTRA.DIHEDRAL.0>
47.8724

>  <SCORE.INTRA.POLAR>
0

>  <SCORE.INTRA.POLAR.0>
0

>  <SCORE.INTRA.REPUL>
0.15057

>  <SCORE.INTRA.REPUL.0>
0

>  <SCORE.INTRA.SOLV>
3.69745

>  <SCORE.INTRA.SOLV.lig_0>
-115.677

>  <SCORE.INTRA.VDW>
2.15821

>  <SCORE.INTRA.VDW.0>
-7.4833

>  <SCORE.INTRA.norm>
-0.0592454

>  <SCORE.RESTR>
15.5391

>  <SCORE.RESTR.CAVITY>
15.5391

>  <SCORE.RESTR.norm>
0.298829

>  <SCORE.SYSTEM>
0

>  <SCORE.SYSTEM.CONST>
0

>  <SCORE.SYSTEM.DIHEDRAL>
0

>  <SCORE.SYSTEM.SOLV>
0

>  <SCORE.SYSTEM.norm>
0

>  <SCORE.heavy>
52

>  <SCORE.norm>
0.137309

>  <RMSD>
27.968

$$$$
2be0_lig
 OpenBabel11021811423D
libRbt.so/2013.1/901 2013/11/27
 52 56  0  0  0  0  0  0  0  0999 V2000
   25.1401   22.4490   -0.8948 C   0  0  2  0  0  0  0  0  0  0  0  0
   26.2385   22.0835   -0.0930 O   0  0  0  0  0  0  0  0  0  0  0  0
   30.2659   23.5949    0.8379 C   0  0  2  0  0  0  0  0  0  0  0  0
   31.4262   24.5270    0.9046 N   0  0  0  0  0  0  0  0  0  0  0  0
   26.4445   23.4291    3.5466 C   0  0  2  0  0  0  0  0  0  0  0  0
   25.0407   23.4038    3.8770 O   0  0  0  0  0  0  0  0  0  0  0  0
   24.7471   27.2889    5.6609 C   0  0  1  0  0  0  0  0  0  0  0  0
   28.0186   23.8790   10.3634 C   0  0  0  0  0  0  0  0  0  0  0  0
   23.9775   21.3792   -0.7963 C   0  0  2  0  0  0  0  0  0  0  0  0
   23.6143   21.1699    0.6068 N   0  0  0  0  0  0  0  0  0  0  0  0
   29.8360   23.4040   -0.6875 C   0  0  0  0  0  0  0  0  0  0  0  0
   27.0819   24.5331    4.4053 C   0  0  2  0  0  0  0  0  0  0  0  0
   27.3806   23.8419    5.6977 O   0  0  0  0  0  0  0  0  0  0  0  0
   24.7553   28.7325    4.9145 C   0  0  2  0  0  0  0  0  0  0  0  0
   25.9642   29.4973    5.3611 N   0  0  0  0  0  0  0  0  0  0  0  0
   28.0059   24.4936   11.6583 C   0  0  0  0  0  0  0  0  0  0  0  0
   29.0450   25.3900   12.0215 N   0  0  0  0  0  0  0  0  0  0  0  0
   24.4354   20.0211   -1.5047 C   0  0  1  0  0  0  0  0  0  0  0  0
   23.3836   19.0743   -1.3989 O   0  0  0  0  0  0  0  0  0  0  0  0
   28.5543   22.3971   -0.8034 C   0  0  2  0  0  0  0  0  0  0  0  0
   28.1588   22.2151   -2.1715 N   0  0  0  0  0  0  0  0  0  0  0  0
   25.9452   25.5704    4.3370 C   0  0  2  0  0  0  0  0  0  0  0  0
   25.9655   26.6139    5.3000 O   0  0  0  0  0  0  0  0  0  0  0  0
   23.4463   29.4816    5.3075 C   0  0  1  0  0  0  0  0  0  0  0  0
   22.3348   28.6547    4.8092 O   0  0  0  0  0  0  0  0  0  0  0  0
   30.1243   25.7187   11.1526 C   0  0  0  0  0  0  0  0  0  0  0  0
   24.7888   20.3312   -2.9883 C   0  0  2  0  0  0  0  0  0  0  0  0
   25.2263   19.1055   -3.6993 O   0  0  0  0  0  0  0  0  0  0  0  0
   27.3375   22.9785    0.0279 C   0  0  2  0  0  0  0  0  0  0  0  0
   24.6654   24.7019    4.3815 C   0  0  1  0  0  0  0  0  0  0  0  0
   23.3696   29.6578    6.9227 C   0  0  2  0  0  0  0  0  0  0  0  0
   24.4778   30.4830    7.4280 O   0  0  0  0  0  0  0  0  0  0  0  0
   30.1895   25.1431    9.8597 C   0  0  0  0  0  0  0  0  0  0  0  0
   25.9476   21.3983   -3.0656 C   0  0  2  0  0  0  0  0  0  0  0  0
   25.4618   22.5684   -2.3516 O   0  0  0  0  0  0  0  0  0  0  0  0
   27.8145   23.1565    1.5111 C   0  0  2  0  0  0  0  0  0  0  0  0
   26.6539   23.6644    2.1580 O   0  0  0  0  0  0  0  0  0  0  0  0
   23.5665   25.2359    3.4642 C   0  0  0  0  0  0  0  0  0  0  0  0
   22.8424   26.3352    3.9628 O   0  0  0  0  0  0  0  0  0  0  0  0
   23.4132   28.2193    7.6168 C   0  0  1  0  0  0  0  0  0  0  0  0
   24.6750   27.5091    7.1716 O   0  0  0  0  0  0  0  0  0  0  0  0
   29.1295   24.2005    9.4330 C   0  0  0  0  0  0  0  0  0  0  0  0
   26.2218   21.6656   -4.4867 C   0  0  0  0  0  0  0  0  0  0  0  0
   27.0022   22.7482   -4.5946 O   0  0  0  0  0  0  0  0  0  0  0  0
   29.0389   24.1626    1.5898 C   0  0  1  0  0  0  0  0  0  0  0  0
   29.4560   24.3016    2.9082 O   0  0  0  0  0  0  0  0  0  0  0  0
   27.7204   24.4488    7.0064 C   0  0  0  0  0  0  0  0  0  0  0  0
   23.3486   28.4502    9.1511 C   0  0  0  0  0  0  0  0  0  0  0  0
   24.5424   29.1120    9.6153 N   0  0  0  0  0  0  0  0  0  0  0  0
   26.4733   24.3468    7.8906 C   0  0  0  0  0  0  0  0  0  0  0  0
   26.3983   22.9756    8.4912 N   0  0  0  0  0  0  0  0  0  0  0  0
   26.8293   22.8700    9.9789 C   0  0  0  0  0  0  0  0  0  0  0  0
  1  2  1  1  0  0  0
  1  9  1  0  0  0  0
  1 35  1  0  0  0  0
  3  4  1  6  0  0  0
  3 11  1  0  0  0  0
  3 45  1  0  0  0  0
  5  6  1  0  0  0  0
  5 12  1  0  0  0  0
  5 37  1  6  0  0  0
  6 30  1  0  0  0  0
  7 14  1  0  0  0  0
  7 41  1  0  0  0  0
  7 23  1  1  0  0  0
  8 16  2  0  0  0  0
  8 42  1  0  0  0  0
  9 10  1  1  0  0  0
  9 18  1  0  0  0  0
 11 20  1  0  0  0  0
 12 13  1  1  0  0  0
 12 22  1  0  0  0  0
 13 47  1  0  0  0  0
 14 15  1  1  0  0  0
 14 24  1  0  0  0  0
 16 17  1  0  0  0  0
 17 26  2  0  0  0  0
 18 19  1  6  0  0  0
 18 27  1  0  0  0  0
 20 21  1  6  0  0  0
 20 29  1  0  0  0  0
 22 23  1  1  0  0  0
 22 30  1  0  0  0  0
 24 25  1  1  0  0  0
 24 31  1  0  0  0  0
 26 33  1  0  0  0  0
 27 28  1  1  0  0  0
 27 34  1  0  0  0  0
 29  2  1  1  0  0  0
 29 36  1  0  0  0  0
 30 38  1  6  0  0  0
 31 32  1  1  0  0  0
 31 40  1  0  0  0  0
 33 42  2  0  0  0  0
 34 35  1  0  0  0  0
 34 43  1  6  0  0  0
 36 37  1  1  0  0  0
 36 45  1  0  0  0  0
 38 39  1  0  0  0  0
 40 41  1  0  0  0  0
 40 48  1  1  0  0  0
 43 44  1  0  0  0  0
 45 46  1  1  0  0  0
 47 50  1  0  0  0  0
 48 49  1  0  0  0  0
 50 51  1  0  0  0  0
 51 52  1  0  0  0  0
 52  8  1  0  0  0  0
M  END
>  <CHROM.1>
-175.07741367,-151.57577541,-103.44850329,-165.15959600,104.16838221,-155.58923852
-106.89279588,165.27452413,167.77762427,152.49332190,-66.66800933,81.65815390
102.75375282,-34.28923816,143.16123748,26.22529851,24.46862799,3.61691257
1.57323753,0.63327479,-2.02483053

>  <Name>
2be0_lig

>  <RI>
2.57068e+07

>  <Rbt.Current_Directory>
/home/itssahil/PROJECTS/Mol_Feturizer/New_Systems/rnas/2be0

>  <Rbt.Executable>
rbdock ($Id: //depot/dev/client3/rdock/2013.1/src/exe/rbdock.cxx#4 $)

>  <Rbt.Library>
libRbt.so (2013.1, Build901 2013/11/27)

>  <Rbt.Parameter_File>
/export/apps/rDock/src/rDock_2013.1_src/data/scripts/dock_solv.prm

>  <Rbt.Receptor>
prm/blind_docking_60.prm

>  <SCORE>
3.53273

>  <SCORE.INTER>
-11.0914

>  <SCORE.INTER.CONST>
1

>  <SCORE.INTER.POLAR>
-0.63996

>  <SCORE.INTER.ROT>
15

>  <SCORE.INTER.SOLV>
32.4382

>  <SCORE.INTER.VDW>
-29.6738

>  <SCORE.INTER.norm>
-0.213297

>  <SCORE.INTRA>
1.13866

>  <SCORE.INTRA.DIHEDRAL>
-13.8627

>  <SCORE.INTRA.DIHEDRAL.0>
47.8724

>  <SCORE.INTRA.POLAR>
0

>  <SCORE.INTRA.POLAR.0>
0

>  <SCORE.INTRA.REPUL>
0.0267253

>  <SCORE.INTRA.REPUL.0>
0

>  <SCORE.INTRA.SOLV>
3.6421

>  <SCORE.INTRA.SOLV.lig_0>
-115.677

>  <SCORE.INTRA.VDW>
6.11533

>  <SCORE.INTRA.VDW.0>
-7.4833

>  <SCORE.INTRA.norm>
0.0218973

>  <SCORE.RESTR>
13.4855

>  <SCORE.RESTR.CAVITY>
13.4855

>  <SCORE.RESTR.norm>
0.259337

>  <SCORE.SYSTEM>
0

>  <SCORE.SYSTEM.CONST>
0

>  <SCORE.SYSTEM.DIHEDRAL>
0

>  <SCORE.SYSTEM.SOLV>
0

>  <SCORE.SYSTEM.norm>
0

>  <SCORE.heavy>
52

>  <SCORE.norm>
0.0679372

>  <RMSD>
28.084

$$$$
2be0_lig
 OpenBabel11021811423D
libRbt.so/2013.1/901 2013/11/27
 52 56  0  0  0  0  0  0  0  0999 V2000
   22.6803   27.5872    6.3161 C   0  0  2  0  0  0  0  0  0  0  0  0
   23.8274   26.7704    6.3249 O   0  0  0  0  0  0  0  0  0  0  0  0
   25.6641   24.0190    9.2279 C   0  0  2  0  0  0  0  0  0  0  0  0
   25.7736   22.9991   10.3083 N   0  0  0  0  0  0  0  0  0  0  0  0
   24.7717   23.1979    4.7802 C   0  0  2  0  0  0  0  0  0  0  0  0
   25.9783   22.6334    5.3331 O   0  0  0  0  0  0  0  0  0  0  0  0
   28.4546   24.1248    2.4757 C   0  0  1  0  0  0  0  0  0  0  0  0
   25.2950   21.2002   -2.5008 C   0  0  0  0  0  0  0  0  0  0  0  0
   22.4428   28.2266    4.8877 C   0  0  2  0  0  0  0  0  0  0  0  0
   22.3986   27.1711    3.8735 N   0  0  0  0  0  0  0  0  0  0  0  0
   24.7987   25.2512    9.7581 C   0  0  0  0  0  0  0  0  0  0  0  0
   25.1760   23.9316    3.4915 C   0  0  2  0  0  0  0  0  0  0  0  0
   25.1658   22.8517    2.4565 O   0  0  0  0  0  0  0  0  0  0  0  0
   28.9626   24.7399    1.0597 C   0  0  2  0  0  0  0  0  0  0  0  0
   27.8010   24.7922    0.1143 N   0  0  0  0  0  0  0  0  0  0  0  0
   24.8733   20.2430   -3.4810 C   0  0  0  0  0  0  0  0  0  0  0  0
   25.5549   20.1618   -4.7235 N   0  0  0  0  0  0  0  0  0  0  0  0
   23.5864   29.3014    4.5831 C   0  0  1  0  0  0  0  0  0  0  0  0
   23.3598   29.8565    3.2967 O   0  0  0  0  0  0  0  0  0  0  0  0
   24.6426   26.3886    8.5954 C   0  0  2  0  0  0  0  0  0  0  0  0
   23.8676   27.5041    9.0608 N   0  0  0  0  0  0  0  0  0  0  0  0
   26.5163   24.5228    3.9676 C   0  0  2  0  0  0  0  0  0  0  0  0
   27.4099   24.9847    2.9653 O   0  0  0  0  0  0  0  0  0  0  0  0
   30.0862   23.8103    0.5100 C   0  0  1  0  0  0  0  0  0  0  0  0
   31.1725   23.8481    1.5030 O   0  0  0  0  0  0  0  0  0  0  0  0
   26.6578   20.9980   -5.0589 C   0  0  0  0  0  0  0  0  0  0  0  0
   23.5542   30.3879    5.6969 C   0  0  2  0  0  0  0  0  0  0  0  0
   24.5996   31.4149    5.4699 O   0  0  0  0  0  0  0  0  0  0  0  0
   23.9512   25.7586    7.3169 C   0  0  2  0  0  0  0  0  0  0  0  0
   27.1025   23.4048    4.8624 C   0  0  1  0  0  0  0  0  0  0  0  0
   29.5150   22.2991    0.3208 C   0  0  2  0  0  0  0  0  0  0  0  0
   28.4286   22.2537   -0.6701 O   0  0  0  0  0  0  0  0  0  0  0  0
   27.1202   21.9622   -4.1295 C   0  0  0  0  0  0  0  0  0  0  0  0
   23.7920   29.7320    7.1113 C   0  0  2  0  0  0  0  0  0  0  0  0
   22.7435   28.7371    7.2720 O   0  0  0  0  0  0  0  0  0  0  0  0
   24.8322   24.5504    6.8445 C   0  0  2  0  0  0  0  0  0  0  0  0
   24.1325   24.0768    5.7001 O   0  0  0  0  0  0  0  0  0  0  0  0
   27.8116   23.9583    6.0973 C   0  0  0  0  0  0  0  0  0  0  0  0
   27.3747   25.2245    6.5300 O   0  0  0  0  0  0  0  0  0  0  0  0
   28.9828   21.7526    1.7247 C   0  0  1  0  0  0  0  0  0  0  0  0
   27.9288   22.7087    2.2440 O   0  0  0  0  0  0  0  0  0  0  0  0
   26.4419   22.0871   -2.8186 C   0  0  0  0  0  0  0  0  0  0  0  0
   23.7293   30.8006    8.1213 C   0  0  0  0  0  0  0  0  0  0  0  0
   23.6028   30.2573    9.3385 O   0  0  0  0  0  0  0  0  0  0  0  0
   24.9372   23.4526    7.9852 C   0  0  1  0  0  0  0  0  0  0  0  0
   25.7288   22.3943    7.5553 O   0  0  0  0  0  0  0  0  0  0  0  0
   25.7232   21.4819    2.5532 C   0  0  0  0  0  0  0  0  0  0  0  0
   28.4421   20.3175    1.4810 C   0  0  0  0  0  0  0  0  0  0  0  0
   29.4821   19.4649    0.9611 N   0  0  0  0  0  0  0  0  0  0  0  0
   25.2776   20.7218    1.2998 C   0  0  0  0  0  0  0  0  0  0  0  0
   25.4274   21.6073    0.0998 N   0  0  0  0  0  0  0  0  0  0  0  0
   24.5062   21.2688   -1.1032 C   0  0  0  0  0  0  0  0  0  0  0  0
  1  2  1  6  0  0  0
  1  9  1  0  0  0  0
  1 35  1  0  0  0  0
  3  4  1  1  0  0  0
  3 11  1  0  0  0  0
  3 45  1  0  0  0  0
  5  6  1  0  0  0  0
  5 12  1  0  0  0  0
  5 37  1  1  0  0  0
  6 30  1  0  0  0  0
  7 14  1  0  0  0  0
  7 41  1  0  0  0  0
  7 23  1  6  0  0  0
  8 16  2  0  0  0  0
  8 42  1  0  0  0  0
  9 10  1  6  0  0  0
  9 18  1  0  0  0  0
 11 20  1  0  0  0  0
 12 13  1  6  0  0  0
 12 22  1  0  0  0  0
 13 47  1  0  0  0  0
 14 15  1  6  0  0  0
 14 24  1  0  0  0  0
 16 17  1  0  0  0  0
 17 26  2  0  0  0  0
 18 19  1  6  0  0  0
 18 27  1  0  0  0  0
 20 21  1  1  0  0  0
 20 29  1  0  0  0  0
 22 23  1  6  0  0  0
 22 30  1  0  0  0  0
 24 25  1  1  0  0  0
 24 31  1  0  0  0  0
 26 33  1  0  0  0  0
 27 28  1  6  0  0  0
 27 34  1  0  0  0  0
 29  2  1  6  0  0  0
 29 36  1  0  0  0  0
 30 38  1  1  0  0  0
 31 32  1  6  0  0  0
 31 40  1  0  0  0  0
 33 42  2  0  0  0  0
 34 35  1  0  0  0  0
 34 43  1  1  0  0  0
 36 37  1  6  0  0  0
 36 45  1  0  0  0  0
 38 39  1  0  0  0  0
 40 41  1  0  0  0  0
 40 48  1  6  0  0  0
 43 44  1  0  0  0  0
 45 46  1  6  0  0  0
 47 50  1  0  0  0  0
 48 49  1  0  0  0  0
 50 51  1  0  0  0  0
 51 52  1  0  0  0  0
 52  8  1  0  0  0  0
M  END
>  <CHROM.1>
-157.74801865,14.72266006,162.07645529,-44.77722447,172.23332172,-95.13243648
-88.25258829,-90.88520351,165.18974974,164.25380569,59.17640368,42.96991195
-155.02020169,-131.61465979,145.08580188,25.80954589,24.53017504,3.66215181
2.19482735,-1.06001701,1.50873115

>  <Name>
2be0_lig

>  <RI>
2.57068e+07

>  <Rbt.Current_Directory>
/home/itssahil/PROJECTS/Mol_Feturizer/New_Systems/rnas/2be0

>  <Rbt.Executable>
rbdock ($Id: //depot/dev/client3/rdock/2013.1/src/exe/rbdock.cxx#4 $)

>  <Rbt.Library>
libRbt.so (2013.1, Build901 2013/11/27)

>  <Rbt.Parameter_File>
/export/apps/rDock/src/rDock_2013.1_src/data/scripts/dock_solv.prm

>  <Rbt.Receptor>
prm/blind_docking_60.prm

>  <SCORE>
39.7311

>  <SCORE.INTER>
8.08127

>  <SCORE.INTER.CONST>
1

>  <SCORE.INTER.POLAR>
-1.30926

>  <SCORE.INTER.ROT>
15

>  <SCORE.INTER.SOLV>
22.8657

>  <SCORE.INTER.VDW>
-11.4702

>  <SCORE.INTER.norm>
0.155409

>  <SCORE.INTRA>
3.26003

>  <SCORE.INTRA.DIHEDRAL>
-20.574

>  <SCORE.INTRA.DIHEDRAL.0>
47.8724

>  <SCORE.INTRA.POLAR>
0

>  <SCORE.INTRA.POLAR.0>
0

>  <SCORE.INTRA.REPUL>
0.290953

>  <SCORE.INTRA.REPUL.0>
0

>  <SCORE.INTRA.SOLV>
7.2737

>  <SCORE.INTRA.SOLV.lig_0>
-115.677

>  <SCORE.INTRA.VDW>
8.4554

>  <SCORE.INTRA.VDW.0>
-7.4833

>  <SCORE.INTRA.norm>
0.0626929

>  <SCORE.RESTR>
28.3898

>  <SCORE.RESTR.CAVITY>
28.3898

>  <SCORE.RESTR.norm>
0.545958

>  <SCORE.SYSTEM>
0

>  <SCORE.SYSTEM.CONST>
0

>  <SCORE.SYSTEM.DIHEDRAL>
0

>  <SCORE.SYSTEM.SOLV>
0

>  <SCORE.SYSTEM.norm>
0

>  <SCORE.heavy>
52

>  <SCORE.norm>
0.76406

>  <RMSD>
28.675

$$$$
2be0_lig
 OpenBabel11021811423D
libRbt.so/2013.1/901 2013/11/27
 52 56  0  0  0  0  0  0  0  0999 V2000
   28.8646   26.4292   10.0484 C   0  0  2  0  0  0  0  0  0  0  0  0
   28.7494   25.2145    9.3455 O   0  0  0  0  0  0  0  0  0  0  0  0
   25.8637   21.9015    9.6065 C   0  0  2  0  0  0  0  0  0  0  0  0
   24.5558   21.1922    9.6812 N   0  0  0  0  0  0  0  0  0  0  0  0
   26.4634   24.3440    6.1243 C   0  0  2  0  0  0  0  0  0  0  0  0
   26.0385   23.0578    5.6288 O   0  0  0  0  0  0  0  0  0  0  0  0
   28.3728   23.3624    1.8452 C   0  0  1  0  0  0  0  0  0  0  0  0
   24.5200   28.1911    6.3445 C   0  0  0  0  0  0  0  0  0  0  0  0
   29.8295   27.4358    9.2992 C   0  0  2  0  0  0  0  0  0  0  0  0
   29.3798   27.6175    7.9174 N   0  0  0  0  0  0  0  0  0  0  0  0
   25.9575   22.9526   10.8042 C   0  0  0  0  0  0  0  0  0  0  0  0
   26.8585   25.1825    4.8982 C   0  0  2  0  0  0  0  0  0  0  0  0
   25.5599   25.7679    4.4419 O   0  0  0  0  0  0  0  0  0  0  0  0
   29.9122   23.8402    1.6370 C   0  0  2  0  0  0  0  0  0  0  0  0
   29.9121   25.1978    1.0024 N   0  0  0  0  0  0  0  0  0  0  0  0
   24.0794   29.3738    7.0243 C   0  0  0  0  0  0  0  0  0  0  0  0
   24.7889   29.8354    8.1639 N   0  0  0  0  0  0  0  0  0  0  0  0
   31.3322   26.8954    9.3730 C   0  0  1  0  0  0  0  0  0  0  0  0
   32.1789   27.8069    8.6900 O   0  0  0  0  0  0  0  0  0  0  0  0
   27.3749   23.7637   10.7497 C   0  0  2  0  0  0  0  0  0  0  0  0
   27.4727   24.7113   11.8238 N   0  0  0  0  0  0  0  0  0  0  0  0
   27.5348   24.0775    4.0651 C   0  0  2  0  0  0  0  0  0  0  0  0
   27.7311   24.3402    2.6834 O   0  0  0  0  0  0  0  0  0  0  0  0
   30.6169   22.7966    0.7188 C   0  0  1  0  0  0  0  0  0  0  0  0
   30.5726   21.5159    1.4437 O   0  0  0  0  0  0  0  0  0  0  0  0
   25.9384   29.1735    8.6821 C   0  0  0  0  0  0  0  0  0  0  0  0
   31.7312   26.7443   10.8698 C   0  0  2  0  0  0  0  0  0  0  0  0
   33.1195   26.2405   11.0030 O   0  0  0  0  0  0  0  0  0  0  0  0
   27.5095   24.5176    9.3629 C   0  0  2  0  0  0  0  0  0  0  0  0
   26.6619   22.8316    4.3479 C   0  0  1  0  0  0  0  0  0  0  0  0
   29.8382   22.6931   -0.7055 C   0  0  2  0  0  0  0  0  0  0  0  0
   29.8780   23.9698   -1.4356 O   0  0  0  0  0  0  0  0  0  0  0  0
   26.4212   28.0004    8.0514 C   0  0  0  0  0  0  0  0  0  0  0  0
   30.7589   25.7389   11.5987 C   0  0  2  0  0  0  0  0  0  0  0  0
   29.4210   26.2834   11.4302 O   0  0  0  0  0  0  0  0  0  0  0  0
   27.4002   23.4452    8.2240 C   0  0  2  0  0  0  0  0  0  0  0  0
   27.5455   24.2230    7.0419 O   0  0  0  0  0  0  0  0  0  0  0  0
   27.4918   21.5552    4.4752 C   0  0  0  0  0  0  0  0  0  0  0  0
   28.4364   21.3425    3.4536 O   0  0  0  0  0  0  0  0  0  0  0  0
   28.3190   22.2688   -0.4508 C   0  0  1  0  0  0  0  0  0  0  0  0
   27.6872   23.2818    0.4817 O   0  0  0  0  0  0  0  0  0  0  0  0
   25.7153   27.4773    6.8588 C   0  0  0  0  0  0  0  0  0  0  0  0
   31.1710   25.6541   13.0091 C   0  0  0  0  0  0  0  0  0  0  0  0
   32.3877   25.1006   13.0859 O   0  0  0  0  0  0  0  0  0  0  0  0
   26.0014   22.6992    8.2881 C   0  0  1  0  0  0  0  0  0  0  0  0
   25.9244   21.7458    7.2798 O   0  0  0  0  0  0  0  0  0  0  0  0
   24.6573   25.2785    3.3731 C   0  0  0  0  0  0  0  0  0  0  0  0
   27.6258   22.1973   -1.8386 C   0  0  0  0  0  0  0  0  0  0  0  0
   26.2392   21.8292   -1.6948 N   0  0  0  0  0  0  0  0  0  0  0  0
   23.2215   25.4433    3.8819 C   0  0  0  0  0  0  0  0  0  0  0  0
   23.2330   26.2158    5.1663 N   0  0  0  0  0  0  0  0  0  0  0  0
   23.6988   27.6927    5.0570 C   0  0  0  0  0  0  0  0  0  0  0  0
  1  2  1  6  0  0  0
  1  9  1  0  0  0  0
  1 35  1  0  0  0  0
  3  4  1  6  0  0  0
  3 11  1  0  0  0  0
  3 45  1  0  0  0  0
  5  6  1  0  0  0  0
  5 12  1  0  0  0  0
  5 37  1  1  0  0  0
  6 30  1  0  0  0  0
  7 14  1  0  0  0  0
  7 41  1  0  0  0  0
  7 23  1  1  0  0  0
  8 16  2  0  0  0  0
  8 42  1  0  0  0  0
  9 10  1  6  0  0  0
  9 18  1  0  0  0  0
 11 20  1  0  0  0  0
 12 13  1  6  0  0  0
 12 22  1  0  0  0  0
 13 47  1  0  0  0  0
 14 15  1  6  0  0  0
 14 24  1  0  0  0  0
 16 17  1  0  0  0  0
 17 26  2  0  0  0  0
 18 19  1  1  0  0  0
 18 27  1  0  0  0  0
 20 21  1  1  0  0  0
 20 29  1  0  0  0  0
 22 23  1  6  0  0  0
 22 30  1  0  0  0  0
 24 25  1  1  0  0  0
 24 31  1  0  0  0  0
 26 33  1  0  0  0  0
 27 28  1  6  0  0  0
 27 34  1  0  0  0  0
 29  2  1  1  0  0  0
 29 36  1  0  0  0  0
 30 38  1  1  0  0  0
 31 32  1  1  0  0  0
 31 40  1  0  0  0  0
 33 42  2  0  0  0  0
 34 35  1  0  0  0  0
 34 43  1  1  0  0  0
 36 37  1  6  0  0  0
 36 45  1  0  0  0  0
 38 39  1  0  0  0  0
 40 41  1  0  0  0  0
 40 48  1  6  0  0  0
 43 44  1  0  0  0  0
 45 46  1  6  0  0  0
 47 50  1  0  0  0  0
 48 49  1  0  0  0  0
 50 51  1  0  0  0  0
 51 52  1  0  0  0  0
 52  8  1  0  0  0  0
M  END
>  <CHROM.1>
-145.68089739,-58.55620145,-101.21445860,-97.05584844,139.61373220,179.15661086
-77.81979142,-164.68267056,-65.47467346,-114.61262062,-179.51061320,8.36100204
65.98252033,-145.19706795,-125.71754886,27.78859754,24.78078029,6.18000000
-1.44783662,0.25313241,-1.88410085

>  <Name>
2be0_lig

>  <RI>
2.57068e+07

>  <Rbt.Current_Directory>
/home/itssahil/PROJECTS/Mol_Feturizer/New_Systems/rnas/2be0

>  <Rbt.Executable>
rbdock ($Id: //depot/dev/client3/rdock/2013.1/src/exe/rbdock.cxx#4 $)

>  <Rbt.Library>
libRbt.so (2013.1, Build901 2013/11/27)

>  <Rbt.Parameter_File>
/export/apps/rDock/src/rDock_2013.1_src/data/scripts/dock_solv.prm

>  <Rbt.Receptor>
prm/blind_docking_60.prm

>  <SCORE>
29.0908

>  <SCORE.INTER>
6.02301

>  <SCORE.INTER.CONST>
1

>  <SCORE.INTER.POLAR>
-0.230554

>  <SCORE.INTER.ROT>
15

>  <SCORE.INTER.SOLV>
36.8213

>  <SCORE.INTER.VDW>
-21.0899

>  <SCORE.INTER.norm>
0.115827

>  <SCORE.INTRA>
9.15441

>  <SCORE.INTRA.DIHEDRAL>
-11.3879

>  <SCORE.INTRA.DIHEDRAL.0>
47.8724

>  <SCORE.INTRA.POLAR>
0

>  <SCORE.INTRA.POLAR.0>
0

>  <SCORE.INTRA.REPUL>
0

>  <SCORE.INTRA.REPUL.0>
0

>  <SCORE.INTRA.SOLV>
3.70599

>  <SCORE.INTRA.SOLV.lig_0>
-115.677

>  <SCORE.INTRA.VDW>
12.9954

>  <SCORE.INTRA.VDW.0>
-7.4833

>  <SCORE.INTRA.norm>
0.176046

>  <SCORE.RESTR>
13.9133

>  <SCORE.RESTR.CAVITY>
13.9133

>  <SCORE.RESTR.norm>
0.267564

>  <SCORE.SYSTEM>
0

>  <SCORE.SYSTEM.CONST>
0

>  <SCORE.SYSTEM.DIHEDRAL>
0

>  <SCORE.SYSTEM.SOLV>
0

>  <SCORE.SYSTEM.norm>
0

>  <SCORE.heavy>
52

>  <SCORE.norm>
0.559438

>  <RMSD>
29.141

$$$$
2be0_lig
 OpenBabel11021811423D
libRbt.so/2013.1/901 2013/11/27
 52 56  0  0  0  0  0  0  0  0999 V2000
   28.1252   23.4009    3.9048 C   0  0  2  0  0  0  0  0  0  0  0  0
   27.0271   22.5819    4.2305 O   0  0  0  0  0  0  0  0  0  0  0  0
   25.1152   21.6901    8.0932 C   0  0  2  0  0  0  0  0  0  0  0  0
   24.9442   21.1717    9.4794 N   0  0  0  0  0  0  0  0  0  0  0  0
   27.3466   25.5203    7.0313 C   0  0  2  0  0  0  0  0  0  0  0  0
   28.5850   26.2564    6.9634 O   0  0  0  0  0  0  0  0  0  0  0  0
   29.8721   25.2838   11.0788 C   0  0  1  0  0  0  0  0  0  0  0  0
   23.6177   31.0580    7.3256 C   0  0  0  0  0  0  0  0  0  0  0  0
   27.7333   24.4776    2.8126 C   0  0  2  0  0  0  0  0  0  0  0  0
   26.5678   25.2404    3.2647 N   0  0  0  0  0  0  0  0  0  0  0  0
   25.5370   20.4863    7.1334 C   0  0  0  0  0  0  0  0  0  0  0  0
   26.9815   25.4038    8.5198 C   0  0  2  0  0  0  0  0  0  0  0  0
   26.2577   26.6817    8.8033 O   0  0  0  0  0  0  0  0  0  0  0  0
   29.6702   24.8255   12.6249 C   0  0  2  0  0  0  0  0  0  0  0  0
   28.8237   25.8469   13.3221 N   0  0  0  0  0  0  0  0  0  0  0  0
   24.3144   32.3099    7.3721 C   0  0  0  0  0  0  0  0  0  0  0  0
   24.7241   32.9320    6.1637 N   0  0  0  0  0  0  0  0  0  0  0  0
   27.4671   23.7515    1.4134 C   0  0  1  0  0  0  0  0  0  0  0  0
   27.1103   24.7319    0.4513 O   0  0  0  0  0  0  0  0  0  0  0  0
   25.7489   21.0168    5.6025 C   0  0  2  0  0  0  0  0  0  0  0  0
   26.1267   19.9425    4.7281 N   0  0  0  0  0  0  0  0  0  0  0  0
   28.3942   25.1812    9.0921 C   0  0  2  0  0  0  0  0  0  0  0  0
   28.5638   25.3821   10.4876 O   0  0  0  0  0  0  0  0  0  0  0  0
   31.0798   24.7280   13.2827 C   0  0  1  0  0  0  0  0  0  0  0  0
   31.8115   23.6930   12.5340 O   0  0  0  0  0  0  0  0  0  0  0  0
   24.4777   32.3685    4.8793 C   0  0  0  0  0  0  0  0  0  0  0  0
   28.7545   22.9790    1.0035 C   0  0  2  0  0  0  0  0  0  0  0  0
   28.5666   22.2789   -0.2902 O   0  0  0  0  0  0  0  0  0  0  0  0
   26.8638   22.1418    5.5732 C   0  0  2  0  0  0  0  0  0  0  0  0
   29.2833   26.0947    8.2152 C   0  0  1  0  0  0  0  0  0  0  0  0
   31.8367   26.1649   13.1919 C   0  0  2  0  0  0  0  0  0  0  0  0
   31.1107   27.2047   13.9378 O   0  0  0  0  0  0  0  0  0  0  0  0
   23.7923   31.1334    4.7706 C   0  0  0  0  0  0  0  0  0  0  0  0
   29.1287   21.9123    2.1033 C   0  0  2  0  0  0  0  0  0  0  0  0
   29.2951   22.6564    3.3416 O   0  0  0  0  0  0  0  0  0  0  0  0
   26.4073   23.2914    6.5371 C   0  0  2  0  0  0  0  0  0  0  0  0
   27.4626   24.2383    6.4226 O   0  0  0  0  0  0  0  0  0  0  0  0
   30.6341   25.4578    7.8930 C   0  0  0  0  0  0  0  0  0  0  0  0
   31.6319   25.6261    8.8714 O   0  0  0  0  0  0  0  0  0  0  0  0
   31.9702   26.5991   11.6601 C   0  0  1  0  0  0  0  0  0  0  0  0
   30.5848   26.6354   11.0485 O   0  0  0  0  0  0  0  0  0  0  0  0
   23.3445   30.4434    6.0025 C   0  0  0  0  0  0  0  0  0  0  0  0
   30.3606   21.2320    1.6722 C   0  0  0  0  0  0  0  0  0  0  0  0
   30.5825   20.1707    2.4579 O   0  0  0  0  0  0  0  0  0  0  0  0
   26.2410   22.7485    8.0187 C   0  0  1  0  0  0  0  0  0  0  0  0
   25.8265   23.7759    8.8578 O   0  0  0  0  0  0  0  0  0  0  0  0
   24.9324   27.1169    8.3028 C   0  0  0  0  0  0  0  0  0  0  0  0
   32.6870   27.9765   11.6365 C   0  0  0  0  0  0  0  0  0  0  0  0
   31.9306   28.9549   12.3777 N   0  0  0  0  0  0  0  0  0  0  0  0
   24.9874   28.6392    8.1386 C   0  0  0  0  0  0  0  0  0  0  0  0
   24.1523   29.2861    9.2020 N   0  0  0  0  0  0  0  0  0  0  0  0
   23.1648   30.3776    8.7085 C   0  0  0  0  0  0  0  0  0  0  0  0
  1  2  1  6  0  0  0
  1  9  1  0  0  0  0
  1 35  1  0  0  0  0
  3  4  1  1  0  0  0
  3 11  1  0  0  0  0
  3 45  1  0  0  0  0
  5  6  1  0  0  0  0
  5 12  1  0  0  0  0
  5 37  1  1  0  0  0
  6 30  1  0  0  0  0
  7 14  1  0  0  0  0
  7 41  1  0  0  0  0
  7 23  1  1  0  0  0
  8 16  2  0  0  0  0
  8 42  1  0  0  0  0
  9 10  1  1  0  0  0
  9 18  1  0  0  0  0
 11 20  1  0  0  0  0
 12 13  1  1  0  0  0
 12 22  1  0  0  0  0
 13 47  1  0  0  0  0
 14 15  1  1  0  0  0
 14 24  1  0  0  0  0
 16 17  1  0  0  0  0
 17 26  2  0  0  0  0
 18 19  1  6  0  0  0
 18 27  1  0  0  0  0
 20 21  1  6  0  0  0
 20 29  1  0  0  0  0
 22 23  1  1  0  0  0
 22 30  1  0  0  0  0
 24 25  1  6  0  0  0
 24 31  1  0  0  0  0
 26 33  1  0  0  0  0
 27 28  1  6  0  0  0
 27 34  1  0  0  0  0
 29  2  1  6  0  0  0
 29 36  1  0  0  0  0
 30 38  1  6  0  0  0
 31 32  1  1  0  0  0
 31 40  1  0  0  0  0
 33 42  2  0  0  0  0
 34 35  1  0  0  0  0
 34 43  1  6  0  0  0
 36 37  1  1  0  0  0
 36 45  1  0  0  0  0
 38 39  1  0  0  0  0
 40 41  1  0  0  0  0
 40 48  1  1  0  0  0
 43 44  1  0  0  0  0
 45 46  1  1  0  0  0
 47 50  1  0  0  0  0
 48 49  1  0  0  0  0
 50 51  1  0  0  0  0
 51 52  1  0  0  0  0
 52  8  1  0  0  0  0
M  END
>  <CHROM.1>
-143.80559747,171.82970383,-152.29339370,68.33908273,-146.87600556,-175.67897585
-168.52129333,159.26051749,-169.49637181,172.33413352,-59.36702262,-108.57324701
-131.72496205,-24.54199712,-97.59309459,27.78271685,25.35408693,7.30822188
-1.81727934,-0.87905907,0.87042596

>  <Name>
2be0_lig

>  <RI>
2.57068e+07

>  <Rbt.Current_Directory>
/home/itssahil/PROJECTS/Mol_Feturizer/New_Systems/rnas/2be0

>  <Rbt.Executable>
rbdock ($Id: //depot/dev/client3/rdock/2013.1/src/exe/rbdock.cxx#4 $)

>  <Rbt.Library>
libRbt.so (2013.1, Build901 2013/11/27)

>  <Rbt.Parameter_File>
/export/apps/rDock/src/rDock_2013.1_src/data/scripts/dock_solv.prm

>  <Rbt.Receptor>
prm/blind_docking_60.prm

>  <SCORE>
58.2623

>  <SCORE.INTER>
31.3272

>  <SCORE.INTER.CONST>
1

>  <SCORE.INTER.POLAR>
-1.01399

>  <SCORE.INTER.ROT>
15

>  <SCORE.INTER.SOLV>
39.3866

>  <SCORE.INTER.VDW>
-2.46409

>  <SCORE.INTER.norm>
0.602446

>  <SCORE.INTRA>
6.9254

>  <SCORE.INTRA.DIHEDRAL>
-24.2878

>  <SCORE.INTRA.DIHEDRAL.0>
47.8724

>  <SCORE.INTRA.POLAR>
0

>  <SCORE.INTRA.POLAR.0>
0

>  <SCORE.INTRA.REPUL>
0

>  <SCORE.INTRA.REPUL.0>
0

>  <SCORE.INTRA.SOLV>
0.136918

>  <SCORE.INTRA.SOLV.lig_0>
-115.677

>  <SCORE.INTRA.VDW>
19.0009

>  <SCORE.INTRA.VDW.0>
-7.4833

>  <SCORE.INTRA.norm>
0.133181

>  <SCORE.RESTR>
20.0096

>  <SCORE.RESTR.CAVITY>
20.0096

>  <SCORE.RESTR.norm>
0.384801

>  <SCORE.SYSTEM>
0

>  <SCORE.SYSTEM.CONST>
0

>  <SCORE.SYSTEM.DIHEDRAL>
0

>  <SCORE.SYSTEM.SOLV>
0

>  <SCORE.SYSTEM.norm>
0

>  <SCORE.heavy>
52

>  <SCORE.norm>
1.12043

>  <RMSD>
29.425

$$$$
2be0_lig
 OpenBabel11021811423D
libRbt.so/2013.1/901 2013/11/27
 52 56  0  0  0  0  0  0  0  0999 V2000
   27.8714   23.5739    1.8936 C   0  0  2  0  0  0  0  0  0  0  0  0
   27.8695   24.1231    3.1902 O   0  0  0  0  0  0  0  0  0  0  0  0
   23.9423   25.8270    4.2127 C   0  0  2  0  0  0  0  0  0  0  0  0
   22.6214   25.9860    4.8830 N   0  0  0  0  0  0  0  0  0  0  0  0
   27.5019   26.5267    6.6163 C   0  0  2  0  0  0  0  0  0  0  0  0
   28.8003   26.9210    7.1052 O   0  0  0  0  0  0  0  0  0  0  0  0
   29.1697   24.1725   10.3133 C   0  0  1  0  0  0  0  0  0  0  0  0
   23.4534   31.2842    7.6573 C   0  0  0  0  0  0  0  0  0  0  0  0
   28.4266   22.0915    1.8999 C   0  0  2  0  0  0  0  0  0  0  0  0
   27.6713   21.2836    2.8598 N   0  0  0  0  0  0  0  0  0  0  0  0
   24.0159   24.3818    3.5387 C   0  0  0  0  0  0  0  0  0  0  0  0
   26.8420   25.6982    7.7300 C   0  0  2  0  0  0  0  0  0  0  0  0
   26.2157   26.7324    8.6107 O   0  0  0  0  0  0  0  0  0  0  0  0
   28.6810   23.6432   11.7701 C   0  0  2  0  0  0  0  0  0  0  0  0
   27.7129   24.6343   12.3413 N   0  0  0  0  0  0  0  0  0  0  0  0
   23.5582   32.6615    8.0406 C   0  0  0  0  0  0  0  0  0  0  0  0
   23.3768   33.6782    7.0668 N   0  0  0  0  0  0  0  0  0  0  0  0
   29.9909   22.1048    2.2293 C   0  0  1  0  0  0  0  0  0  0  0  0
   30.4667   20.7678    2.2375 O   0  0  0  0  0  0  0  0  0  0  0  0
   25.4582   24.1616    2.8031 C   0  0  2  0  0  0  0  0  0  0  0  0
   25.5362   22.8655    2.1905 N   0  0  0  0  0  0  0  0  0  0  0  0
   28.0836   24.9279    8.2178 C   0  0  2  0  0  0  0  0  0  0  0  0
   27.9967   24.3037    9.4903 O   0  0  0  0  0  0  0  0  0  0  0  0
   29.9409   23.5092   12.6776 C   0  0  1  0  0  0  0  0  0  0  0  0
   30.8061   22.5073   12.0335 O   0  0  0  0  0  0  0  0  0  0  0  0
   23.0920   33.4002    5.6994 C   0  0  0  0  0  0  0  0  0  0  0  0
   30.7152   22.9710    1.1581 C   0  0  2  0  0  0  0  0  0  0  0  0
   32.1749   23.0245    1.4142 O   0  0  0  0  0  0  0  0  0  0  0  0
   26.6292   24.3215    3.8579 C   0  0  2  0  0  0  0  0  0  0  0  0
   29.2187   25.9738    8.1094 C   0  0  1  0  0  0  0  0  0  0  0  0
   30.6944   24.9457   12.7990 C   0  0  2  0  0  0  0  0  0  0  0  0
   29.8354   25.9523   13.4417 O   0  0  0  0  0  0  0  0  0  0  0  0
   22.9757   32.0578    5.2620 C   0  0  0  0  0  0  0  0  0  0  0  0
   30.1486   24.4428    1.1669 C   0  0  2  0  0  0  0  0  0  0  0  0
   28.7212   24.3232    0.9156 O   0  0  0  0  0  0  0  0  0  0  0  0
   26.5052   25.7486    4.4960 C   0  0  2  0  0  0  0  0  0  0  0  0
   27.5990   25.7851    5.4047 O   0  0  0  0  0  0  0  0  0  0  0  0
   30.5316   25.3610    7.6247 C   0  0  0  0  0  0  0  0  0  0  0  0
   31.5570   25.2874    8.5861 O   0  0  0  0  0  0  0  0  0  0  0  0
   31.1135   25.4505   11.3421 C   0  0  1  0  0  0  0  0  0  0  0  0
   29.8688   25.5211   10.4817 O   0  0  0  0  0  0  0  0  0  0  0  0
   23.1572   30.9598    6.2396 C   0  0  0  0  0  0  0  0  0  0  0  0
   30.8535   25.2047    0.1235 C   0  0  0  0  0  0  0  0  0  0  0  0
   32.1748   25.0468    0.2715 O   0  0  0  0  0  0  0  0  0  0  0  0
   25.1071   25.9169    5.2269 C   0  0  1  0  0  0  0  0  0  0  0  0
   25.0086   27.1890    5.7778 O   0  0  0  0  0  0  0  0  0  0  0  0
   26.6290   28.1417    8.8093 C   0  0  0  0  0  0  0  0  0  0  0  0
   31.8151   26.8245   11.5191 C   0  0  0  0  0  0  0  0  0  0  0  0
   31.0966   27.6432   12.4638 N   0  0  0  0  0  0  0  0  0  0  0  0
   25.7820   28.9999    7.8641 C   0  0  0  0  0  0  0  0  0  0  0  0
   24.3351   28.8679    8.2323 N   0  0  0  0  0  0  0  0  0  0  0  0
   23.6619   30.1549    8.7805 C   0  0  0  0  0  0  0  0  0  0  0  0
  1  2  1  1  0  0  0
  1  9  1  0  0  0  0
  1 35  1  0  0  0  0
  3  4  1  1  0  0  0
  3 11  1  0  0  0  0
  3 45  1  0  0  0  0
  5  6  1  0  0  0  0
  5 12  1  0  0  0  0
  5 37  1  6  0  0  0
  6 30  1  0  0  0  0
  7 14  1  0  0  0  0
  7 41  1  0  0  0  0
  7 23  1  6  0  0  0
  8 16  2  0  0  0  0
  8 42  1  0  0  0  0
  9 10  1  1  0  0  0
  9 18  1  0  0  0  0
 11 20  1  0  0  0  0
 12 13  1  1  0  0  0
 12 22  1  0  0  0  0
 13 47  1  0  0  0  0
 14 15  1  1  0  0  0
 14 24  1  0  0  0  0
 16 17  1  0  0  0  0
 17 26  2  0  0  0  0
 18 19  1  6  0  0  0
 18 27  1  0  0  0  0
 20 21  1  1  0  0  0
 20 29  1  0  0  0  0
 22 23  1  1  0  0  0
 22 30  1  0  0  0  0
 24 25  1  6  0  0  0
 24 31  1  0  0  0  0
 26 33  1  0  0  0  0
 27 28  1  1  0  0  0
 27 34  1  0  0  0  0
 29  2  1  6  0  0  0
 29 36  1  0  0  0  0
 30 38  1  6  0  0  0
 31 32  1  6  0  0  0
 31 40  1  0  0  0  0
 33 42  2  0  0  0  0
 34 35  1  0  0  0  0
 34 43  1  6  0  0  0
 36 37  1  1  0  0  0
 36 45  1  0  0  0  0
 38 39  1  0  0  0  0
 40 41  1  0  0  0  0
 40 48  1  1  0  0  0
 43 44  1  0  0  0  0
 45 46  1  6  0  0  0
 47 50  1  0  0  0  0
 48 49  1  0  0  0  0
 50 51  1  0  0  0  0
 51 52  1  0  0  0  0
 52  8  1  0  0  0  0
M  END
>  <CHROM.1>
-108.47671248,-155.37993377,171.08368888,-27.00099024,95.53610674,-148.32571078
-12.96811070,133.61840404,-50.86667542,-147.94072911,-43.19365902,62.31451790
113.74189180,70.42863769,-146.25302154,27.71586573,25.86591425,6.51206882
1.27378027,0.76529522,-1.87601791

>  <Name>
2be0_lig

>  <RI>
2.57068e+07

>  <Rbt.Current_Directory>
/home/itssahil/PROJECTS/Mol_Feturizer/New_Systems/rnas/2be0

>  <Rbt.Executable>
rbdock ($Id: //depot/dev/client3/rdock/2013.1/src/exe/rbdock.cxx#4 $)

>  <Rbt.Library>
libRbt.so (2013.1, Build901 2013/11/27)

>  <Rbt.Parameter_File>
/export/apps/rDock/src/rDock_2013.1_src/data/scripts/dock_solv.prm

>  <Rbt.Receptor>
prm/blind_docking_60.prm

>  <SCORE>
67.4916

>  <SCORE.INTER>
37.2164

>  <SCORE.INTER.CONST>
1

>  <SCORE.INTER.POLAR>
-0.502463

>  <SCORE.INTER.ROT>
15

>  <SCORE.INTER.SOLV>
33.6203

>  <SCORE.INTER.VDW>
1.67907

>  <SCORE.INTER.norm>
0.7157

>  <SCORE.INTRA>
17.0791

>  <SCORE.INTRA.DIHEDRAL>
-7.43028

>  <SCORE.INTRA.DIHEDRAL.0>
47.8724

>  <SCORE.INTRA.POLAR>
0

>  <SCORE.INTRA.POLAR.0>
0

>  <SCORE.INTRA.REPUL>
0

>  <SCORE.INTRA.REPUL.0>
0

>  <SCORE.INTRA.SOLV>
5.6451

>  <SCORE.INTRA.SOLV.lig_0>
-115.677

>  <SCORE.INTRA.VDW>
17.9717

>  <SCORE.INTRA.VDW.0>
-7.4833

>  <SCORE.INTRA.norm>
0.328444

>  <SCORE.RESTR>
13.1961

>  <SCORE.RESTR.CAVITY>
13.1961

>  <SCORE.RESTR.norm>
0.253771

>  <SCORE.SYSTEM>
0

>  <SCORE.SYSTEM.CONST>
0

>  <SCORE.SYSTEM.DIHEDRAL>
0

>  <SCORE.SYSTEM.SOLV>
0

>  <SCORE.SYSTEM.norm>
0

>  <SCORE.heavy>
52

>  <SCORE.norm>
1.29792

>  <RMSD>
29.514

$$$$
2be0_lig
 OpenBabel11021811423D
libRbt.so/2013.1/901 2013/11/27
 52 56  0  0  0  0  0  0  0  0999 V2000
   24.7943   28.8356    7.3386 C   0  0  2  0  0  0  0  0  0  0  0  0
   26.1228   28.4692    7.0493 O   0  0  0  0  0  0  0  0  0  0  0  0
   29.2199   25.8915    8.8198 C   0  0  2  0  0  0  0  0  0  0  0  0
   29.8344   24.8048    9.6327 N   0  0  0  0  0  0  0  0  0  0  0  0
   26.1409   24.7153    6.0325 C   0  0  2  0  0  0  0  0  0  0  0  0
   27.1248   23.6714    5.8825 O   0  0  0  0  0  0  0  0  0  0  0  0
   26.1635   22.8392    1.6352 C   0  0  1  0  0  0  0  0  0  0  0  0
   25.3832   23.2724   10.2803 C   0  0  0  0  0  0  0  0  0  0  0  0
   23.7647   27.8562    6.6413 C   0  0  2  0  0  0  0  0  0  0  0  0
   24.0679   26.4724    7.0123 N   0  0  0  0  0  0  0  0  0  0  0  0
   28.3397   26.8226    9.7719 C   0  0  0  0  0  0  0  0  0  0  0  0
   25.0662   24.4683    4.9618 C   0  0  2  0  0  0  0  0  0  0  0  0
   24.1460   23.4837    5.6109 O   0  0  0  0  0  0  0  0  0  0  0  0
   26.8237   24.1246    0.8915 C   0  0  2  0  0  0  0  0  0  0  0  0
   25.7220   25.0167    0.4055 N   0  0  0  0  0  0  0  0  0  0  0  0
   26.3456   22.3071    9.8364 C   0  0  0  0  0  0  0  0  0  0  0  0
   27.7025   22.4329   10.2338 N   0  0  0  0  0  0  0  0  0  0  0  0
   23.8043   28.0734    5.0579 C   0  0  1  0  0  0  0  0  0  0  0  0
   22.8811   27.1821    4.4519 O   0  0  0  0  0  0  0  0  0  0  0  0
   27.6351   28.0218    8.9143 C   0  0  2  0  0  0  0  0  0  0  0  0
   26.8418   28.8682    9.7601 N   0  0  0  0  0  0  0  0  0  0  0  0
   25.9818   24.0153    3.8090 C   0  0  2  0  0  0  0  0  0  0  0  0
   25.3654   23.3382    2.7236 O   0  0  0  0  0  0  0  0  0  0  0  0
   27.6812   23.5998   -0.2995 C   0  0  1  0  0  0  0  0  0  0  0  0
   28.7323   22.7557    0.2921 O   0  0  0  0  0  0  0  0  0  0  0  0
   28.1721   23.4889   11.0659 C   0  0  0  0  0  0  0  0  0  0  0  0
   23.4596   29.5602    4.7531 C   0  0  2  0  0  0  0  0  0  0  0  0
   23.4846   29.8247    3.2942 O   0  0  0  0  0  0  0  0  0  0  0  0
   26.7228   27.4038    7.7762 C   0  0  2  0  0  0  0  0  0  0  0  0
   27.0746   23.1863    4.5249 C   0  0  1  0  0  0  0  0  0  0  0  0
   26.7485   22.7462   -1.3229 C   0  0  2  0  0  0  0  0  0  0  0  0
   25.6952   23.5835   -1.9179 O   0  0  0  0  0  0  0  0  0  0  0  0
   27.2669   24.4718   11.5364 C   0  0  0  0  0  0  0  0  0  0  0  0
   24.4953   30.5195    5.4563 C   0  0  2  0  0  0  0  0  0  0  0  0
   24.4266   30.2106    6.8757 O   0  0  0  0  0  0  0  0  0  0  0  0
   27.6305   26.4928    6.8789 C   0  0  2  0  0  0  0  0  0  0  0  0
   26.7214   26.0085    5.8978 O   0  0  0  0  0  0  0  0  0  0  0  0
   28.4612   23.4053    3.9218 C   0  0  0  0  0  0  0  0  0  0  0  0
   28.8371   22.4912    2.9198 O   0  0  0  0  0  0  0  0  0  0  0  0
   26.0822   21.5231   -0.5400 C   0  0  1  0  0  0  0  0  0  0  0  0
   25.2991   22.0736    0.6340 O   0  0  0  0  0  0  0  0  0  0  0  0
   25.8396   24.3858   11.1492 C   0  0  0  0  0  0  0  0  0  0  0  0
   24.1067   31.9058    5.1509 C   0  0  0  0  0  0  0  0  0  0  0  0
   24.8107   32.7462    5.9196 O   0  0  0  0  0  0  0  0  0  0  0  0
   28.2733   25.3228    7.7364 C   0  0  1  0  0  0  0  0  0  0  0  0
   29.0821   24.5312    6.9298 O   0  0  0  0  0  0  0  0  0  0  0  0
   24.4534   22.1134    6.0841 C   0  0  0  0  0  0  0  0  0  0  0  0
   25.1987   20.7547   -1.5600 C   0  0  0  0  0  0  0  0  0  0  0  0
   25.6363   19.3863   -1.6806 N   0  0  0  0  0  0  0  0  0  0  0  0
   24.7820   22.2126    7.5772 C   0  0  0  0  0  0  0  0  0  0  0  0
   23.6964   22.9727    8.2775 N   0  0  0  0  0  0  0  0  0  0  0  0
   23.8546   23.1044    9.8163 C   0  0  0  0  0  0  0  0  0  0  0  0
  1  2  1  6  0  0  0
  1  9  1  0  0  0  0
  1 35  1  0  0  0  0
  3  4  1  1  0  0  0
  3 11  1  0  0  0  0
  3 45  1  0  0  0  0
  5  6  1  0  0  0  0
  5 12  1  0  0  0  0
  5 37  1  6  0  0  0
  6 30  1  0  0  0  0
  7 14  1  0  0  0  0
  7 41  1  0  0  0  0
  7 23  1  1  0  0  0
  8 16  2  0  0  0  0
  8 42  1  0  0  0  0
  9 10  1  6  0  0  0
  9 18  1  0  0  0  0
 11 20  1  0  0  0  0
 12 13  1  1  0  0  0
 12 22  1  0  0  0  0
 13 47  1  0  0  0  0
 14 15  1  6  0  0  0
 14 24  1  0  0  0  0
 16 17  1  0  0  0  0
 17 26  2  0  0  0  0
 18 19  1  6  0  0  0
 18 27  1  0  0  0  0
 20 21  1  1  0  0  0
 20 29  1  0  0  0  0
 22 23  1  6  0  0  0
 22 30  1  0  0  0  0
 24 25  1  1  0  0  0
 24 31  1  0  0  0  0
 26 33  1  0  0  0  0
 27 28  1  6  0  0  0
 27 34  1  0  0  0  0
 29  2  1  6  0  0  0
 29 36  1  0  0  0  0
 30 38  1  6  0  0  0
 31 32  1  1  0  0  0
 31 40  1  0  0  0  0
 33 42  2  0  0  0  0
 34 35  1  0  0  0  0
 34 43  1  1  0  0  0
 36 37  1  6  0  0  0
 36 45  1  0  0  0  0
 38 39  1  0  0  0  0
 40 41  1  0  0  0  0
 40 48  1  6  0  0  0
 43 44  1  0  0  0  0
 45 46  1  6  0  0  0
 47 50  1  0  0  0  0
 48 49  1  0  0  0  0
 50 51  1  0  0  0  0
 51 52  1  0  0  0  0
 52  8  1  0  0  0  0
M  END
>  <CHROM.1>
-80.05554943,-67.72205125,-64.67292538,-61.54414483,94.97636268,-177.57850359
-99.67423904,150.78689221,168.96191953,-98.56180715,120.60795293,50.87589905
177.39647328,36.03322481,-53.21520658,26.06494394,25.16951817,5.38284847
1.58415264,-1.22404838,1.10621929

>  <Name>
2be0_lig

>  <RI>
2.57068e+07

>  <Rbt.Current_Directory>
/home/itssahil/PROJECTS/Mol_Feturizer/New_Systems/rnas/2be0

>  <Rbt.Executable>
rbdock ($Id: //depot/dev/client3/rdock/2013.1/src/exe/rbdock.cxx#4 $)

>  <Rbt.Library>
libRbt.so (2013.1, Build901 2013/11/27)

>  <Rbt.Parameter_File>
/export/apps/rDock/src/rDock_2013.1_src/data/scripts/dock_solv.prm

>  <Rbt.Receptor>
prm/blind_docking_60.prm

>  <SCORE>
41.7739

>  <SCORE.INTER>
20.8125

>  <SCORE.INTER.CONST>
1

>  <SCORE.INTER.POLAR>
0

>  <SCORE.INTER.ROT>
15

>  <SCORE.INTER.SOLV>
33.1241

>  <SCORE.INTER.VDW>
-10.7664

>  <SCORE.INTER.norm>
0.400241

>  <SCORE.INTRA>
-0.561481

>  <SCORE.INTRA.DIHEDRAL>
-20.4751

>  <SCORE.INTRA.DIHEDRAL.0>
47.8724

>  <SCORE.INTRA.POLAR>
0

>  <SCORE.INTRA.POLAR.0>
0

>  <SCORE.INTRA.REPUL>
0

>  <SCORE.INTRA.REPUL.0>
0

>  <SCORE.INTRA.SOLV>
7.9479

>  <SCORE.INTRA.SOLV.lig_0>
-115.677

>  <SCORE.INTRA.VDW>
5.70213

>  <SCORE.INTRA.VDW.0>
-7.4833

>  <SCORE.INTRA.norm>
-0.0107977

>  <SCORE.RESTR>
21.5229

>  <SCORE.RESTR.CAVITY>
21.5229

>  <SCORE.RESTR.norm>
0.413902

>  <SCORE.SYSTEM>
0

>  <SCORE.SYSTEM.CONST>
0

>  <SCORE.SYSTEM.DIHEDRAL>
0

>  <SCORE.SYSTEM.SOLV>
0

>  <SCORE.SYSTEM.norm>
0

>  <SCORE.heavy>
52

>  <SCORE.norm>
0.803345

>  <RMSD>
29.551

$$$$
2be0_lig
 OpenBabel11021811423D
libRbt.so/2013.1/901 2013/11/27
 52 56  0  0  0  0  0  0  0  0999 V2000
   29.9680   25.2155    8.4764 C   0  0  2  0  0  0  0  0  0  0  0  0
   29.3854   24.2483    9.3179 O   0  0  0  0  0  0  0  0  0  0  0  0
   25.3650   23.0082   10.6098 C   0  0  2  0  0  0  0  0  0  0  0  0
   23.9078   23.0899   10.9090 N   0  0  0  0  0  0  0  0  0  0  0  0
   26.4754   23.7806    6.5332 C   0  0  2  0  0  0  0  0  0  0  0  0
   25.9877   22.6426    5.7933 O   0  0  0  0  0  0  0  0  0  0  0  0
   28.9516   23.7635    2.4082 C   0  0  1  0  0  0  0  0  0  0  0  0
   24.5097   29.8557    6.0270 C   0  0  0  0  0  0  0  0  0  0  0  0
   30.9312   26.1752    9.2870 C   0  0  2  0  0  0  0  0  0  0  0  0
   31.9233   25.3815   10.0153 N   0  0  0  0  0  0  0  0  0  0  0  0
   26.1302   24.1489   11.4232 C   0  0  0  0  0  0  0  0  0  0  0  0
   26.9750   24.8010    5.4980 C   0  0  2  0  0  0  0  0  0  0  0  0
   25.7375   25.5530    5.1232 O   0  0  0  0  0  0  0  0  0  0  0  0
   29.0998   24.6743    1.0704 C   0  0  2  0  0  0  0  0  0  0  0  0
   27.7997   24.6488    0.3255 N   0  0  0  0  0  0  0  0  0  0  0  0
   25.3717   30.4868    6.9828 C   0  0  0  0  0  0  0  0  0  0  0  0
   25.4548   31.9032    7.0272 N   0  0  0  0  0  0  0  0  0  0  0  0
   30.0693   27.0999   10.2657 C   0  0  1  0  0  0  0  0  0  0  0  0
   30.9508   27.9461   10.9876 O   0  0  0  0  0  0  0  0  0  0  0  0
   27.7335   24.1025   11.1110 C   0  0  2  0  0  0  0  0  0  0  0  0
   28.4340   25.1228   11.8388 N   0  0  0  0  0  0  0  0  0  0  0  0
   27.6109   23.8235    4.4916 C   0  0  2  0  0  0  0  0  0  0  0  0
   27.8808   24.3229    3.1899 O   0  0  0  0  0  0  0  0  0  0  0  0
   30.2483   24.0716    0.2063 C   0  0  1  0  0  0  0  0  0  0  0  0
   31.4687   24.1626    1.0245 O   0  0  0  0  0  0  0  0  0  0  0  0
   24.7146   32.7511    6.1547 C   0  0  0  0  0  0  0  0  0  0  0  0
   29.0543   27.9139    9.4118 C   0  0  2  0  0  0  0  0  0  0  0  0
   28.2200   28.7911   10.2684 O   0  0  0  0  0  0  0  0  0  0  0  0
   27.9841   24.2912    9.5583 C   0  0  2  0  0  0  0  0  0  0  0  0
   26.6471   22.6133    4.5107 C   0  0  1  0  0  0  0  0  0  0  0  0
   29.9079   22.5265   -0.1718 C   0  0  2  0  0  0  0  0  0  0  0  0
   28.6889   22.4277   -0.9895 O   0  0  0  0  0  0  0  0  0  0  0  0
   23.8454   32.1844    5.1901 C   0  0  0  0  0  0  0  0  0  0  0  0
   28.1047   26.9412    8.6120 C   0  0  2  0  0  0  0  0  0  0  0  0
   28.9776   26.1098    7.7986 O   0  0  0  0  0  0  0  0  0  0  0  0
   27.2048   23.1562    8.8076 C   0  0  2  0  0  0  0  0  0  0  0  0
   27.5085   23.4137    7.4419 O   0  0  0  0  0  0  0  0  0  0  0  0
   27.3853   21.2788    4.4195 C   0  0  0  0  0  0  0  0  0  0  0  0
   27.3182   20.6336    3.1703 O   0  0  0  0  0  0  0  0  0  0  0  0
   29.7229   21.6796    1.1703 C   0  0  1  0  0  0  0  0  0  0  0  0
   28.6324   22.3258    1.9997 O   0  0  0  0  0  0  0  0  0  0  0  0
   23.7238   30.7107    5.1027 C   0  0  0  0  0  0  0  0  0  0  0  0
   27.1856   27.7650    7.8103 C   0  0  0  0  0  0  0  0  0  0  0  0
   26.8423   27.0991    6.7005 O   0  0  0  0  0  0  0  0  0  0  0  0
   25.6498   23.2497    9.1085 C   0  0  1  0  0  0  0  0  0  0  0  0
   24.9751   22.2319    8.4449 O   0  0  0  0  0  0  0  0  0  0  0  0
   25.1803   25.7883    3.7702 C   0  0  0  0  0  0  0  0  0  0  0  0
   29.3902   20.2225    0.7487 C   0  0  0  0  0  0  0  0  0  0  0  0
   28.1174   20.1676    0.0736 N   0  0  0  0  0  0  0  0  0  0  0  0
   24.9020   27.2900    3.6496 C   0  0  0  0  0  0  0  0  0  0  0  0
   23.8749   27.6902    4.6653 N   0  0  0  0  0  0  0  0  0  0  0  0
   24.4344   28.2513    6.0003 C   0  0  0  0  0  0  0  0  0  0  0  0
  1  2  1  1  0  0  0
  1  9  1  0  0  0  0
  1 35  1  0  0  0  0
  3  4  1  6  0  0  0
  3 11  1  0  0  0  0
  3 45  1  0  0  0  0
  5  6  1  0  0  0  0
  5 12  1  0  0  0  0
  5 37  1  1  0  0  0
  6 30  1  0  0  0  0
  7 14  1  0  0  0  0
  7 41  1  0  0  0  0
  7 23  1  1  0  0  0
  8 16  2  0  0  0  0
  8 42  1  0  0  0  0
  9 10  1  1  0  0  0
  9 18  1  0  0  0  0
 11 20  1  0  0  0  0
 12 13  1  6  0  0  0
 12 22  1  0  0  0  0
 13 47  1  0  0  0  0
 14 15  1  6  0  0  0
 14 24  1  0  0  0  0
 16 17  1  0  0  0  0
 17 26  2  0  0  0  0
 18 19  1  6  0  0  0
 18 27  1  0  0  0  0
 20 21  1  1  0  0  0
 20 29  1  0  0  0  0
 22 23  1  6  0  0  0
 22 30  1  0  0  0  0
 24 25  1  1  0  0  0
 24 31  1  0  0  0  0
 26 33  1  0  0  0  0
 27 28  1  1  0  0  0
 27 34  1  0  0  0  0
 29  2  1  1  0  0  0
 29 36  1  0  0  0  0
 30 38  1  1  0  0  0
 31 32  1  1  0  0  0
 31 40  1  0  0  0  0
 33 42  2  0  0  0  0
 34 35  1  0  0  0  0
 34 43  1  6  0  0  0
 36 37  1  6  0  0  0
 36 45  1  0  0  0  0
 38 39  1  0  0  0  0
 40 41  1  0  0  0  0
 40 48  1  6  0  0  0
 43 44  1  0  0  0  0
 45 46  1  6  0  0  0
 47 50  1  0  0  0  0
 48 49  1  0  0  0  0
 50 51  1  0  0  0  0
 51 52  1  0  0  0  0
 52  8  1  0  0  0  0
M  END
>  <CHROM.1>
113.00111590,-96.52359591,-173.17663871,-126.43495505,-129.76231662,152.08321315
-134.28744569,138.94579795,150.25284029,-115.87183310,-65.25920579,-62.41790962
95.20959902,95.27638455,-160.53737840,27.45890700,25.20484505,6.00724238
-1.98786397,1.14921667,-1.74240101

>  <Name>
2be0_lig

>  <RI>
2.57068e+07

>  <Rbt.Current_Directory>
/home/itssahil/PROJECTS/Mol_Feturizer/New_Systems/rnas/2be0

>  <Rbt.Executable>
rbdock ($Id: //depot/dev/client3/rdock/2013.1/src/exe/rbdock.cxx#4 $)

>  <Rbt.Library>
libRbt.so (2013.1, Build901 2013/11/27)

>  <Rbt.Parameter_File>
/export/apps/rDock/src/rDock_2013.1_src/data/scripts/dock_solv.prm

>  <Rbt.Receptor>
prm/blind_docking_60.prm

>  <SCORE>
32.3439

>  <SCORE.INTER>
12.1288

>  <SCORE.INTER.CONST>
1

>  <SCORE.INTER.POLAR>
-1.35691

>  <SCORE.INTER.ROT>
15

>  <SCORE.INTER.SOLV>
33.5689

>  <SCORE.INTER.VDW>
-12.1807

>  <SCORE.INTER.norm>
0.233247

>  <SCORE.INTRA>
8.61518

>  <SCORE.INTRA.DIHEDRAL>
3.06628

>  <SCORE.INTRA.DIHEDRAL.0>
47.8724

>  <SCORE.INTRA.POLAR>
0

>  <SCORE.INTRA.POLAR.0>
0

>  <SCORE.INTRA.REPUL>
0

>  <SCORE.INTRA.REPUL.0>
0

>  <SCORE.INTRA.SOLV>
5.43676

>  <SCORE.INTRA.SOLV.lig_0>
-115.677

>  <SCORE.INTRA.VDW>
4.36366

>  <SCORE.INTRA.VDW.0>
-7.4833

>  <SCORE.INTRA.norm>
0.165677

>  <SCORE.RESTR>
11.5999

>  <SCORE.RESTR.CAVITY>
11.5999

>  <SCORE.RESTR.norm>
0.223074

>  <SCORE.SYSTEM>
0

>  <SCORE.SYSTEM.CONST>
0

>  <SCORE.SYSTEM.DIHEDRAL>
0

>  <SCORE.SYSTEM.SOLV>
0

>  <SCORE.SYSTEM.norm>
0

>  <SCORE.heavy>
52

>  <SCORE.norm>
0.621998

>  <RMSD>
29.552

$$$$
2be0_lig
 OpenBabel11021811423D
libRbt.so/2013.1/901 2013/11/27
 52 56  0  0  0  0  0  0  0  0999 V2000
   23.6435   29.5005    6.1006 C   0  0  2  0  0  0  0  0  0  0  0  0
   24.3480   28.7480    5.1413 O   0  0  0  0  0  0  0  0  0  0  0  0
   21.5217   25.4343    4.5072 C   0  0  2  0  0  0  0  0  0  0  0  0
   20.8347   24.2942    3.8380 N   0  0  0  0  0  0  0  0  0  0  0  0
   25.6615   24.8138    5.5493 C   0  0  2  0  0  0  0  0  0  0  0  0
   25.3500   24.0105    6.7061 O   0  0  0  0  0  0  0  0  0  0  0  0
   29.3683   24.9645    8.6046 C   0  0  1  0  0  0  0  0  0  0  0  0
   28.7242   19.6960    0.4275 C   0  0  0  0  0  0  0  0  0  0  0  0
   24.4645   30.7802    6.5412 C   0  0  2  0  0  0  0  0  0  0  0  0
   24.8322   31.5638    5.3600 N   0  0  0  0  0  0  0  0  0  0  0  0
   21.4460   26.7180    3.5614 C   0  0  0  0  0  0  0  0  0  0  0  0
   27.1936   24.8419    5.4290 C   0  0  2  0  0  0  0  0  0  0  0  0
   27.5074   23.5931    4.6680 O   0  0  0  0  0  0  0  0  0  0  0  0
   28.3310   26.0427    9.2393 C   0  0  2  0  0  0  0  0  0  0  0  0
   28.2726   27.2401    8.3400 N   0  0  0  0  0  0  0  0  0  0  0  0
   29.2407   18.4146    0.0455 C   0  0  0  0  0  0  0  0  0  0  0  0
   28.6276   17.6969   -1.0148 N   0  0  0  0  0  0  0  0  0  0  0  0
   25.7466   30.3320    7.3846 C   0  0  1  0  0  0  0  0  0  0  0  0
   26.4719   31.4917    7.7629 O   0  0  0  0  0  0  0  0  0  0  0  0
   22.2022   27.9899    4.2544 C   0  0  2  0  0  0  0  0  0  0  0  0
   22.1392   29.1524    3.4142 N   0  0  0  0  0  0  0  0  0  0  0  0
   27.5457   24.9351    6.9257 C   0  0  2  0  0  0  0  0  0  0  0  0
   28.8806   24.6216    7.2950 O   0  0  0  0  0  0  0  0  0  0  0  0
   28.8543   26.4342   10.6542 C   0  0  1  0  0  0  0  0  0  0  0  0
   28.8541   25.1952   11.4493 O   0  0  0  0  0  0  0  0  0  0  0  0
   27.5019   18.1890   -1.7350 C   0  0  0  0  0  0  0  0  0  0  0  0
   25.2661   29.5198    8.6222 C   0  0  2  0  0  0  0  0  0  0  0  0
   26.4159   29.0715    9.4445 O   0  0  0  0  0  0  0  0  0  0  0  0
   23.7165   27.6236    4.5410 C   0  0  2  0  0  0  0  0  0  0  0  0
   26.4818   24.0364    7.6000 C   0  0  1  0  0  0  0  0  0  0  0  0
   30.3517   27.0593   10.5402 C   0  0  2  0  0  0  0  0  0  0  0  0
   30.3598   28.2979    9.7464 O   0  0  0  0  0  0  0  0  0  0  0  0
   26.9484   19.4501   -1.4030 C   0  0  0  0  0  0  0  0  0  0  0  0
   24.4504   28.2503    8.1633 C   0  0  2  0  0  0  0  0  0  0  0  0
   23.3454   28.7531    7.3627 O   0  0  0  0  0  0  0  0  0  0  0  0
   23.7346   26.3544    5.4619 C   0  0  2  0  0  0  0  0  0  0  0  0
   25.1246   26.1278    5.6613 O   0  0  0  0  0  0  0  0  0  0  0  0
   25.9889   24.6118    8.9266 C   0  0  0  0  0  0  0  0  0  0  0  0
   25.5974   23.6632    9.8901 O   0  0  0  0  0  0  0  0  0  0  0  0
   31.3257   25.9858    9.8679 C   0  0  1  0  0  0  0  0  0  0  0  0
   30.7561   25.5989    8.5186 O   0  0  0  0  0  0  0  0  0  0  0  0
   27.5516   20.2382   -0.3032 C   0  0  0  0  0  0  0  0  0  0  0  0
   24.0062   27.5374    9.3718 C   0  0  0  0  0  0  0  0  0  0  0  0
   23.3732   28.3912   10.1861 O   0  0  0  0  0  0  0  0  0  0  0  0
   23.0199   25.1319    4.7463 C   0  0  1  0  0  0  0  0  0  0  0  0
   23.0351   24.0189    5.5785 O   0  0  0  0  0  0  0  0  0  0  0  0
   27.2613   23.3044    3.2354 C   0  0  0  0  0  0  0  0  0  0  0  0
   32.7314   26.6393    9.7753 C   0  0  0  0  0  0  0  0  0  0  0  0
   33.2175   26.9853   11.0878 N   0  0  0  0  0  0  0  0  0  0  0  0
   27.7214   21.8660    2.9774 C   0  0  0  0  0  0  0  0  0  0  0  0
   28.7877   21.8646    1.9240 N   0  0  0  0  0  0  0  0  0  0  0  0
   29.4387   20.4863    1.6297 C   0  0  0  0  0  0  0  0  0  0  0  0
  1  2  1  6  0  0  0
  1  9  1  0  0  0  0
  1 35  1  0  0  0  0
  3  4  1  6  0  0  0
  3 11  1  0  0  0  0
  3 45  1  0  0  0  0
  5  6  1  0  0  0  0
  5 12  1  0  0  0  0
  5 37  1  1  0  0  0
  6 30  1  0  0  0  0
  7 14  1  0  0  0  0
  7 41  1  0  0  0  0
  7 23  1  6  0  0  0
  8 16  2  0  0  0  0
  8 42  1  0  0  0  0
  9 10  1  6  0  0  0
  9 18  1  0  0  0  0
 11 20  1  0  0  0  0
 12 13  1  1  0  0  0
 12 22  1  0  0  0  0
 13 47  1  0  0  0  0
 14 15  1  6  0  0  0
 14 24  1  0  0  0  0
 16 17  1  0  0  0  0
 17 26  2  0  0  0  0
 18 19  1  1  0  0  0
 18 27  1  0  0  0  0
 20 21  1  6  0  0  0
 20 29  1  0  0  0  0
 22 23  1  6  0  0  0
 22 30  1  0  0  0  0
 24 25  1  1  0  0  0
 24 31  1  0  0  0  0
 26 33  1  0  0  0  0
 27 28  1  6  0  0  0
 27 34  1  0  0  0  0
 29  2  1  1  0  0  0
 29 36  1  0  0  0  0
 30 38  1  1  0  0  0
 31 32  1  6  0  0  0
 31 40  1  0  0  0  0
 33 42  2  0  0  0  0
 34 35  1  0  0  0  0
 34 43  1  1  0  0  0
 36 37  1  6  0  0  0
 36 45  1  0  0  0  0
 38 39  1  0  0  0  0
 40 41  1  0  0  0  0
 40 48  1  6  0  0  0
 43 44  1  0  0  0  0
 45 46  1  1  0  0  0
 47 50  1  0  0  0  0
 48 49  1  0  0  0  0
 50 51  1  0  0  0  0
 51 52  1  0  0  0  0
 52  8  1  0  0  0  0
M  END
>  <CHROM.1>
-174.58827224,-75.84430954,-15.78765468,71.80703175,-177.94053864,166.18640951
40.03994956,94.53767341,52.35418154,-134.76660307,60.37247799,-120.92191373
175.34372730,92.79352038,179.28061667,26.48876543,25.58548723,6.12401470
1.65666964,-0.50256857,0.82198688

>  <Name>
2be0_lig

>  <RI>
2.57068e+07

>  <Rbt.Current_Directory>
/home/itssahil/PROJECTS/Mol_Feturizer/New_Systems/rnas/2be0

>  <Rbt.Executable>
rbdock ($Id: //depot/dev/client3/rdock/2013.1/src/exe/rbdock.cxx#4 $)

>  <Rbt.Library>
libRbt.so (2013.1, Build901 2013/11/27)

>  <Rbt.Parameter_File>
/export/apps/rDock/src/rDock_2013.1_src/data/scripts/dock_solv.prm

>  <Rbt.Receptor>
prm/blind_docking_60.prm

>  <SCORE>
21.9131

>  <SCORE.INTER>
2.73012

>  <SCORE.INTER.CONST>
1

>  <SCORE.INTER.POLAR>
-0.767032

>  <SCORE.INTER.ROT>
15

>  <SCORE.INTER.SOLV>
25.9451

>  <SCORE.INTER.VDW>
-17.8715

>  <SCORE.INTER.norm>
0.0525023

>  <SCORE.INTRA>
-0.878499

>  <SCORE.INTRA.DIHEDRAL>
-20.1655

>  <SCORE.INTRA.DIHEDRAL.0>
47.8724

>  <SCORE.INTRA.POLAR>
0

>  <SCORE.INTRA.POLAR.0>
0

>  <SCORE.INTRA.REPUL>
0

>  <SCORE.INTRA.REPUL.0>
0

>  <SCORE.INTRA.SOLV>
2.09577

>  <SCORE.INTRA.SOLV.lig_0>
-115.677

>  <SCORE.INTRA.VDW>
8.15634

>  <SCORE.INTRA.VDW.0>
-7.4833

>  <SCORE.INTRA.norm>
-0.0168942

>  <SCORE.RESTR>
20.0615

>  <SCORE.RESTR.CAVITY>
20.0615

>  <SCORE.RESTR.norm>
0.385798

>  <SCORE.SYSTEM>
0

>  <SCORE.SYSTEM.CONST>
0

>  <SCORE.SYSTEM.DIHEDRAL>
0

>  <SCORE.SYSTEM.SOLV>
0

>  <SCORE.SYSTEM.norm>
0

>  <SCORE.heavy>
52

>  <SCORE.norm>
0.421407

>  <RMSD>
29.558

$$$$
2be0_lig
 OpenBabel11021811423D
libRbt.so/2013.1/901 2013/11/27
 52 56  0  0  0  0  0  0  0  0999 V2000
   28.3674   23.3178    3.2240 C   0  0  2  0  0  0  0  0  0  0  0  0
   27.4927   24.4165    3.1203 O   0  0  0  0  0  0  0  0  0  0  0  0
   23.4616   25.5812    4.4484 C   0  0  2  0  0  0  0  0  0  0  0  0
   22.1304   25.4927    5.1114 N   0  0  0  0  0  0  0  0  0  0  0  0
   27.2275   26.3710    6.7628 C   0  0  2  0  0  0  0  0  0  0  0  0
   28.5921   26.7954    6.9583 O   0  0  0  0  0  0  0  0  0  0  0  0
   29.5160   24.5359   10.4111 C   0  0  1  0  0  0  0  0  0  0  0  0
   24.2510   31.0376    6.0393 C   0  0  0  0  0  0  0  0  0  0  0  0
   29.5815   23.4546    2.2176 C   0  0  2  0  0  0  0  0  0  0  0  0
   30.2535   24.7393    2.4235 N   0  0  0  0  0  0  0  0  0  0  0  0
   23.6291   24.3502    3.4460 C   0  0  0  0  0  0  0  0  0  0  0  0
   26.7747   25.7159    8.0774 C   0  0  2  0  0  0  0  0  0  0  0  0
   26.3144   26.8739    8.9046 O   0  0  0  0  0  0  0  0  0  0  0  0
   29.3217   23.9355   11.9088 C   0  0  2  0  0  0  0  0  0  0  0  0
   28.3500   24.8017   12.6512 N   0  0  0  0  0  0  0  0  0  0  0  0
   23.3594   31.5296    5.0305 C   0  0  0  0  0  0  0  0  0  0  0  0
   23.4945   32.8629    4.5621 N   0  0  0  0  0  0  0  0  0  0  0  0
   29.0568   23.2877    0.7167 C   0  0  1  0  0  0  0  0  0  0  0  0
   30.1577   23.4210   -0.1689 O   0  0  0  0  0  0  0  0  0  0  0  0
   25.0855   24.4026    2.7071 C   0  0  2  0  0  0  0  0  0  0  0  0
   25.2479   23.3012    1.8005 N   0  0  0  0  0  0  0  0  0  0  0  0
   28.0827   24.9878    8.4405 C   0  0  2  0  0  0  0  0  0  0  0  0
   28.2220   24.5423    9.7817 O   0  0  0  0  0  0  0  0  0  0  0  0
   30.7144   23.9352   12.6083 C   0  0  1  0  0  0  0  0  0  0  0  0
   31.5749   23.0473   11.8092 O   0  0  0  0  0  0  0  0  0  0  0  0
   24.4872   33.7594    5.0508 C   0  0  0  0  0  0  0  0  0  0  0  0
   28.3711   21.8969    0.5835 C   0  0  2  0  0  0  0  0  0  0  0  0
   27.8584   21.6851   -0.7918 O   0  0  0  0  0  0  0  0  0  0  0  0
   26.2396   24.3717    3.7918 C   0  0  2  0  0  0  0  0  0  0  0  0
   29.1811   25.9816    7.9934 C   0  0  1  0  0  0  0  0  0  0  0  0
   31.3131   25.4468   12.6565 C   0  0  2  0  0  0  0  0  0  0  0  0
   30.4579   26.3401   13.4533 O   0  0  0  0  0  0  0  0  0  0  0  0
   25.3973   33.3289    6.0474 C   0  0  0  0  0  0  0  0  0  0  0  0
   27.1655   21.7797    1.5936 C   0  0  2  0  0  0  0  0  0  0  0  0
   27.7292   21.9994    2.9160 O   0  0  0  0  0  0  0  0  0  0  0  0
   26.0231   25.5908    4.7541 C   0  0  2  0  0  0  0  0  0  0  0  0
   27.1085   25.4713    5.6656 O   0  0  0  0  0  0  0  0  0  0  0  0
   30.3873   25.2773    7.3744 C   0  0  0  0  0  0  0  0  0  0  0  0
   30.1521   24.6474    6.1378 O   0  0  0  0  0  0  0  0  0  0  0  0
   31.4418   26.0149   11.1686 C   0  0  1  0  0  0  0  0  0  0  0  0
   30.0784   25.9534   10.5113 O   0  0  0  0  0  0  0  0  0  0  0  0
   25.2976   31.9464    6.5700 C   0  0  0  0  0  0  0  0  0  0  0  0
   26.5732   20.4416    1.4369 C   0  0  0  0  0  0  0  0  0  0  0  0
   25.3612   20.4208    2.0056 O   0  0  0  0  0  0  0  0  0  0  0  0
   24.6140   25.4920    5.4766 C   0  0  1  0  0  0  0  0  0  0  0  0
   24.4330   26.5839    6.3172 O   0  0  0  0  0  0  0  0  0  0  0  0
   26.8652   28.2492    8.9463 C   0  0  0  0  0  0  0  0  0  0  0  0
   32.0052   27.4579   11.2778 C   0  0  0  0  0  0  0  0  0  0  0  0
   31.2840   28.2101   12.2742 N   0  0  0  0  0  0  0  0  0  0  0  0
   25.7531   29.1969    8.4854 C   0  0  0  0  0  0  0  0  0  0  0  0
   25.4009   28.8968    7.0597 N   0  0  0  0  0  0  0  0  0  0  0  0
   24.0758   29.5244    6.5493 C   0  0  0  0  0  0  0  0  0  0  0  0
  1  2  1  6  0  0  0
  1  9  1  0  0  0  0
  1 35  1  0  0  0  0
  3  4  1  1  0  0  0
  3 11  1  0  0  0  0
  3 45  1  0  0  0  0
  5  6  1  0  0  0  0
  5 12  1  0  0  0  0
  5 37  1  6  0  0  0
  6 30  1  0  0  0  0
  7 14  1  0  0  0  0
  7 41  1  0  0  0  0
  7 23  1  1  0  0  0
  8 16  2  0  0  0  0
  8 42  1  0  0  0  0
  9 10  1  6  0  0  0
  9 18  1  0  0  0  0
 11 20  1  0  0  0  0
 12 13  1  1  0  0  0
 12 22  1  0  0  0  0
 13 47  1  0  0  0  0
 14 15  1  1  0  0  0
 14 24  1  0  0  0  0
 16 17  1  0  0  0  0
 17 26  2  0  0  0  0
 18 19  1  6  0  0  0
 18 27  1  0  0  0  0
 20 21  1  6  0  0  0
 20 29  1  0  0  0  0
 22 23  1  1  0  0  0
 22 30  1  0  0  0  0
 24 25  1  6  0  0  0
 24 31  1  0  0  0  0
 26 33  1  0  0  0  0
 27 28  1  6  0  0  0
 27 34  1  0  0  0  0
 29  2  1  6  0  0  0
 29 36  1  0  0  0  0
 30 38  1  6  0  0  0
 31 32  1  1  0  0  0
 31 40  1  0  0  0  0
 33 42  2  0  0  0  0
 34 35  1  0  0  0  0
 34 43  1  1  0  0  0
 36 37  1  1  0  0  0
 36 45  1  0  0  0  0
 38 39  1  0  0  0  0
 40 41  1  0  0  0  0
 40 48  1  1  0  0  0
 43 44  1  0  0  0  0
 45 46  1  1  0  0  0
 47 50  1  0  0  0  0
 48 49  1  0  0  0  0
 50 51  1  0  0  0  0
 51 52  1  0  0  0  0
 52  8  1  0  0  0  0
M  END
>  <CHROM.1>
170.25195449,-138.15495335,-178.44144362,-34.91729347,118.05766439,-146.26711210
-116.02041585,-48.53339118,-164.05514566,-176.56219959,-47.72479665,-63.76050563
165.88038359,84.34531296,152.02936761,27.45102175,25.75073531,6.31344790
-1.99597595,-0.86473440,0.89653867

>  <Name>
2be0_lig

>  <RI>
2.57068e+07

>  <Rbt.Current_Directory>
/home/itssahil/PROJECTS/Mol_Feturizer/New_Systems/rnas/2be0

>  <Rbt.Executable>
rbdock ($Id: //depot/dev/client3/rdock/2013.1/src/exe/rbdock.cxx#4 $)

>  <Rbt.Library>
libRbt.so (2013.1, Build901 2013/11/27)

>  <Rbt.Parameter_File>
/export/apps/rDock/src/rDock_2013.1_src/data/scripts/dock_solv.prm

>  <Rbt.Receptor>
prm/blind_docking_60.prm

>  <SCORE>
84.0338

>  <SCORE.INTER>
64.4768

>  <SCORE.INTER.CONST>
1

>  <SCORE.INTER.POLAR>
-2.20969

>  <SCORE.INTER.ROT>
15

>  <SCORE.INTER.SOLV>
34.7222

>  <SCORE.INTER.VDW>
25.1761

>  <SCORE.INTER.norm>
1.23994

>  <SCORE.INTRA>
1.5088

>  <SCORE.INTRA.DIHEDRAL>
-16.9979

>  <SCORE.INTRA.DIHEDRAL.0>
47.8724

>  <SCORE.INTRA.POLAR>
0

>  <SCORE.INTRA.POLAR.0>
0

>  <SCORE.INTRA.REPUL>
0

>  <SCORE.INTRA.REPUL.0>
0

>  <SCORE.INTRA.SOLV>
6.38503

>  <SCORE.INTRA.SOLV.lig_0>
-115.677

>  <SCORE.INTRA.VDW>
6.81524

>  <SCORE.INTRA.VDW.0>
-7.4833

>  <SCORE.INTRA.norm>
0.0290154

>  <SCORE.RESTR>
18.0482

>  <SCORE.RESTR.CAVITY>
18.0482

>  <SCORE.RESTR.norm>
0.347081

>  <SCORE.SYSTEM>
0

>  <SCORE.SYSTEM.CONST>
0

>  <SCORE.SYSTEM.DIHEDRAL>
0

>  <SCORE.SYSTEM.SOLV>
0

>  <SCORE.SYSTEM.norm>
0

>  <SCORE.heavy>
52

>  <SCORE.norm>
1.61604

>  <RMSD>
29.568

$$$$
2be0_lig
 OpenBabel11021811423D
libRbt.so/2013.1/901 2013/11/27
 52 56  0  0  0  0  0  0  0  0999 V2000
   29.0482   24.6001    8.1044 C   0  0  2  0  0  0  0  0  0  0  0  0
   28.2631   25.5289    7.3947 O   0  0  0  0  0  0  0  0  0  0  0  0
   24.4959   25.5133    9.6705 C   0  0  2  0  0  0  0  0  0  0  0  0
   23.0462   25.6782    9.9714 N   0  0  0  0  0  0  0  0  0  0  0  0
   26.0800   23.6341    5.8854 C   0  0  2  0  0  0  0  0  0  0  0  0
   25.4871   22.4697    5.2747 O   0  0  0  0  0  0  0  0  0  0  0  0
   28.5319   23.5708    2.4123 C   0  0  1  0  0  0  0  0  0  0  0  0
   24.5309   29.1786    6.3319 C   0  0  0  0  0  0  0  0  0  0  0  0
   28.4339   24.3031    9.5328 C   0  0  2  0  0  0  0  0  0  0  0  0
   27.0384   23.8813    9.3940 N   0  0  0  0  0  0  0  0  0  0  0  0
   25.0792   26.8989    9.1338 C   0  0  0  0  0  0  0  0  0  0  0  0
   27.2436   24.0659    4.9787 C   0  0  2  0  0  0  0  0  0  0  0  0
   26.5827   24.9225    3.9458 O   0  0  0  0  0  0  0  0  0  0  0  0
   27.3047   23.1142    1.4495 C   0  0  2  0  0  0  0  0  0  0  0  0
   27.5988   21.7465    0.9123 N   0  0  0  0  0  0  0  0  0  0  0  0
   25.2778   30.2566    5.7532 C   0  0  0  0  0  0  0  0  0  0  0  0
   25.2133   31.5493    6.3361 N   0  0  0  0  0  0  0  0  0  0  0  0
   28.5782   25.5977   10.4596 C   0  0  1  0  0  0  0  0  0  0  0  0
   28.0155   25.3134   11.7311 O   0  0  0  0  0  0  0  0  0  0  0  0
   26.6675   26.7565    8.7778 C   0  0  2  0  0  0  0  0  0  0  0  0
   27.2051   27.9974    8.2958 N   0  0  0  0  0  0  0  0  0  0  0  0
   27.7715   22.6712    4.5926 C   0  0  2  0  0  0  0  0  0  0  0  0
   28.6335   22.5967    3.4666 O   0  0  0  0  0  0  0  0  0  0  0  0
   27.1914   24.1537    0.2938 C   0  0  1  0  0  0  0  0  0  0  0  0
   26.8876   25.4453    0.9318 O   0  0  0  0  0  0  0  0  0  0  0  0
   24.4291   31.8421    7.4882 C   0  0  0  0  0  0  0  0  0  0  0  0
   30.0865   25.9670   10.5630 C   0  0  2  0  0  0  0  0  0  0  0  0
   30.2842   27.1677   11.4107 O   0  0  0  0  0  0  0  0  0  0  0  0
   26.8741   25.6285    7.6849 C   0  0  2  0  0  0  0  0  0  0  0  0
   26.4822   21.8274    4.4513 C   0  0  1  0  0  0  0  0  0  0  0  0
   28.5905   24.2212   -0.5330 C   0  0  2  0  0  0  0  0  0  0  0  0
   28.9009   22.9334   -1.1732 O   0  0  0  0  0  0  0  0  0  0  0  0
   23.6706   30.8165    8.1044 C   0  0  0  0  0  0  0  0  0  0  0  0
   30.6802   26.2586    9.1312 C   0  0  2  0  0  0  0  0  0  0  0  0
   30.4535   25.0524    8.3512 O   0  0  0  0  0  0  0  0  0  0  0  0
   26.2765   24.2957    8.2556 C   0  0  2  0  0  0  0  0  0  0  0  0
   26.5260   23.3638    7.2103 O   0  0  0  0  0  0  0  0  0  0  0  0
   26.6539   20.4067    4.9861 C   0  0  0  0  0  0  0  0  0  0  0  0
   26.0215   20.1417    6.2154 O   0  0  0  0  0  0  0  0  0  0  0  0
   29.7754   24.6252    0.4598 C   0  0  1  0  0  0  0  0  0  0  0  0
   29.8195   23.6178    1.5903 O   0  0  0  0  0  0  0  0  0  0  0  0
   23.7034   29.4499    7.5338 C   0  0  0  0  0  0  0  0  0  0  0  0
   32.1076   26.5795    9.2907 C   0  0  0  0  0  0  0  0  0  0  0  0
   32.5868   27.0667    8.1392 O   0  0  0  0  0  0  0  0  0  0  0  0
   24.7283   24.4605    8.5610 C   0  0  1  0  0  0  0  0  0  0  0  0
   24.2163   23.2752    9.0753 O   0  0  0  0  0  0  0  0  0  0  0  0
   25.1564   25.3145    3.8538 C   0  0  0  0  0  0  0  0  0  0  0  0
   31.0816   24.6627   -0.3792 C   0  0  0  0  0  0  0  0  0  0  0  0
   32.2365   24.7167    0.4822 N   0  0  0  0  0  0  0  0  0  0  0  0
   25.1143   26.7475    3.3133 C   0  0  0  0  0  0  0  0  0  0  0  0
   25.5312   27.7003    4.3928 N   0  0  0  0  0  0  0  0  0  0  0  0
   24.6239   27.7261    5.6522 C   0  0  0  0  0  0  0  0  0  0  0  0
  1  2  1  1  0  0  0
  1  9  1  0  0  0  0
  1 35  1  0  0  0  0
  3  4  1  6  0  0  0
  3 11  1  0  0  0  0
  3 45  1  0  0  0  0
  5  6  1  0  0  0  0
  5 12  1  0  0  0  0
  5 37  1  1  0  0  0
  6 30  1  0  0  0  0
  7 14  1  0  0  0  0
  7 41  1  0  0  0  0
  7 23  1  1  0  0  0
  8 16  2  0  0  0  0
  8 42  1  0  0  0  0
  9 10  1  6  0  0  0
  9 18  1  0  0  0  0
 11 20  1  0  0  0  0
 12 13  1  6  0  0  0
 12 22  1  0  0  0  0
 13 47  1  0  0  0  0
 14 15  1  6  0  0  0
 14 24  1  0  0  0  0
 16 17  1  0  0  0  0
 17 26  2  0  0  0  0
 18 19  1  1  0  0  0
 18 27  1  0  0  0  0
 20 21  1  6  0  0  0
 20 29  1  0  0  0  0
 22 23  1  6  0  0  0
 22 30  1  0  0  0  0
 24 25  1  1  0  0  0
 24 31  1  0  0  0  0
 26 33  1  0  0  0  0
 27 28  1  1  0  0  0
 27 34  1  0  0  0  0
 29  2  1  1  0  0  0
 29 36  1  0  0  0  0
 30 38  1  1  0  0  0
 31 32  1  1  0  0  0
 31 40  1  0  0  0  0
 33 42  2  0  0  0  0
 34 35  1  0  0  0  0
 34 43  1  1  0  0  0
 36 37  1  6  0  0  0
 36 45  1  0  0  0  0
 38 39  1  0  0  0  0
 40 41  1  0  0  0  0
 40 48  1  6  0  0  0
 43 44  1  0  0  0  0
 45 46  1  1  0  0  0
 47 50  1  0  0  0  0
 48 49  1  0  0  0  0
 50 51  1  0  0  0  0
 51 52  1  0  0  0  0
 52  8  1  0  0  0  0
M  END
>  <CHROM.1>
-26.75706975,-136.45446856,-81.40837149,2.56732447,144.19615873,-27.72737304
92.73984801,-10.03833635,-168.84664915,-54.16092910,-166.86606315,-74.37537511
-62.05963288,-146.76931292,-1.05888644,27.29084962,25.27274867,5.93546085
-1.86440190,0.79756423,-1.77500037

>  <Name>
2be0_lig

>  <RI>
2.57068e+07

>  <Rbt.Current_Directory>
/home/itssahil/PROJECTS/Mol_Feturizer/New_Systems/rnas/2be0

>  <Rbt.Executable>
rbdock ($Id: //depot/dev/client3/rdock/2013.1/src/exe/rbdock.cxx#4 $)

>  <Rbt.Library>
libRbt.so (2013.1, Build901 2013/11/27)

>  <Rbt.Parameter_File>
/export/apps/rDock/src/rDock_2013.1_src/data/scripts/dock_solv.prm

>  <Rbt.Receptor>
prm/blind_docking_60.prm

>  <SCORE>
113.471

>  <SCORE.INTER>
58.4054

>  <SCORE.INTER.CONST>
1

>  <SCORE.INTER.POLAR>
-1.8301

>  <SCORE.INTER.ROT>
15

>  <SCORE.INTER.SOLV>
31.5087

>  <SCORE.INTER.VDW>
20.9343

>  <SCORE.INTER.norm>
1.12318

>  <SCORE.INTRA>
35.9278

>  <SCORE.INTRA.DIHEDRAL>
-7.8147

>  <SCORE.INTRA.DIHEDRAL.0>
47.8724

>  <SCORE.INTRA.POLAR>
0

>  <SCORE.INTRA.POLAR.0>
0

>  <SCORE.INTRA.REPUL>
0

>  <SCORE.INTRA.REPUL.0>
0

>  <SCORE.INTRA.SOLV>
10.1493

>  <SCORE.INTRA.SOLV.lig_0>
-115.677

>  <SCORE.INTRA.VDW>
34.7605

>  <SCORE.INTRA.VDW.0>
-7.4833

>  <SCORE.INTRA.norm>
0.690919

>  <SCORE.RESTR>
19.138

>  <SCORE.RESTR.CAVITY>
19.138

>  <SCORE.RESTR.norm>
0.368038

>  <SCORE.SYSTEM>
0

>  <SCORE.SYSTEM.CONST>
0

>  <SCORE.SYSTEM.DIHEDRAL>
0

>  <SCORE.SYSTEM.SOLV>
0

>  <SCORE.SYSTEM.norm>
0

>  <SCORE.heavy>
52

>  <SCORE.norm>
2.18214

>  <RMSD>
29.609

$$$$
2be0_lig
 OpenBabel11021811423D
libRbt.so/2013.1/901 2013/11/27
 52 56  0  0  0  0  0  0  0  0999 V2000
   24.8748   27.3922    7.9156 C   0  0  2  0  0  0  0  0  0  0  0  0
   23.7743   26.8366    7.2353 O   0  0  0  0  0  0  0  0  0  0  0  0
   23.0397   24.1312    3.8423 C   0  0  2  0  0  0  0  0  0  0  0  0
   23.2686   23.4017    2.5636 N   0  0  0  0  0  0  0  0  0  0  0  0
   26.0725   23.6827    6.8726 C   0  0  2  0  0  0  0  0  0  0  0  0
   26.6657   22.9462    7.9617 O   0  0  0  0  0  0  0  0  0  0  0  0
   29.2575   26.4593    9.1565 C   0  0  1  0  0  0  0  0  0  0  0  0
   27.7447   23.8223   -0.0770 C   0  0  0  0  0  0  0  0  0  0  0  0
   24.4135   28.1633    9.2188 C   0  0  2  0  0  0  0  0  0  0  0  0
   23.6114   27.2747   10.0624 N   0  0  0  0  0  0  0  0  0  0  0  0
   23.1636   25.7007    3.5781 C   0  0  0  0  0  0  0  0  0  0  0  0
   27.0895   24.7587    6.4597 C   0  0  2  0  0  0  0  0  0  0  0  0
   27.9906   24.0404    5.5061 O   0  0  0  0  0  0  0  0  0  0  0  0
   30.6688   27.2115    8.8671 C   0  0  2  0  0  0  0  0  0  0  0  0
   31.6583   26.2018    8.3702 N   0  0  0  0  0  0  0  0  0  0  0  0
   27.9129   22.4551   -0.4739 C   0  0  0  0  0  0  0  0  0  0  0  0
   27.0376   21.8899   -1.4380 N   0  0  0  0  0  0  0  0  0  0  0  0
   23.6103   29.4827    8.8065 C   0  0  1  0  0  0  0  0  0  0  0  0
   23.1997   30.1544    9.9873 O   0  0  0  0  0  0  0  0  0  0  0  0
   22.9325   26.5381    4.9619 C   0  0  2  0  0  0  0  0  0  0  0  0
   23.0393   27.9522    4.7372 N   0  0  0  0  0  0  0  0  0  0  0  0
   27.6063   25.1436    7.8588 C   0  0  2  0  0  0  0  0  0  0  0  0
   28.8301   25.8614    7.9194 O   0  0  0  0  0  0  0  0  0  0  0  0
   31.1514   27.8532   10.2029 C   0  0  1  0  0  0  0  0  0  0  0  0
   30.1195   28.8313   10.5848 O   0  0  0  0  0  0  0  0  0  0  0  0
   25.9770   22.6210   -2.0452 C   0  0  0  0  0  0  0  0  0  0  0  0
   24.5365   30.3716    7.9266 C   0  0  2  0  0  0  0  0  0  0  0  0
   23.8425   31.6135    7.5082 O   0  0  0  0  0  0  0  0  0  0  0  0
   23.9987   26.0909    6.0449 C   0  0  2  0  0  0  0  0  0  0  0  0
   27.6342   23.7932    8.6136 C   0  0  1  0  0  0  0  0  0  0  0  0
   31.3228   26.7045   11.3418 C   0  0  2  0  0  0  0  0  0  0  0  0
   32.3525   25.7230   10.9667 O   0  0  0  0  0  0  0  0  0  0  0  0
   25.7628   23.9765   -1.6934 C   0  0  0  0  0  0  0  0  0  0  0  0
   24.9856   29.5865    6.6345 C   0  0  2  0  0  0  0  0  0  0  0  0
   25.6526   28.3844    7.1088 O   0  0  0  0  0  0  0  0  0  0  0  0
   23.8424   24.5453    6.2587 C   0  0  2  0  0  0  0  0  0  0  0  0
   24.8262   24.2613    7.2460 O   0  0  0  0  0  0  0  0  0  0  0  0
   27.1966   23.9309   10.0709 C   0  0  0  0  0  0  0  0  0  0  0  0
   27.0498   22.7216   10.7761 O   0  0  0  0  0  0  0  0  0  0  0  0
   29.9262   25.9594   11.5592 C   0  0  1  0  0  0  0  0  0  0  0  0
   29.4721   25.3927   10.2298 O   0  0  0  0  0  0  0  0  0  0  0  0
   26.6487   24.6126   -0.6911 C   0  0  0  0  0  0  0  0  0  0  0  0
   25.8726   30.4663    5.8566 C   0  0  0  0  0  0  0  0  0  0  0  0
   25.1504   31.4431    5.2936 O   0  0  0  0  0  0  0  0  0  0  0  0
   24.1030   23.7622    4.9036 C   0  0  1  0  0  0  0  0  0  0  0  0
   23.9508   22.3959    5.1072 O   0  0  0  0  0  0  0  0  0  0  0  0
   27.6236   23.0582    4.4588 C   0  0  0  0  0  0  0  0  0  0  0  0
   30.1529   24.8716   12.6440 C   0  0  0  0  0  0  0  0  0  0  0  0
   30.5837   25.4718   13.8821 N   0  0  0  0  0  0  0  0  0  0  0  0
   28.6091   23.2417    3.3001 C   0  0  0  0  0  0  0  0  0  0  0  0
   28.1771   24.4033    2.4571 N   0  0  0  0  0  0  0  0  0  0  0  0
   28.7506   24.4358    1.0148 C   0  0  0  0  0  0  0  0  0  0  0  0
  1  2  1  6  0  0  0
  1  9  1  0  0  0  0
  1 35  1  0  0  0  0
  3  4  1  6  0  0  0
  3 11  1  0  0  0  0
  3 45  1  0  0  0  0
  5  6  1  0  0  0  0
  5 12  1  0  0  0  0
  5 37  1  1  0  0  0
  6 30  1  0  0  0  0
  7 14  1  0  0  0  0
  7 41  1  0  0  0  0
  7 23  1  6  0  0  0
  8 16  2  0  0  0  0
  8 42  1  0  0  0  0
  9 10  1  1  0  0  0
  9 18  1  0  0  0  0
 11 20  1  0  0  0  0
 12 13  1  6  0  0  0
 12 22  1  0  0  0  0
 13 47  1  0  0  0  0
 14 15  1  1  0  0  0
 14 24  1  0  0  0  0
 16 17  1  0  0  0  0
 17 26  2  0  0  0  0
 18 19  1  1  0  0  0
 18 27  1  0  0  0  0
 20 21  1  6  0  0  0
 20 29  1  0  0  0  0
 22 23  1  6  0  0  0
 22 30  1  0  0  0  0
 24 25  1  1  0  0  0
 24 31  1  0  0  0  0
 26 33  1  0  0  0  0
 27 28  1  6  0  0  0
 27 34  1  0  0  0  0
 29  2  1  1  0  0  0
 29 36  1  0  0  0  0
 30 38  1  1  0  0  0
 31 32  1  6  0  0  0
 31 40  1  0  0  0  0
 33 42  2  0  0  0  0
 34 35  1  0  0  0  0
 34 43  1  1  0  0  0
 36 37  1  1  0  0  0
 36 45  1  0  0  0  0
 38 39  1  0  0  0  0
 40 41  1  0  0  0  0
 40 48  1  1  0  0  0
 43 44  1  0  0  0  0
 45 46  1  1  0  0  0
 47 50  1  0  0  0  0
 48 49  1  0  0  0  0
 50 51  1  0  0  0  0
 51 52  1  0  0  0  0
 52  8  1  0  0  0  0
M  END
>  <CHROM.1>
-179.26890528,-154.48976134,-179.15855427,40.21692575,147.00323223,169.01246437
-135.45026163,56.73177544,-72.17947245,-101.32215759,60.39388448,-80.84844180
-159.95797003,96.72615341,-96.59314318,26.67195653,25.83643552,6.57786384
1.22263167,-0.61269779,1.05029335

>  <Name>
2be0_lig

>  <RI>
2.57068e+07

>  <Rbt.Current_Directory>
/home/itssahil/PROJECTS/Mol_Feturizer/New_Systems/rnas/2be0

>  <Rbt.Executable>
rbdock ($Id: //depot/dev/client3/rdock/2013.1/src/exe/rbdock.cxx#4 $)

>  <Rbt.Library>
libRbt.so (2013.1, Build901 2013/11/27)

>  <Rbt.Parameter_File>
/export/apps/rDock/src/rDock_2013.1_src/data/scripts/dock_solv.prm

>  <Rbt.Receptor>
prm/blind_docking_60.prm

>  <SCORE>
-4.45391

>  <SCORE.INTER>
-14.2762

>  <SCORE.INTER.CONST>
1

>  <SCORE.INTER.POLAR>
-1.27615

>  <SCORE.INTER.ROT>
15

>  <SCORE.INTER.SOLV>
29.6439

>  <SCORE.INTER.VDW>
-28.7449

>  <SCORE.INTER.norm>
-0.274542

>  <SCORE.INTRA>
-9.00255

>  <SCORE.INTRA.DIHEDRAL>
-22.7498

>  <SCORE.INTRA.DIHEDRAL.0>
47.8724

>  <SCORE.INTRA.POLAR>
0

>  <SCORE.INTRA.POLAR.0>
0

>  <SCORE.INTRA.REPUL>
0

>  <SCORE.INTRA.REPUL.0>
0

>  <SCORE.INTRA.SOLV>
-1.14393

>  <SCORE.INTRA.SOLV.lig_0>
-115.677

>  <SCORE.INTRA.VDW>
2.94434

>  <SCORE.INTRA.VDW.0>
-7.4833

>  <SCORE.INTRA.norm>
-0.173126

>  <SCORE.RESTR>
18.8248

>  <SCORE.RESTR.CAVITY>
18.8248

>  <SCORE.RESTR.norm>
0.362016

>  <SCORE.SYSTEM>
0

>  <SCORE.SYSTEM.CONST>
0

>  <SCORE.SYSTEM.DIHEDRAL>
0

>  <SCORE.SYSTEM.SOLV>
0

>  <SCORE.SYSTEM.norm>
0

>  <SCORE.heavy>
52

>  <SCORE.norm>
-0.085652

>  <RMSD>
29.795

$$$$
2be0_lig
 OpenBabel11021811423D
libRbt.so/2013.1/901 2013/11/27
 52 56  0  0  0  0  0  0  0  0999 V2000
   28.0462   24.4733    9.0895 C   0  0  2  0  0  0  0  0  0  0  0  0
   26.7815   25.0163    9.3871 O   0  0  0  0  0  0  0  0  0  0  0  0
   24.0632   21.6208   10.0593 C   0  0  2  0  0  0  0  0  0  0  0  0
   22.8289   20.7884   10.0029 N   0  0  0  0  0  0  0  0  0  0  0  0
   25.6219   23.3083    6.3415 C   0  0  2  0  0  0  0  0  0  0  0  0
   24.7991   22.1646    6.0330 O   0  0  0  0  0  0  0  0  0  0  0  0
   27.3627   23.2005    2.4169 C   0  0  1  0  0  0  0  0  0  0  0  0
   24.8436   30.2736    5.5694 C   0  0  0  0  0  0  0  0  0  0  0  0
   28.6298   23.6701   10.3224 C   0  0  2  0  0  0  0  0  0  0  0  0
   27.6636   22.6592   10.7573 N   0  0  0  0  0  0  0  0  0  0  0  0
   23.7050   23.0447   10.6858 C   0  0  0  0  0  0  0  0  0  0  0  0
   26.4136   23.6413    5.0668 C   0  0  2  0  0  0  0  0  0  0  0  0
   25.4739   24.5056    4.2875 O   0  0  0  0  0  0  0  0  0  0  0  0
   26.2479   23.1974    1.2343 C   0  0  2  0  0  0  0  0  0  0  0  0
   26.3785   21.9245    0.4544 N   0  0  0  0  0  0  0  0  0  0  0  0
   25.4874   30.6637    6.7893 C   0  0  0  0  0  0  0  0  0  0  0  0
   25.1517   31.9019    7.3969 N   0  0  0  0  0  0  0  0  0  0  0  0
   29.0021   24.6868   11.4986 C   0  0  1  0  0  0  0  0  0  0  0  0
   29.5156   23.9471   12.5955 O   0  0  0  0  0  0  0  0  0  0  0  0
   25.0323   23.9954   10.7523 C   0  0  2  0  0  0  0  0  0  0  0  0
   24.7239   25.2792   11.3164 N   0  0  0  0  0  0  0  0  0  0  0  0
   26.7072   22.2062    4.5902 C   0  0  2  0  0  0  0  0  0  0  0  0
   27.1163   22.0461    3.2399 O   0  0  0  0  0  0  0  0  0  0  0  0
   26.5109   24.4362    0.3259 C   0  0  1  0  0  0  0  0  0  0  0  0
   26.3410   25.6192    1.1857 O   0  0  0  0  0  0  0  0  0  0  0  0
   24.1909   32.7991    6.8490 C   0  0  0  0  0  0  0  0  0  0  0  0
   30.0384   25.7135   10.9562 C   0  0  2  0  0  0  0  0  0  0  0  0
   30.4209   26.6894   12.0052 O   0  0  0  0  0  0  0  0  0  0  0  0
   25.6309   24.1848    9.2979 C   0  0  2  0  0  0  0  0  0  0  0  0
   25.4120   21.4388    4.9475 C   0  0  1  0  0  0  0  0  0  0  0  0
   28.0158   24.3667   -0.2876 C   0  0  2  0  0  0  0  0  0  0  0  0
   28.1931   23.1865   -1.1479 O   0  0  0  0  0  0  0  0  0  0  0  0
   23.5213   32.4668    5.6456 C   0  0  0  0  0  0  0  0  0  0  0  0
   29.4394   26.5027    9.7291 C   0  0  2  0  0  0  0  0  0  0  0  0
   29.0823   25.4961    8.7422 O   0  0  0  0  0  0  0  0  0  0  0  0
   25.9543   22.7610    8.7257 C   0  0  2  0  0  0  0  0  0  0  0  0
   26.4902   23.0507    7.4403 O   0  0  0  0  0  0  0  0  0  0  0  0
   25.6934   20.0267    5.4583 C   0  0  0  0  0  0  0  0  0  0  0  0
   26.8851   19.8741    6.1916 O   0  0  0  0  0  0  0  0  0  0  0  0
   29.0753   24.3225    0.9076 C   0  0  1  0  0  0  0  0  0  0  0  0
   28.7548   23.1337    1.7899 O   0  0  0  0  0  0  0  0  0  0  0  0
   23.8368   31.1859    4.9719 C   0  0  0  0  0  0  0  0  0  0  0  0
   30.4681   27.4389    9.2482 C   0  0  0  0  0  0  0  0  0  0  0  0
   30.8347   28.2510   10.2476 O   0  0  0  0  0  0  0  0  0  0  0  0
   24.6396   21.8762    8.6466 C   0  0  1  0  0  0  0  0  0  0  0  0
   24.9444   20.6154    8.1478 O   0  0  0  0  0  0  0  0  0  0  0  0
   25.1310   25.9290    4.5171 C   0  0  0  0  0  0  0  0  0  0  0  0
   30.4866   24.2458    0.2643 C   0  0  0  0  0  0  0  0  0  0  0  0
   31.4781   23.9085    1.2552 N   0  0  0  0  0  0  0  0  0  0  0  0
   26.2567   26.5359    5.3608 C   0  0  0  0  0  0  0  0  0  0  0  0
   25.8020   27.8452    5.9315 N   0  0  0  0  0  0  0  0  0  0  0  0
   25.2421   28.8664    4.9049 C   0  0  0  0  0  0  0  0  0  0  0  0
  1  2  1  1  0  0  0
  1  9  1  0  0  0  0
  1 35  1  0  0  0  0
  3  4  1  6  0  0  0
  3 11  1  0  0  0  0
  3 45  1  0  0  0  0
  5  6  1  0  0  0  0
  5 12  1  0  0  0  0
  5 37  1  1  0  0  0
  6 30  1  0  0  0  0
  7 14  1  0  0  0  0
  7 41  1  0  0  0  0
  7 23  1  1  0  0  0
  8 16  2  0  0  0  0
  8 42  1  0  0  0  0
  9 10  1  1  0  0  0
  9 18  1  0  0  0  0
 11 20  1  0  0  0  0
 12 13  1  6  0  0  0
 12 22  1  0  0  0  0
 13 47  1  0  0  0  0
 14 15  1  6  0  0  0
 14 24  1  0  0  0  0
 16 17  1  0  0  0  0
 17 26  2  0  0  0  0
 18 19  1  1  0  0  0
 18 27  1  0  0  0  0
 20 21  1  6  0  0  0
 20 29  1  0  0  0  0
 22 23  1  6  0  0  0
 22 30  1  0  0  0  0
 24 25  1  1  0  0  0
 24 31  1  0  0  0  0
 26 33  1  0  0  0  0
 27 28  1  1  0  0  0
 27 34  1  0  0  0  0
 29  2  1  1  0  0  0
 29 36  1  0  0  0  0
 30 38  1  1  0  0  0
 31 32  1  1  0  0  0
 31 40  1  0  0  0  0
 33 42  2  0  0  0  0
 34 35  1  0  0  0  0
 34 43  1  6  0  0  0
 36 37  1  6  0  0  0
 36 45  1  0  0  0  0
 38 39  1  0  0  0  0
 40 41  1  0  0  0  0
 40 48  1  6  0  0  0
 43 44  1  0  0  0  0
 45 46  1  1  0  0  0
 47 50  1  0  0  0  0
 48 49  1  0  0  0  0
 50 51  1  0  0  0  0
 51 52  1  0  0  0  0
 52  8  1  0  0  0  0
M  END
>  <CHROM.1>
-81.07608640,-62.58336551,-114.72118205,76.01891113,20.37823582,5.84376671
113.66919523,-83.13020806,-57.39336455,-81.75663890,-167.39500744,-164.90392371
-52.94332673,-177.04300169,24.71162588,26.78197589,24.76599140,6.38883544
-2.00726254,1.51710089,-1.32545683

>  <Name>
2be0_lig

>  <RI>
2.57068e+07

>  <Rbt.Current_Directory>
/home/itssahil/PROJECTS/Mol_Feturizer/New_Systems/rnas/2be0

>  <Rbt.Executable>
rbdock ($Id: //depot/dev/client3/rdock/2013.1/src/exe/rbdock.cxx#4 $)

>  <Rbt.Library>
libRbt.so (2013.1, Build901 2013/11/27)

>  <Rbt.Parameter_File>
/export/apps/rDock/src/rDock_2013.1_src/data/scripts/dock_solv.prm

>  <Rbt.Receptor>
prm/blind_docking_60.prm

>  <SCORE>
28.3319

>  <SCORE.INTER>
-6.54308

>  <SCORE.INTER.CONST>
1

>  <SCORE.INTER.POLAR>
-1.32375

>  <SCORE.INTER.ROT>
15

>  <SCORE.INTER.SOLV>
35.6382

>  <SCORE.INTER.VDW>
-25.429

>  <SCORE.INTER.norm>
-0.125829

>  <SCORE.INTRA>
5.58832

>  <SCORE.INTRA.DIHEDRAL>
-11.97

>  <SCORE.INTRA.DIHEDRAL.0>
47.8724

>  <SCORE.INTRA.POLAR>
0

>  <SCORE.INTRA.POLAR.0>
0

>  <SCORE.INTRA.REPUL>
0

>  <SCORE.INTRA.REPUL.0>
0

>  <SCORE.INTRA.SOLV>
2.62227

>  <SCORE.INTRA.SOLV.lig_0>
-115.677

>  <SCORE.INTRA.VDW>
10.2622

>  <SCORE.INTRA.VDW.0>
-7.4833

>  <SCORE.INTRA.norm>
0.107468

>  <SCORE.RESTR>
29.2867

>  <SCORE.RESTR.CAVITY>
29.2867

>  <SCORE.RESTR.norm>
0.563206

>  <SCORE.SYSTEM>
0

>  <SCORE.SYSTEM.CONST>
0

>  <SCORE.SYSTEM.DIHEDRAL>
0

>  <SCORE.SYSTEM.SOLV>
0

>  <SCORE.SYSTEM.norm>
0

>  <SCORE.heavy>
52

>  <SCORE.norm>
0.544845

>  <RMSD>
29.876

$$$$
2be0_lig
 OpenBabel11021811423D
libRbt.so/2013.1/901 2013/11/27
 52 56  0  0  0  0  0  0  0  0999 V2000
   28.7957   24.2372   11.0983 C   0  0  2  0  0  0  0  0  0  0  0  0
   27.4912   24.3811   11.6087 O   0  0  0  0  0  0  0  0  0  0  0  0
   24.0160   22.6568    9.5301 C   0  0  2  0  0  0  0  0  0  0  0  0
   22.8232   22.5685    8.6419 N   0  0  0  0  0  0  0  0  0  0  0  0
   27.6872   23.7982    7.6140 C   0  0  2  0  0  0  0  0  0  0  0  0
   28.9631   24.2669    7.1316 O   0  0  0  0  0  0  0  0  0  0  0  0
   26.0980   28.1097    7.9317 C   0  0  1  0  0  0  0  0  0  0  0  0
   29.2980   23.1288    1.6008 C   0  0  0  0  0  0  0  0  0  0  0  0
   29.8445   24.0084   12.2617 C   0  0  2  0  0  0  0  0  0  0  0  0
   29.4276   22.8738   13.0885 N   0  0  0  0  0  0  0  0  0  0  0  0
   23.7898   23.8247   10.5945 C   0  0  0  0  0  0  0  0  0  0  0  0
   26.6736   24.9232    7.3504 C   0  0  2  0  0  0  0  0  0  0  0  0
   26.2465   24.6846    5.9369 O   0  0  0  0  0  0  0  0  0  0  0  0
   24.7511   27.2046    7.8438 C   0  0  2  0  0  0  0  0  0  0  0  0
   24.4012   27.0027    6.4007 N   0  0  0  0  0  0  0  0  0  0  0  0
   28.5346   22.1605    2.3320 C   0  0  0  0  0  0  0  0  0  0  0  0
   28.8890   20.7877    2.2627 N   0  0  0  0  0  0  0  0  0  0  0  0
   29.9971   25.3492   13.1190 C   0  0  1  0  0  0  0  0  0  0  0  0
   30.9346   25.1209   14.1597 O   0  0  0  0  0  0  0  0  0  0  0  0
   25.0848   23.9641   11.5812 C   0  0  2  0  0  0  0  0  0  0  0  0
   24.8928   25.0105   12.5454 N   0  0  0  0  0  0  0  0  0  0  0  0
   27.5692   26.1307    7.6859 C   0  0  2  0  0  0  0  0  0  0  0  0
   27.1350   27.4028    7.2278 O   0  0  0  0  0  0  0  0  0  0  0  0
   23.6143   27.9650    8.5911 C   0  0  1  0  0  0  0  0  0  0  0  0
   24.0553   28.0909    9.9900 O   0  0  0  0  0  0  0  0  0  0  0  0
   29.9838   20.3077    1.4888 C   0  0  0  0  0  0  0  0  0  0  0  0
   30.4531   26.4949   12.1694 C   0  0  2  0  0  0  0  0  0  0  0  0
   30.6087   27.7704   12.9098 O   0  0  0  0  0  0  0  0  0  0  0  0
   26.3832   24.2635   10.7245 C   0  0  2  0  0  0  0  0  0  0  0  0
   28.9556   25.7093    7.1433 C   0  0  1  0  0  0  0  0  0  0  0  0
   23.3834   29.4257    7.9137 C   0  0  2  0  0  0  0  0  0  0  0  0
   22.9427   29.3076    6.5151 O   0  0  0  0  0  0  0  0  0  0  0  0
   30.7753   21.2180    0.7459 C   0  0  0  0  0  0  0  0  0  0  0  0
   29.3966   26.7072   11.0178 C   0  0  2  0  0  0  0  0  0  0  0  0
   29.2865   25.4277   10.3354 O   0  0  0  0  0  0  0  0  0  0  0  0
   26.5530   23.0962    9.6912 C   0  0  2  0  0  0  0  0  0  0  0  0
   27.7397   23.4590    8.9959 O   0  0  0  0  0  0  0  0  0  0  0  0
   30.0980   26.1536    8.0552 C   0  0  0  0  0  0  0  0  0  0  0  0
   31.2663   25.3714    7.9875 O   0  0  0  0  0  0  0  0  0  0  0  0
   24.7432   30.2621    7.9782 C   0  0  1  0  0  0  0  0  0  0  0  0
   25.8295   29.4673    7.2831 O   0  0  0  0  0  0  0  0  0  0  0  0
   30.4461   22.6617    0.7843 C   0  0  0  0  0  0  0  0  0  0  0  0
   29.8908   27.7834   10.1439 C   0  0  0  0  0  0  0  0  0  0  0  0
   28.8519   28.4205    9.5895 O   0  0  0  0  0  0  0  0  0  0  0  0
   25.2929   23.0092    8.7309 C   0  0  1  0  0  0  0  0  0  0  0  0
   25.4539   21.9644    7.8287 O   0  0  0  0  0  0  0  0  0  0  0  0
   26.6673   25.4109    4.7154 C   0  0  0  0  0  0  0  0  0  0  0  0
   24.4664   31.6363    7.3101 C   0  0  0  0  0  0  0  0  0  0  0  0
   24.1597   31.4679    5.9114 N   0  0  0  0  0  0  0  0  0  0  0  0
   27.5257   24.4479    3.8888 C   0  0  0  0  0  0  0  0  0  0  0  0
   27.5387   24.8942    2.4580 N   0  0  0  0  0  0  0  0  0  0  0  0
   28.8752   24.6754    1.6989 C   0  0  0  0  0  0  0  0  0  0  0  0
  1  2  1  1  0  0  0
  1  9  1  0  0  0  0
  1 35  1  0  0  0  0
  3  4  1  6  0  0  0
  3 11  1  0  0  0  0
  3 45  1  0  0  0  0
  5  6  1  0  0  0  0
  5 12  1  0  0  0  0
  5 37  1  1  0  0  0
  6 30  1  0  0  0  0
  7 14  1  0  0  0  0
  7 41  1  0  0  0  0
  7 23  1  6  0  0  0
  8 16  2  0  0  0  0
  8 42  1  0  0  0  0
  9 10  1  1  0  0  0
  9 18  1  0  0  0  0
 11 20  1  0  0  0  0
 12 13  1  6  0  0  0
 12 22  1  0  0  0  0
 13 47  1  0  0  0  0
 14 15  1  6  0  0  0
 14 24  1  0  0  0  0
 16 17  1  0  0  0  0
 17 26  2  0  0  0  0
 18 19  1  1  0  0  0
 18 27  1  0  0  0  0
 20 21  1  1  0  0  0
 20 29  1  0  0  0  0
 22 23  1  6  0  0  0
 22 30  1  0  0  0  0
 24 25  1  1  0  0  0
 24 31  1  0  0  0  0
 26 33  1  0  0  0  0
 27 28  1  1  0  0  0
 27 34  1  0  0  0  0
 29  2  1  1  0  0  0
 29 36  1  0  0  0  0
 30 38  1  1  0  0  0
 31 32  1  6  0  0  0
 31 40  1  0  0  0  0
 33 42  2  0  0  0  0
 34 35  1  0  0  0  0
 34 43  1  6  0  0  0
 36 37  1  6  0  0  0
 36 45  1  0  0  0  0
 38 39  1  0  0  0  0
 40 41  1  0  0  0  0
 40 48  1  6  0  0  0
 43 44  1  0  0  0  0
 45 46  1  6  0  0  0
 47 50  1  0  0  0  0
 48 49  1  0  0  0  0
 50 51  1  0  0  0  0
 51 52  1  0  0  0  0
 52  8  1  0  0  0  0
M  END
>  <CHROM.1>
-164.55972514,174.03756184,-62.78377638,-102.71239596,110.84637784,78.33948740
160.65678220,37.39356562,-150.87840082,-114.26348295,-64.52417051,158.25134002
144.33494507,61.51429752,-7.55982402,27.28606154,25.44015217,7.98379312,-1.78273978
0.81848991,-1.79631363

>  <Name>
2be0_lig

>  <RI>
2.57068e+07

>  <Rbt.Current_Directory>
/home/itssahil/PROJECTS/Mol_Feturizer/New_Systems/rnas/2be0

>  <Rbt.Executable>
rbdock ($Id: //depot/dev/client3/rdock/2013.1/src/exe/rbdock.cxx#4 $)

>  <Rbt.Library>
libRbt.so (2013.1, Build901 2013/11/27)

>  <Rbt.Parameter_File>
/export/apps/rDock/src/rDock_2013.1_src/data/scripts/dock_solv.prm

>  <Rbt.Receptor>
prm/blind_docking_60.prm

>  <SCORE>
92.7523

>  <SCORE.INTER>
70.8716

>  <SCORE.INTER.CONST>
1

>  <SCORE.INTER.POLAR>
-0.809006

>  <SCORE.INTER.ROT>
15

>  <SCORE.INTER.SOLV>
38.6607

>  <SCORE.INTER.VDW>
23.4575

>  <SCORE.INTER.norm>
1.36291

>  <SCORE.INTRA>
7.64779

>  <SCORE.INTRA.DIHEDRAL>
-16.6025

>  <SCORE.INTRA.DIHEDRAL.0>
47.8724

>  <SCORE.INTRA.POLAR>
0

>  <SCORE.INTRA.POLAR.0>
0

>  <SCORE.INTRA.REPUL>
0

>  <SCORE.INTRA.REPUL.0>
0

>  <SCORE.INTRA.SOLV>
2.46031

>  <SCORE.INTRA.SOLV.lig_0>
-115.677

>  <SCORE.INTRA.VDW>
14.7189

>  <SCORE.INTRA.VDW.0>
-7.4833

>  <SCORE.INTRA.norm>
0.147073

>  <SCORE.RESTR>
14.2329

>  <SCORE.RESTR.CAVITY>
14.2329

>  <SCORE.RESTR.norm>
0.273711

>  <SCORE.SYSTEM>
0

>  <SCORE.SYSTEM.CONST>
0

>  <SCORE.SYSTEM.DIHEDRAL>
0

>  <SCORE.SYSTEM.SOLV>
0

>  <SCORE.SYSTEM.norm>
0

>  <SCORE.heavy>
52

>  <SCORE.norm>
1.7837

>  <RMSD>
29.893

$$$$
2be0_lig
 OpenBabel11021811423D
libRbt.so/2013.1/901 2013/11/27
 52 56  0  0  0  0  0  0  0  0999 V2000
   28.7920   26.3628   10.0418 C   0  0  2  0  0  0  0  0  0  0  0  0
   28.6861   25.1527    9.3295 O   0  0  0  0  0  0  0  0  0  0  0  0
   25.7792   21.8517    9.4837 C   0  0  2  0  0  0  0  0  0  0  0  0
   24.4665   21.1484    9.5253 N   0  0  0  0  0  0  0  0  0  0  0  0
   26.3859   24.5635    6.1918 C   0  0  2  0  0  0  0  0  0  0  0  0
   25.8044   23.4085    5.5527 O   0  0  0  0  0  0  0  0  0  0  0  0
   28.5169   24.5412    1.8860 C   0  0  1  0  0  0  0  0  0  0  0  0
   24.8632   31.9817    6.0761 C   0  0  0  0  0  0  0  0  0  0  0  0
   29.7463   27.3839    9.2986 C   0  0  2  0  0  0  0  0  0  0  0  0
   29.2921   27.5725    7.9192 N   0  0  0  0  0  0  0  0  0  0  0  0
   25.8605   22.8792   10.7027 C   0  0  0  0  0  0  0  0  0  0  0  0
   26.7751   25.5408    5.0712 C   0  0  2  0  0  0  0  0  0  0  0  0
   25.5113   26.2981    4.8132 O   0  0  0  0  0  0  0  0  0  0  0  0
   28.0271   24.5690    0.3366 C   0  0  2  0  0  0  0  0  0  0  0  0
   26.8489   23.6548    0.1888 N   0  0  0  0  0  0  0  0  0  0  0  0
   24.8383   32.5844    7.3764 C   0  0  0  0  0  0  0  0  0  0  0  0
   24.1924   33.8352    7.5596 N   0  0  0  0  0  0  0  0  0  0  0  0
   31.2540   26.8563    9.3651 C   0  0  1  0  0  0  0  0  0  0  0  0
   32.0910   27.7807    8.6876 O   0  0  0  0  0  0  0  0  0  0  0  0
   27.2829   23.6831   10.6849 C   0  0  2  0  0  0  0  0  0  0  0  0
   27.3696   24.6095   11.7783 N   0  0  0  0  0  0  0  0  0  0  0  0
   27.2814   24.5206    4.0341 C   0  0  2  0  0  0  0  0  0  0  0  0
   27.4064   24.9716    2.6934 O   0  0  0  0  0  0  0  0  0  0  0  0
   29.2168   24.0915   -0.5497 C   0  0  1  0  0  0  0  0  0  0  0  0
   30.3018   25.0639   -0.3390 O   0  0  0  0  0  0  0  0  0  0  0  0
   23.5551   34.5412    6.4996 C   0  0  0  0  0  0  0  0  0  0  0  0
   31.6574   26.6969   10.8598 C   0  0  2  0  0  0  0  0  0  0  0  0
   33.0504   26.2044   10.9862 O   0  0  0  0  0  0  0  0  0  0  0  0
   27.4423   24.4626    9.3150 C   0  0  2  0  0  0  0  0  0  0  0  0
   26.3128   23.3261    4.2053 C   0  0  1  0  0  0  0  0  0  0  0  0
   29.6747   22.5947   -0.1071 C   0  0  2  0  0  0  0  0  0  0  0  0
   28.5949   21.6173   -0.3146 O   0  0  0  0  0  0  0  0  0  0  0  0
   23.5465   33.9943    5.1928 C   0  0  0  0  0  0  0  0  0  0  0  0
   30.6957   25.6771   11.5827 C   0  0  2  0  0  0  0  0  0  0  0  0
   29.3526   26.2110   11.4213 O   0  0  0  0  0  0  0  0  0  0  0  0
   27.3446   23.4128    8.1543 C   0  0  2  0  0  0  0  0  0  0  0  0
   27.5118   24.2122    6.9896 O   0  0  0  0  0  0  0  0  0  0  0  0
   27.0212   21.9785    4.0779 C   0  0  0  0  0  0  0  0  0  0  0  0
   27.4720   21.4145    5.2862 O   0  0  0  0  0  0  0  0  0  0  0  0
   30.1009   22.6032    1.4328 C   0  0  1  0  0  0  0  0  0  0  0  0
   28.9345   23.1171    2.2513 O   0  0  0  0  0  0  0  0  0  0  0  0
   24.2079   32.6914    4.9492 C   0  0  0  0  0  0  0  0  0  0  0  0
   31.1114   25.5849   12.9915 C   0  0  0  0  0  0  0  0  0  0  0  0
   32.2639   24.9082   13.0732 O   0  0  0  0  0  0  0  0  0  0  0  0
   25.9410   22.6736    8.1831 C   0  0  1  0  0  0  0  0  0  0  0  0
   25.8740   21.7401    7.1556 O   0  0  0  0  0  0  0  0  0  0  0  0
   24.6285   26.9728    5.7940 C   0  0  0  0  0  0  0  0  0  0  0  0
   30.5155   21.1524    1.8000 C   0  0  0  0  0  0  0  0  0  0  0  0
   31.9209   20.9480    1.5513 N   0  0  0  0  0  0  0  0  0  0  0  0
   25.4638   28.0545    6.4864 C   0  0  0  0  0  0  0  0  0  0  0  0
   24.7480   29.3687    6.4006 N   0  0  0  0  0  0  0  0  0  0  0  0
   25.6000   30.5654    5.8985 C   0  0  0  0  0  0  0  0  0  0  0  0
  1  2  1  6  0  0  0
  1  9  1  0  0  0  0
  1 35  1  0  0  0  0
  3  4  1  6  0  0  0
  3 11  1  0  0  0  0
  3 45  1  0  0  0  0
  5  6  1  0  0  0  0
  5 12  1  0  0  0  0
  5 37  1  6  0  0  0
  6 30  1  0  0  0  0
  7 14  1  0  0  0  0
  7 41  1  0  0  0  0
  7 23  1  1  0  0  0
  8 16  2  0  0  0  0
  8 42  1  0  0  0  0
  9 10  1  6  0  0  0
  9 18  1  0  0  0  0
 11 20  1  0  0  0  0
 12 13  1  6  0  0  0
 12 22  1  0  0  0  0
 13 47  1  0  0  0  0
 14 15  1  1  0  0  0
 14 24  1  0  0  0  0
 16 17  1  0  0  0  0
 17 26  2  0  0  0  0
 18 19  1  1  0  0  0
 18 27  1  0  0  0  0
 20 21  1  1  0  0  0
 20 29  1  0  0  0  0
 22 23  1  6  0  0  0
 22 30  1  0  0  0  0
 24 25  1  1  0  0  0
 24 31  1  0  0  0  0
 26 33  1  0  0  0  0
 27 28  1  6  0  0  0
 27 34  1  0  0  0  0
 29  2  1  1  0  0  0
 29 36  1  0  0  0  0
 30 38  1  1  0  0  0
 31 32  1  1  0  0  0
 31 40  1  0  0  0  0
 33 42  2  0  0  0  0
 34 35  1  0  0  0  0
 34 43  1  1  0  0  0
 36 37  1  6  0  0  0
 36 45  1  0  0  0  0
 38 39  1  0  0  0  0
 40 41  1  0  0  0  0
 40 48  1  1  0  0  0
 43 44  1  0  0  0  0
 45 46  1  6  0  0  0
 47 50  1  0  0  0  0
 48 49  1  0  0  0  0
 50 51  1  0  0  0  0
 51 52  1  0  0  0  0
 52  8  1  0  0  0  0
M  END
>  <CHROM.1>
-144.04323850,-66.42320661,152.11474716,50.18564039,60.92245384,141.32324487
-78.70293057,-23.53419943,-72.32532851,-102.80718730,89.33273290,127.40560013
-130.60854719,-169.72229730,78.09115147,27.76634663,25.53228784,6.34353425
-1.77510185,1.07539821,-1.99499771

>  <Name>
2be0_lig

>  <RI>
2.57068e+07

>  <Rbt.Current_Directory>
/home/itssahil/PROJECTS/Mol_Feturizer/New_Systems/rnas/2be0

>  <Rbt.Executable>
rbdock ($Id: //depot/dev/client3/rdock/2013.1/src/exe/rbdock.cxx#4 $)

>  <Rbt.Library>
libRbt.so (2013.1, Build901 2013/11/27)

>  <Rbt.Parameter_File>
/export/apps/rDock/src/rDock_2013.1_src/data/scripts/dock_solv.prm

>  <Rbt.Receptor>
prm/blind_docking_60.prm

>  <SCORE>
5.90174

>  <SCORE.INTER>
-10.6369

>  <SCORE.INTER.CONST>
1

>  <SCORE.INTER.POLAR>
-0.861295

>  <SCORE.INTER.ROT>
15

>  <SCORE.INTER.SOLV>
36.8407

>  <SCORE.INTER.VDW>
-30.1005

>  <SCORE.INTER.norm>
-0.204555

>  <SCORE.INTRA>
0.963734

>  <SCORE.INTRA.DIHEDRAL>
-12.4517

>  <SCORE.INTRA.DIHEDRAL.0>
47.8724

>  <SCORE.INTRA.POLAR>
0

>  <SCORE.INTRA.POLAR.0>
0

>  <SCORE.INTRA.REPUL>
0

>  <SCORE.INTRA.REPUL.0>
0

>  <SCORE.INTRA.SOLV>
1.19753

>  <SCORE.INTRA.SOLV.lig_0>
-115.677

>  <SCORE.INTRA.VDW>
6.5908

>  <SCORE.INTRA.VDW.0>
-7.4833

>  <SCORE.INTRA.norm>
0.0185333

>  <SCORE.RESTR>
15.5749

>  <SCORE.RESTR.CAVITY>
15.5749

>  <SCORE.RESTR.norm>
0.299517

>  <SCORE.SYSTEM>
0

>  <SCORE.SYSTEM.CONST>
0

>  <SCORE.SYSTEM.DIHEDRAL>
0

>  <SCORE.SYSTEM.SOLV>
0

>  <SCORE.SYSTEM.norm>
0

>  <SCORE.heavy>
52

>  <SCORE.norm>
0.113495

>  <RMSD>
29.955

$$$$
2be0_lig
 OpenBabel11021811423D
libRbt.so/2013.1/901 2013/11/27
 52 56  0  0  0  0  0  0  0  0999 V2000
   28.7569   26.4387   10.0153 C   0  0  2  0  0  0  0  0  0  0  0  0
   28.5673   25.3672    9.1215 O   0  0  0  0  0  0  0  0  0  0  0  0
   25.7650   22.0018    8.6825 C   0  0  2  0  0  0  0  0  0  0  0  0
   24.5206   21.1944    8.8204 N   0  0  0  0  0  0  0  0  0  0  0  0
   26.6160   25.4872    5.7101 C   0  0  2  0  0  0  0  0  0  0  0  0
   26.9270   26.8155    5.2418 O   0  0  0  0  0  0  0  0  0  0  0  0
   22.4737   27.7867    4.8846 C   0  0  1  0  0  0  0  0  0  0  0  0
   26.2056   22.4929   -1.5068 C   0  0  0  0  0  0  0  0  0  0  0  0
   29.9273   27.3883    9.5315 C   0  0  2  0  0  0  0  0  0  0  0  0
   29.6720   27.8297    8.1587 N   0  0  0  0  0  0  0  0  0  0  0  0
   26.3011   22.3881   10.1356 C   0  0  0  0  0  0  0  0  0  0  0  0
   25.2358   25.1275    5.1372 C   0  0  2  0  0  0  0  0  0  0  0  0
   25.5509   24.5928    3.7762 O   0  0  0  0  0  0  0  0  0  0  0  0
   22.5793   28.9074    3.7124 C   0  0  2  0  0  0  0  0  0  0  0  0
   23.9993   29.3779    3.6241 N   0  0  0  0  0  0  0  0  0  0  0  0
   25.8285   21.2319   -0.9391 C   0  0  0  0  0  0  0  0  0  0  0  0
   25.4124   20.1741   -1.7894 N   0  0  0  0  0  0  0  0  0  0  0  0
   31.3268   26.6270    9.6646 C   0  0  1  0  0  0  0  0  0  0  0  0
   32.3605   27.4916    9.2195 O   0  0  0  0  0  0  0  0  0  0  0  0
   27.6605   23.2883   10.0280 C   0  0  2  0  0  0  0  0  0  0  0  0
   28.1545   23.6407   11.3292 N   0  0  0  0  0  0  0  0  0  0  0  0
   24.5555   26.5020    5.2809 C   0  0  2  0  0  0  0  0  0  0  0  0
   23.3672   26.7148    4.5332 O   0  0  0  0  0  0  0  0  0  0  0  0
   21.6259   30.0822    4.0867 C   0  0  1  0  0  0  0  0  0  0  0  0
   20.2691   29.5123    4.1285 O   0  0  0  0  0  0  0  0  0  0  0  0
   25.3455   20.2991   -3.2064 C   0  0  0  0  0  0  0  0  0  0  0  0
   31.5227   26.2067   11.1503 C   0  0  2  0  0  0  0  0  0  0  0  0
   32.8073   25.4897   11.3363 O   0  0  0  0  0  0  0  0  0  0  0  0
   27.3687   24.6048    9.1966 C   0  0  2  0  0  0  0  0  0  0  0  0
   25.6911   27.4994    4.9496 C   0  0  1  0  0  0  0  0  0  0  0  0
   22.0477   30.7027    5.5299 C   0  0  2  0  0  0  0  0  0  0  0  0
   23.4030   31.2739    5.4957 O   0  0  0  0  0  0  0  0  0  0  0  0
   25.7071   21.5214   -3.8246 C   0  0  0  0  0  0  0  0  0  0  0  0
   30.3476   25.2622   11.6135 C   0  0  2  0  0  0  0  0  0  0  0  0
   29.1221   26.0167   11.4041 O   0  0  0  0  0  0  0  0  0  0  0  0
   26.8364   24.1709    7.7869 C   0  0  2  0  0  0  0  0  0  0  0  0
   26.6233   25.4156    7.1322 O   0  0  0  0  0  0  0  0  0  0  0  0
   25.6503   28.7440    5.8348 C   0  0  0  0  0  0  0  0  0  0  0  0
   25.9086   28.5243    7.2009 O   0  0  0  0  0  0  0  0  0  0  0  0
   21.9769   29.5574    6.6418 C   0  0  1  0  0  0  0  0  0  0  0  0
   22.8796   28.4180    6.2159 O   0  0  0  0  0  0  0  0  0  0  0  0
   26.1475   22.6565   -2.9809 C   0  0  0  0  0  0  0  0  0  0  0  0
   30.5752   24.9172   13.0260 C   0  0  0  0  0  0  0  0  0  0  0  0
   30.7010   26.0398   13.7448 O   0  0  0  0  0  0  0  0  0  0  0  0
   25.5009   23.3258    7.9271 C   0  0  1  0  0  0  0  0  0  0  0  0
   25.0480   22.9404    6.6710 O   0  0  0  0  0  0  0  0  0  0  0  0
   26.6301   23.6555    3.3850 C   0  0  0  0  0  0  0  0  0  0  0  0
   22.3987   30.2027    7.9898 C   0  0  0  0  0  0  0  0  0  0  0  0
   23.8134   30.4806    7.9986 N   0  0  0  0  0  0  0  0  0  0  0  0
   27.1114   24.0745    1.9921 C   0  0  0  0  0  0  0  0  0  0  0  0
   26.2368   23.4432    0.9513 N   0  0  0  0  0  0  0  0  0  0  0  0
   26.6736   23.6715   -0.5208 C   0  0  0  0  0  0  0  0  0  0  0  0
  1  2  1  6  0  0  0
  1  9  1  0  0  0  0
  1 35  1  0  0  0  0
  3  4  1  1  0  0  0
  3 11  1  0  0  0  0
  3 45  1  0  0  0  0
  5  6  1  0  0  0  0
  5 12  1  0  0  0  0
  5 37  1  1  0  0  0
  6 30  1  0  0  0  0
  7 14  1  0  0  0  0
  7 41  1  0  0  0  0
  7 23  1  6  0  0  0
  8 16  2  0  0  0  0
  8 42  1  0  0  0  0
  9 10  1  6  0  0  0
  9 18  1  0  0  0  0
 11 20  1  0  0  0  0
 12 13  1  6  0  0  0
 12 22  1  0  0  0  0
 13 47  1  0  0  0  0
 14 15  1  1  0  0  0
 14 24  1  0  0  0  0
 16 17  1  0  0  0  0
 17 26  2  0  0  0  0
 18 19  1  1  0  0  0
 18 27  1  0  0  0  0
 20 21  1  1  0  0  0
 20 29  1  0  0  0  0
 22 23  1  6  0  0  0
 22 30  1  0  0  0  0
 24 25  1  1  0  0  0
 24 31  1  0  0  0  0
 26 33  1  0  0  0  0
 27 28  1  6  0  0  0
 27 34  1  0  0  0  0
 29  2  1  6  0  0  0
 29 36  1  0  0  0  0
 30 38  1  1  0  0  0
 31 32  1  6  0  0  0
 31 40  1  0  0  0  0
 33 42  2  0  0  0  0
 34 35  1  0  0  0  0
 34 43  1  1  0  0  0
 36 37  1  6  0  0  0
 36 45  1  0  0  0  0
 38 39  1  0  0  0  0
 40 41  1  0  0  0  0
 40 48  1  1  0  0  0
 43 44  1  0  0  0  0
 45 46  1  6  0  0  0
 47 50  1  0  0  0  0
 48 49  1  0  0  0  0
 50 51  1  0  0  0  0
 51 52  1  0  0  0  0
 52  8  1  0  0  0  0
M  END
>  <CHROM.1>
-164.47992060,-156.64173026,109.78508007,43.64315415,-144.75779499,162.21569422
-98.29206656,-50.14331533,54.83472997,156.75107583,-71.70029858,-85.30444764
-174.81220612,152.48885614,-18.25680750,26.32284837,25.77751533,6.15010752
-0.97791957,0.76981604,-2.18347283

>  <Name>
2be0_lig

>  <RI>
2.57068e+07

>  <Rbt.Current_Directory>
/home/itssahil/PROJECTS/Mol_Feturizer/New_Systems/rnas/2be0

>  <Rbt.Executable>
rbdock ($Id: //depot/dev/client3/rdock/2013.1/src/exe/rbdock.cxx#4 $)

>  <Rbt.Library>
libRbt.so (2013.1, Build901 2013/11/27)

>  <Rbt.Parameter_File>
/export/apps/rDock/src/rDock_2013.1_src/data/scripts/dock_solv.prm

>  <Rbt.Receptor>
prm/blind_docking_60.prm

>  <SCORE>
12.5686

>  <SCORE.INTER>
-2.93137

>  <SCORE.INTER.CONST>
1

>  <SCORE.INTER.POLAR>
-0.27867

>  <SCORE.INTER.ROT>
15

>  <SCORE.INTER.SOLV>
31.9464

>  <SCORE.INTER.VDW>
-25.2742

>  <SCORE.INTER.norm>
-0.0563724

>  <SCORE.INTRA>
-1.64826

>  <SCORE.INTRA.DIHEDRAL>
-18.3273

>  <SCORE.INTRA.DIHEDRAL.0>
47.8724

>  <SCORE.INTRA.POLAR>
0

>  <SCORE.INTRA.POLAR.0>
0

>  <SCORE.INTRA.REPUL>
0.0554309

>  <SCORE.INTRA.REPUL.0>
0

>  <SCORE.INTRA.SOLV>
7.33564

>  <SCORE.INTRA.SOLV.lig_0>
-115.677

>  <SCORE.INTRA.VDW>
3.5704

>  <SCORE.INTRA.VDW.0>
-7.4833

>  <SCORE.INTRA.norm>
-0.0316973

>  <SCORE.RESTR>
17.1482

>  <SCORE.RESTR.CAVITY>
17.1482

>  <SCORE.RESTR.norm>
0.329773

>  <SCORE.SYSTEM>
0

>  <SCORE.SYSTEM.CONST>
0

>  <SCORE.SYSTEM.DIHEDRAL>
0

>  <SCORE.SYSTEM.SOLV>
0

>  <SCORE.SYSTEM.norm>
0

>  <SCORE.heavy>
52

>  <SCORE.norm>
0.241703

>  <RMSD>
29.957

$$$$
2be0_lig
 OpenBabel11021811423D
libRbt.so/2013.1/901 2013/11/27
 52 56  0  0  0  0  0  0  0  0999 V2000
   29.1190   25.1460    9.5305 C   0  0  2  0  0  0  0  0  0  0  0  0
   27.7802   25.5244    9.7480 O   0  0  0  0  0  0  0  0  0  0  0  0
   25.7037   21.9201    8.3099 C   0  0  2  0  0  0  0  0  0  0  0  0
   24.5894   21.0262    7.8871 N   0  0  0  0  0  0  0  0  0  0  0  0
   26.7398   25.2453    5.6851 C   0  0  2  0  0  0  0  0  0  0  0  0
   27.0510   26.4883    5.0229 O   0  0  0  0  0  0  0  0  0  0  0  0
   22.8364   28.0428    5.5863 C   0  0  1  0  0  0  0  0  0  0  0  0
   26.8435   22.2513   -1.1701 C   0  0  0  0  0  0  0  0  0  0  0  0
   29.7544   24.5114   10.8340 C   0  0  2  0  0  0  0  0  0  0  0  0
   28.9186   23.4046   11.3042 N   0  0  0  0  0  0  0  0  0  0  0  0
   25.4162   22.4505    9.7878 C   0  0  0  0  0  0  0  0  0  0  0  0
   25.2286   25.0202    5.5171 C   0  0  2  0  0  0  0  0  0  0  0  0
   25.1205   24.3558    4.1814 O   0  0  0  0  0  0  0  0  0  0  0  0
   22.9564   29.0019    4.2798 C   0  0  2  0  0  0  0  0  0  0  0  0
   24.4051   29.1571    3.9292 N   0  0  0  0  0  0  0  0  0  0  0  0
   25.9950   22.9984   -2.0514 C   0  0  0  0  0  0  0  0  0  0  0  0
   25.3394   22.3383   -3.1236 N   0  0  0  0  0  0  0  0  0  0  0  0
   29.9331   25.6421   11.9500 C   0  0  1  0  0  0  0  0  0  0  0  0
   30.4962   25.0519   13.1113 O   0  0  0  0  0  0  0  0  0  0  0  0
   26.6111   23.4482   10.2848 C   0  0  2  0  0  0  0  0  0  0  0  0
   26.3654   23.9307   11.6144 N   0  0  0  0  0  0  0  0  0  0  0  0
   24.7531   26.4752    5.6890 C   0  0  2  0  0  0  0  0  0  0  0  0
   23.4386   26.7807    5.2470 O   0  0  0  0  0  0  0  0  0  0  0  0
   22.3197   30.3788    4.6372 C   0  0  1  0  0  0  0  0  0  0  0  0
   20.9056   30.1095    4.9456 O   0  0  0  0  0  0  0  0  0  0  0  0
   25.4821   20.9446   -3.3793 C   0  0  0  0  0  0  0  0  0  0  0  0
   30.8407   26.7675   11.3739 C   0  0  2  0  0  0  0  0  0  0  0  0
   31.0404   27.8513   12.3662 O   0  0  0  0  0  0  0  0  0  0  0  0
   26.7357   24.6745    9.2897 C   0  0  2  0  0  0  0  0  0  0  0  0
   25.8579   27.2980    4.9842 C   0  0  1  0  0  0  0  0  0  0  0  0
   23.0861   31.0312    5.9150 C   0  0  2  0  0  0  0  0  0  0  0  0
   24.5004   31.3029    5.6142 O   0  0  0  0  0  0  0  0  0  0  0  0
   26.3067   20.1545   -2.5411 C   0  0  0  0  0  0  0  0  0  0  0  0
   30.1916   27.3865   10.0765 C   0  0  2  0  0  0  0  0  0  0  0  0
   30.0186   26.2798    9.1491 O   0  0  0  0  0  0  0  0  0  0  0  0
   27.0061   24.1001    7.8558 C   0  0  2  0  0  0  0  0  0  0  0  0
   27.1115   25.2739    7.0593 O   0  0  0  0  0  0  0  0  0  0  0  0
   26.1769   28.5974    5.7217 C   0  0  0  0  0  0  0  0  0  0  0  0
   26.3355   28.4796    7.1153 O   0  0  0  0  0  0  0  0  0  0  0  0
   22.9850   30.0353    7.1604 C   0  0  1  0  0  0  0  0  0  0  0  0
   23.5709   28.6984    6.7552 O   0  0  0  0  0  0  0  0  0  0  0  0
   27.0137   20.7963   -1.4086 C   0  0  0  0  0  0  0  0  0  0  0  0
   31.1016   28.4253    9.5676 C   0  0  0  0  0  0  0  0  0  0  0  0
   30.9792   29.5302   10.3139 O   0  0  0  0  0  0  0  0  0  0  0  0
   25.8135   23.1615    7.3933 C   0  0  1  0  0  0  0  0  0  0  0  0
   26.0727   22.6527    6.1262 O   0  0  0  0  0  0  0  0  0  0  0  0
   25.6290   24.8341    2.8741 C   0  0  0  0  0  0  0  0  0  0  0  0
   23.7403   30.7029    8.3417 C   0  0  0  0  0  0  0  0  0  0  0  0
   23.1399   31.9703    8.6763 N   0  0  0  0  0  0  0  0  0  0  0  0
   26.1749   23.6136    2.1261 C   0  0  0  0  0  0  0  0  0  0  0  0
   26.6406   24.0306    0.7637 N   0  0  0  0  0  0  0  0  0  0  0  0
   27.5715   23.0240    0.0355 C   0  0  0  0  0  0  0  0  0  0  0  0
  1  2  1  1  0  0  0
  1  9  1  0  0  0  0
  1 35  1  0  0  0  0
  3  4  1  6  0  0  0
  3 11  1  0  0  0  0
  3 45  1  0  0  0  0
  5  6  1  0  0  0  0
  5 12  1  0  0  0  0
  5 37  1  1  0  0  0
  6 30  1  0  0  0  0
  7 14  1  0  0  0  0
  7 41  1  0  0  0  0
  7 23  1  6  0  0  0
  8 16  2  0  0  0  0
  8 42  1  0  0  0  0
  9 10  1  1  0  0  0
  9 18  1  0  0  0  0
 11 20  1  0  0  0  0
 12 13  1  6  0  0  0
 12 22  1  0  0  0  0
 13 47  1  0  0  0  0
 14 15  1  1  0  0  0
 14 24  1  0  0  0  0
 16 17  1  0  0  0  0
 17 26  2  0  0  0  0
 18 19  1  1  0  0  0
 18 27  1  0  0  0  0
 20 21  1  1  0  0  0
 20 29  1  0  0  0  0
 22 23  1  6  0  0  0
 22 30  1  0  0  0  0
 24 25  1  1  0  0  0
 24 31  1  0  0  0  0
 26 33  1  0  0  0  0
 27 28  1  1  0  0  0
 27 34  1  0  0  0  0
 29  2  1  1  0  0  0
 29 36  1  0  0  0  0
 30 38  1  1  0  0  0
 31 32  1  6  0  0  0
 31 40  1  0  0  0  0
 33 42  2  0  0  0  0
 34 35  1  0  0  0  0
 34 43  1  6  0  0  0
 36 37  1  6  0  0  0
 36 45  1  0  0  0  0
 38 39  1  0  0  0  0
 40 41  1  0  0  0  0
 40 48  1  1  0  0  0
 43 44  1  0  0  0  0
 45 46  1  6  0  0  0
 47 50  1  0  0  0  0
 48 49  1  0  0  0  0
 50 51  1  0  0  0  0
 51 52  1  0  0  0  0
 52  8  1  0  0  0  0
M  END
>  <CHROM.1>
-100.18150656,-173.92504923,101.13353101,-55.43741416,140.77354182,168.86360918
76.63969136,-70.21509056,-77.16722294,-150.48927462,60.22903324,177.14963190
163.51048149,106.66800601,42.82760708,26.35873730,25.88267497,6.27548158
-1.13733743,0.89975775,-2.23476715

>  <Name>
2be0_lig

>  <RI>
2.57068e+07

>  <Rbt.Current_Directory>
/home/itssahil/PROJECTS/Mol_Feturizer/New_Systems/rnas/2be0

>  <Rbt.Executable>
rbdock ($Id: //depot/dev/client3/rdock/2013.1/src/exe/rbdock.cxx#4 $)

>  <Rbt.Library>
libRbt.so (2013.1, Build901 2013/11/27)

>  <Rbt.Parameter_File>
/export/apps/rDock/src/rDock_2013.1_src/data/scripts/dock_solv.prm

>  <Rbt.Receptor>
prm/blind_docking_60.prm

>  <SCORE>
34.9876

>  <SCORE.INTER>
15.1284

>  <SCORE.INTER.CONST>
1

>  <SCORE.INTER.POLAR>
-0.164443

>  <SCORE.INTER.ROT>
15

>  <SCORE.INTER.SOLV>
33.3679

>  <SCORE.INTER.VDW>
-14.0889

>  <SCORE.INTER.norm>
0.290931

>  <SCORE.INTRA>
4.92873

>  <SCORE.INTRA.DIHEDRAL>
-22.0799

>  <SCORE.INTRA.DIHEDRAL.0>
47.8724

>  <SCORE.INTRA.POLAR>
0

>  <SCORE.INTRA.POLAR.0>
0

>  <SCORE.INTRA.REPUL>
0

>  <SCORE.INTRA.REPUL.0>
0

>  <SCORE.INTRA.SOLV>
7.00281

>  <SCORE.INTRA.SOLV.lig_0>
-115.677

>  <SCORE.INTRA.VDW>
12.4673

>  <SCORE.INTRA.VDW.0>
-7.4833

>  <SCORE.INTRA.norm>
0.0947833

>  <SCORE.RESTR>
14.9304

>  <SCORE.RESTR.CAVITY>
14.9304

>  <SCORE.RESTR.norm>
0.287124

>  <SCORE.SYSTEM>
0

>  <SCORE.SYSTEM.CONST>
0

>  <SCORE.SYSTEM.DIHEDRAL>
0

>  <SCORE.SYSTEM.SOLV>
0

>  <SCORE.SYSTEM.norm>
0

>  <SCORE.heavy>
52

>  <SCORE.norm>
0.672838

>  <RMSD>
30.000

$$$$
2be0_lig
 OpenBabel11021811423D
libRbt.so/2013.1/901 2013/11/27
 52 56  0  0  0  0  0  0  0  0999 V2000
   26.3571   25.7602    7.8290 C   0  0  2  0  0  0  0  0  0  0  0  0
   27.1042   25.4786    6.6691 O   0  0  0  0  0  0  0  0  0  0  0  0
   27.3794   22.0606    3.9101 C   0  0  2  0  0  0  0  0  0  0  0  0
   26.9552   20.8943    3.0858 N   0  0  0  0  0  0  0  0  0  0  0  0
   25.0729   25.8277    3.8064 C   0  0  2  0  0  0  0  0  0  0  0  0
   24.6011   27.1488    3.4710 O   0  0  0  0  0  0  0  0  0  0  0  0
   23.6583   27.9813    7.8669 C   0  0  1  0  0  0  0  0  0  0  0  0
   24.6001   22.4133   -0.6854 C   0  0  0  0  0  0  0  0  0  0  0  0
   26.7759   27.1516    8.4570 C   0  0  2  0  0  0  0  0  0  0  0  0
   26.6730   28.2036    7.4435 N   0  0  0  0  0  0  0  0  0  0  0  0
   26.9599   21.8070    5.4293 C   0  0  0  0  0  0  0  0  0  0  0  0
   24.3453   25.4112    5.0946 C   0  0  2  0  0  0  0  0  0  0  0  0
   23.0537   24.8429    4.5984 O   0  0  0  0  0  0  0  0  0  0  0  0
   22.3007   28.0939    8.7533 C   0  0  2  0  0  0  0  0  0  0  0  0
   21.1519   28.3883    7.8372 N   0  0  0  0  0  0  0  0  0  0  0  0
   25.2842   23.5531   -1.2217 C   0  0  0  0  0  0  0  0  0  0  0  0
   25.9577   23.4475   -2.4667 N   0  0  0  0  0  0  0  0  0  0  0  0
   28.2521   27.0457    9.0616 C   0  0  1  0  0  0  0  0  0  0  0  0
   28.6108   28.3037    9.6120 O   0  0  0  0  0  0  0  0  0  0  0  0
   27.3958   23.0726    6.3665 C   0  0  2  0  0  0  0  0  0  0  0  0
   27.0259   22.8558    7.7367 N   0  0  0  0  0  0  0  0  0  0  0  0
   24.3551   26.7698    5.8205 C   0  0  2  0  0  0  0  0  0  0  0  0
   23.4580   26.9252    6.9103 O   0  0  0  0  0  0  0  0  0  0  0  0
   22.4979   29.2443    9.7862 C   0  0  1  0  0  0  0  0  0  0  0  0
   23.6315   28.8433   10.6357 O   0  0  0  0  0  0  0  0  0  0  0  0
   25.9941   22.2451   -3.2289 C   0  0  0  0  0  0  0  0  0  0  0  0
   28.2682   25.9181   10.1342 C   0  0  2  0  0  0  0  0  0  0  0  0
   29.6178   25.7693   10.7306 O   0  0  0  0  0  0  0  0  0  0  0  0
   26.7085   24.3970    5.8344 C   0  0  2  0  0  0  0  0  0  0  0  0
   24.1334   27.7879    4.6766 C   0  0  1  0  0  0  0  0  0  0  0  0
   22.8089   30.6403    9.0114 C   0  0  2  0  0  0  0  0  0  0  0  0
   21.6803   31.0472    8.1599 O   0  0  0  0  0  0  0  0  0  0  0  0
   25.3350   21.0861   -2.7500 C   0  0  0  0  0  0  0  0  0  0  0  0
   27.8481   24.5411    9.4901 C   0  0  2  0  0  0  0  0  0  0  0  0
   26.5260   24.7522    8.9225 O   0  0  0  0  0  0  0  0  0  0  0  0
   27.1429   24.5931    4.3404 C   0  0  2  0  0  0  0  0  0  0  0  0
   26.4864   25.8012    3.9759 O   0  0  0  0  0  0  0  0  0  0  0  0
   24.9626   29.0582    4.8582 C   0  0  0  0  0  0  0  0  0  0  0  0
   26.2869   28.9896    4.3861 O   0  0  0  0  0  0  0  0  0  0  0  0
   24.1213   30.4700    8.1161 C   0  0  1  0  0  0  0  0  0  0  0  0
   23.9047   29.3143    7.1611 O   0  0  0  0  0  0  0  0  0  0  0  0
   24.6183   21.1443   -1.4550 C   0  0  0  0  0  0  0  0  0  0  0  0
   27.8610   23.5227   10.5525 C   0  0  0  0  0  0  0  0  0  0  0  0
   27.0037   22.5424   10.2413 O   0  0  0  0  0  0  0  0  0  0  0  0
   26.6777   23.3619    3.4545 C   0  0  1  0  0  0  0  0  0  0  0  0
   27.0788   23.5458    2.1366 O   0  0  0  0  0  0  0  0  0  0  0  0
   22.8438   23.8280    3.5390 C   0  0  0  0  0  0  0  0  0  0  0  0
   24.3612   31.8243    7.3950 C   0  0  0  0  0  0  0  0  0  0  0  0
   25.6861   31.8696    6.8282 N   0  0  0  0  0  0  0  0  0  0  0  0
   23.0447   24.5305    2.1923 C   0  0  0  0  0  0  0  0  0  0  0  0
   24.1831   23.8875    1.4593 N   0  0  0  0  0  0  0  0  0  0  0  0
   23.8452   22.5622    0.7248 C   0  0  0  0  0  0  0  0  0  0  0  0
  1  2  1  6  0  0  0
  1  9  1  0  0  0  0
  1 35  1  0  0  0  0
  3  4  1  6  0  0  0
  3 11  1  0  0  0  0
  3 45  1  0  0  0  0
  5  6  1  0  0  0  0
  5 12  1  0  0  0  0
  5 37  1  1  0  0  0
  6 30  1  0  0  0  0
  7 14  1  0  0  0  0
  7 41  1  0  0  0  0
  7 23  1  6  0  0  0
  8 16  2  0  0  0  0
  8 42  1  0  0  0  0
  9 10  1  6  0  0  0
  9 18  1  0  0  0  0
 11 20  1  0  0  0  0
 12 13  1  6  0  0  0
 12 22  1  0  0  0  0
 13 47  1  0  0  0  0
 14 15  1  6  0  0  0
 14 24  1  0  0  0  0
 16 17  1  0  0  0  0
 17 26  2  0  0  0  0
 18 19  1  1  0  0  0
 18 27  1  0  0  0  0
 20 21  1  1  0  0  0
 20 29  1  0  0  0  0
 22 23  1  1  0  0  0
 22 30  1  0  0  0  0
 24 25  1  1  0  0  0
 24 31  1  0  0  0  0
 26 33  1  0  0  0  0
 27 28  1  6  0  0  0
 27 34  1  0  0  0  0
 29  2  1  1  0  0  0
 29 36  1  0  0  0  0
 30 38  1  1  0  0  0
 31 32  1  6  0  0  0
 31 40  1  0  0  0  0
 33 42  2  0  0  0  0
 34 35  1  0  0  0  0
 34 43  1  1  0  0  0
 36 37  1  6  0  0  0
 36 45  1  0  0  0  0
 38 39  1  0  0  0  0
 40 41  1  0  0  0  0
 40 48  1  6  0  0  0
 43 44  1  0  0  0  0
 45 46  1  6  0  0  0
 47 50  1  0  0  0  0
 48 49  1  0  0  0  0
 50 51  1  0  0  0  0
 51 52  1  0  0  0  0
 52  8  1  0  0  0  0
M  END
>  <CHROM.1>
-168.78298797,178.55888457,167.04767392,49.92961895,-76.18177762,162.16863878
-87.61415786,-31.97152925,153.40467299,-71.18394941,166.04669699,119.04386760
79.98056029,142.31073858,-10.67467645,25.43950721,25.82917615,5.59071413
-1.61665331,0.88619131,-2.12005320

>  <Name>
2be0_lig

>  <RI>
2.57068e+07

>  <Rbt.Current_Directory>
/home/itssahil/PROJECTS/Mol_Feturizer/New_Systems/rnas/2be0

>  <Rbt.Executable>
rbdock ($Id: //depot/dev/client3/rdock/2013.1/src/exe/rbdock.cxx#4 $)

>  <Rbt.Library>
libRbt.so (2013.1, Build901 2013/11/27)

>  <Rbt.Parameter_File>
/export/apps/rDock/src/rDock_2013.1_src/data/scripts/dock_solv.prm

>  <Rbt.Receptor>
prm/blind_docking_60.prm

>  <SCORE>
47.7803

>  <SCORE.INTER>
21.5746

>  <SCORE.INTER.CONST>
1

>  <SCORE.INTER.POLAR>
-0.998708

>  <SCORE.INTER.ROT>
15

>  <SCORE.INTER.SOLV>
29.5572

>  <SCORE.INTER.VDW>
-5.7403

>  <SCORE.INTER.norm>
0.414897

>  <SCORE.INTRA>
1.44525

>  <SCORE.INTRA.DIHEDRAL>
-26.5453

>  <SCORE.INTRA.DIHEDRAL.0>
47.8724

>  <SCORE.INTRA.POLAR>
0

>  <SCORE.INTRA.POLAR.0>
0

>  <SCORE.INTRA.REPUL>
0

>  <SCORE.INTRA.REPUL.0>
0

>  <SCORE.INTRA.SOLV>
11.8554

>  <SCORE.INTRA.SOLV.lig_0>
-115.677

>  <SCORE.INTRA.VDW>
8.79021

>  <SCORE.INTRA.VDW.0>
-7.4833

>  <SCORE.INTRA.norm>
0.0277933

>  <SCORE.RESTR>
24.7604

>  <SCORE.RESTR.CAVITY>
24.7604

>  <SCORE.RESTR.norm>
0.476161

>  <SCORE.SYSTEM>
0

>  <SCORE.SYSTEM.CONST>
0

>  <SCORE.SYSTEM.DIHEDRAL>
0

>  <SCORE.SYSTEM.SOLV>
0

>  <SCORE.SYSTEM.norm>
0

>  <SCORE.heavy>
52

>  <SCORE.norm>
0.918851

>  <RMSD>
30.004

$$$$
2be0_lig
 OpenBabel11021811423D
libRbt.so/2013.1/901 2013/11/27
 52 56  0  0  0  0  0  0  0  0999 V2000
   26.6154   26.3975    9.4907 C   0  0  2  0  0  0  0  0  0  0  0  0
   25.9643   25.8592    8.3641 O   0  0  0  0  0  0  0  0  0  0  0  0
   24.5501   21.9559    9.8255 C   0  0  2  0  0  0  0  0  0  0  0  0
   23.6591   20.7781   10.0215 N   0  0  0  0  0  0  0  0  0  0  0  0
   25.5223   24.4962    5.9837 C   0  0  2  0  0  0  0  0  0  0  0  0
   24.5874   23.8110    5.1253 O   0  0  0  0  0  0  0  0  0  0  0  0
   27.7559   23.9157    1.7619 C   0  0  1  0  0  0  0  0  0  0  0  0
   23.1638   29.6476    8.0386 C   0  0  0  0  0  0  0  0  0  0  0  0
   27.6176   27.5508    9.0769 C   0  0  2  0  0  0  0  0  0  0  0  0
   26.9104   28.5630    8.2896 N   0  0  0  0  0  0  0  0  0  0  0  0
   23.7669   23.2803   10.2507 C   0  0  0  0  0  0  0  0  0  0  0  0
   26.4478   25.3131    5.0680 C   0  0  2  0  0  0  0  0  0  0  0  0
   25.6902   26.5841    4.8494 O   0  0  0  0  0  0  0  0  0  0  0  0
   28.6292   22.8705    2.6485 C   0  0  2  0  0  0  0  0  0  0  0  0
   29.6021   23.6455    3.4843 N   0  0  0  0  0  0  0  0  0  0  0  0
   23.7559   28.4884    8.6390 C   0  0  0  0  0  0  0  0  0  0  0  0
   23.7195   28.3307   10.0493 N   0  0  0  0  0  0  0  0  0  0  0  0
   28.8538   26.9273    8.2776 C   0  0  1  0  0  0  0  0  0  0  0  0
   29.7353   27.9769    7.9097 O   0  0  0  0  0  0  0  0  0  0  0  0
   24.7068   24.5996   10.0368 C   0  0  2  0  0  0  0  0  0  0  0  0
   24.0143   25.7981   10.4180 N   0  0  0  0  0  0  0  0  0  0  0  0
   26.5929   24.3008    3.9161 C   0  0  2  0  0  0  0  0  0  0  0  0
   27.0834   24.7970    2.6793 O   0  0  0  0  0  0  0  0  0  0  0  0
   29.3748   21.9170    1.6667 C   0  0  1  0  0  0  0  0  0  0  0  0
   28.3297   21.2018    0.9160 O   0  0  0  0  0  0  0  0  0  0  0  0
   23.1159   29.2818   10.9205 C   0  0  0  0  0  0  0  0  0  0  0  0
   29.5527   25.8760    9.1878 C   0  0  2  0  0  0  0  0  0  0  0  0
   30.7097   25.2577    8.4964 O   0  0  0  0  0  0  0  0  0  0  0  0
   25.1506   24.7029    8.5196 C   0  0  2  0  0  0  0  0  0  0  0  0
   25.1865   23.6628    3.8215 C   0  0  1  0  0  0  0  0  0  0  0  0
   30.3286   22.7793    0.6704 C   0  0  2  0  0  0  0  0  0  0  0  0
   31.3755   23.4972    1.4140 O   0  0  0  0  0  0  0  0  0  0  0  0
   22.5137   30.4467   10.3845 C   0  0  0  0  0  0  0  0  0  0  0  0
   28.5389   24.7365    9.5895 C   0  0  2  0  0  0  0  0  0  0  0  0
   27.4316   25.4033   10.2560 O   0  0  0  0  0  0  0  0  0  0  0  0
   25.9032   23.3774    8.1511 C   0  0  2  0  0  0  0  0  0  0  0  0
   26.2614   23.5847    6.7902 O   0  0  0  0  0  0  0  0  0  0  0  0
   25.2446   22.1651    3.5254 C   0  0  0  0  0  0  0  0  0  0  0  0
   26.0520   21.7944    2.4337 O   0  0  0  0  0  0  0  0  0  0  0  0
   29.4373   23.8254   -0.1446 C   0  0  1  0  0  0  0  0  0  0  0  0
   28.6956   24.6991    0.8460 O   0  0  0  0  0  0  0  0  0  0  0  0
   22.5259   30.6585    8.9184 C   0  0  0  0  0  0  0  0  0  0  0  0
   29.2481   23.7883   10.4636 C   0  0  0  0  0  0  0  0  0  0  0  0
   29.1220   24.1768   11.7387 O   0  0  0  0  0  0  0  0  0  0  0  0
   24.9528   22.1212    8.3409 C   0  0  1  0  0  0  0  0  0  0  0  0
   25.6370   20.9546    8.0206 O   0  0  0  0  0  0  0  0  0  0  0  0
   25.4395   27.6812    5.8138 C   0  0  0  0  0  0  0  0  0  0  0  0
   30.3987   24.6239   -1.0665 C   0  0  0  0  0  0  0  0  0  0  0  0
   31.2297   25.5085   -0.2883 N   0  0  0  0  0  0  0  0  0  0  0  0
   25.1861   28.9529    4.9978 C   0  0  0  0  0  0  0  0  0  0  0  0
   24.6557   30.0266    5.8992 N   0  0  0  0  0  0  0  0  0  0  0  0
   23.2185   29.7992    6.4403 C   0  0  0  0  0  0  0  0  0  0  0  0
  1  2  1  6  0  0  0
  1  9  1  0  0  0  0
  1 35  1  0  0  0  0
  3  4  1  6  0  0  0
  3 11  1  0  0  0  0
  3 45  1  0  0  0  0
  5  6  1  0  0  0  0
  5 12  1  0  0  0  0
  5 37  1  6  0  0  0
  6 30  1  0  0  0  0
  7 14  1  0  0  0  0
  7 41  1  0  0  0  0
  7 23  1  1  0  0  0
  8 16  2  0  0  0  0
  8 42  1  0  0  0  0
  9 10  1  6  0  0  0
  9 18  1  0  0  0  0
 11 20  1  0  0  0  0
 12 13  1  6  0  0  0
 12 22  1  0  0  0  0
 13 47  1  0  0  0  0
 14 15  1  6  0  0  0
 14 24  1  0  0  0  0
 16 17  1  0  0  0  0
 17 26  2  0  0  0  0
 18 19  1  1  0  0  0
 18 27  1  0  0  0  0
 20 21  1  6  0  0  0
 20 29  1  0  0  0  0
 22 23  1  6  0  0  0
 22 30  1  0  0  0  0
 24 25  1  6  0  0  0
 24 31  1  0  0  0  0
 26 33  1  0  0  0  0
 27 28  1  6  0  0  0
 27 34  1  0  0  0  0
 29  2  1  1  0  0  0
 29 36  1  0  0  0  0
 30 38  1  1  0  0  0
 31 32  1  1  0  0  0
 31 40  1  0  0  0  0
 33 42  2  0  0  0  0
 34 35  1  0  0  0  0
 34 43  1  1  0  0  0
 36 37  1  6  0  0  0
 36 45  1  0  0  0  0
 38 39  1  0  0  0  0
 40 41  1  0  0  0  0
 40 48  1  6  0  0  0
 43 44  1  0  0  0  0
 45 46  1  1  0  0  0
 47 50  1  0  0  0  0
 48 49  1  0  0  0  0
 50 51  1  0  0  0  0
 51 52  1  0  0  0  0
 52  8  1  0  0  0  0
M  END
>  <CHROM.1>
172.29926381,-100.82023428,-36.47912576,71.59953227,155.75450549,154.47446994
22.09148439,-166.86546006,89.43004971,-23.94290408,-70.49797697,168.59194551
-69.48501052,116.74134444,-67.74891141,26.66452005,25.18925818,6.32278894
-2.78930229,1.10561994,-0.80431809

>  <Name>
2be0_lig

>  <RI>
2.57068e+07

>  <Rbt.Current_Directory>
/home/itssahil/PROJECTS/Mol_Feturizer/New_Systems/rnas/2be0

>  <Rbt.Executable>
rbdock ($Id: //depot/dev/client3/rdock/2013.1/src/exe/rbdock.cxx#4 $)

>  <Rbt.Library>
libRbt.so (2013.1, Build901 2013/11/27)

>  <Rbt.Parameter_File>
/export/apps/rDock/src/rDock_2013.1_src/data/scripts/dock_solv.prm

>  <Rbt.Receptor>
prm/blind_docking_60.prm

>  <SCORE>
62.3621

>  <SCORE.INTER>
30.8352

>  <SCORE.INTER.CONST>
1

>  <SCORE.INTER.POLAR>
-2.43627

>  <SCORE.INTER.ROT>
15

>  <SCORE.INTER.SOLV>
39.0294

>  <SCORE.INTER.VDW>
2.06789

>  <SCORE.INTER.norm>
0.592985

>  <SCORE.INTRA>
7.64504

>  <SCORE.INTRA.DIHEDRAL>
-17.5648

>  <SCORE.INTRA.DIHEDRAL.0>
47.8724

>  <SCORE.INTRA.POLAR>
0

>  <SCORE.INTRA.POLAR.0>
0

>  <SCORE.INTRA.REPUL>
0.89691

>  <SCORE.INTRA.REPUL.0>
0

>  <SCORE.INTRA.SOLV>
8.36292

>  <SCORE.INTRA.SOLV.lig_0>
-115.677

>  <SCORE.INTRA.VDW>
7.76142

>  <SCORE.INTRA.VDW.0>
-7.4833

>  <SCORE.INTRA.norm>
0.14702

>  <SCORE.RESTR>
23.8818

>  <SCORE.RESTR.CAVITY>
23.8818

>  <SCORE.RESTR.norm>
0.459266

>  <SCORE.SYSTEM>
0

>  <SCORE.SYSTEM.CONST>
0

>  <SCORE.SYSTEM.DIHEDRAL>
0

>  <SCORE.SYSTEM.SOLV>
0

>  <SCORE.SYSTEM.norm>
0

>  <SCORE.heavy>
52

>  <SCORE.norm>
1.19927

>  <RMSD>
30.099

$$$$
2be0_lig
 OpenBabel11021811423D
libRbt.so/2013.1/901 2013/11/27
 52 56  0  0  0  0  0  0  0  0999 V2000
   29.6290   26.4243    9.2703 C   0  0  2  0  0  0  0  0  0  0  0  0
   28.9924   25.1691    9.3163 O   0  0  0  0  0  0  0  0  0  0  0  0
   25.0442   23.4838   10.2871 C   0  0  2  0  0  0  0  0  0  0  0  0
   23.6215   23.4236   10.7248 N   0  0  0  0  0  0  0  0  0  0  0  0
   25.9761   25.2900    6.3943 C   0  0  2  0  0  0  0  0  0  0  0  0
   25.5894   23.9604    5.9907 O   0  0  0  0  0  0  0  0  0  0  0  0
   28.4933   23.8971    2.5544 C   0  0  1  0  0  0  0  0  0  0  0  0
   23.8485   31.4854    5.5025 C   0  0  0  0  0  0  0  0  0  0  0  0
   31.1393   26.2849    8.8172 C   0  0  2  0  0  0  0  0  0  0  0  0
   31.2102   25.5630    7.5450 N   0  0  0  0  0  0  0  0  0  0  0  0
   25.9211   24.1399   11.4485 C   0  0  0  0  0  0  0  0  0  0  0  0
   26.5370   25.9868    5.1444 C   0  0  2  0  0  0  0  0  0  0  0  0
   25.3172   26.5278    4.4687 O   0  0  0  0  0  0  0  0  0  0  0  0
   29.0044   24.4883    1.1294 C   0  0  2  0  0  0  0  0  0  0  0  0
   27.8086   24.7987    0.2813 N   0  0  0  0  0  0  0  0  0  0  0  0
   24.0342   32.8758    5.2076 C   0  0  0  0  0  0  0  0  0  0  0  0
   25.0739   33.5982    5.8498 N   0  0  0  0  0  0  0  0  0  0  0  0
   31.9800   25.5570    9.9657 C   0  0  1  0  0  0  0  0  0  0  0  0
   33.3274   25.4352    9.5372 O   0  0  0  0  0  0  0  0  0  0  0  0
   27.4897   24.2374   11.0014 C   0  0  2  0  0  0  0  0  0  0  0  0
   28.2900   24.8242   12.0389 N   0  0  0  0  0  0  0  0  0  0  0  0
   27.2883   24.7926    4.5261 C   0  0  2  0  0  0  0  0  0  0  0  0
   27.6594   24.9015    3.1597 O   0  0  0  0  0  0  0  0  0  0  0  0
   29.8989   23.4045    0.4552 C   0  0  1  0  0  0  0  0  0  0  0  0
   31.0406   23.1934    1.3603 O   0  0  0  0  0  0  0  0  0  0  0  0
   25.9613   33.0059    6.7930 C   0  0  0  0  0  0  0  0  0  0  0  0
   31.8609   26.3939   11.2725 C   0  0  2  0  0  0  0  0  0  0  0  0
   32.6201   25.7639   12.3797 O   0  0  0  0  0  0  0  0  0  0  0  0
   27.6188   25.1005    9.6793 C   0  0  2  0  0  0  0  0  0  0  0  0
   26.3617   23.5913    4.8296 C   0  0  1  0  0  0  0  0  0  0  0  0
   29.0502   22.0322    0.2494 C   0  0  2  0  0  0  0  0  0  0  0  0
   27.9071   22.2358   -0.6540 O   0  0  0  0  0  0  0  0  0  0  0  0
   25.8270   31.6349    7.1236 C   0  0  0  0  0  0  0  0  0  0  0  0
   30.3503   26.5219   11.7073 C   0  0  2  0  0  0  0  0  0  0  0  0
   29.6622   27.1394   10.5847 O   0  0  0  0  0  0  0  0  0  0  0  0
   26.7334   24.4215    8.5775 C   0  0  2  0  0  0  0  0  0  0  0  0
   26.9336   25.2624    7.4479 O   0  0  0  0  0  0  0  0  0  0  0  0
   27.1430   22.3306    5.1964 C   0  0  0  0  0  0  0  0  0  0  0  0
   27.1089   21.2976    4.2410 O   0  0  0  0  0  0  0  0  0  0  0  0
   28.5269   21.5135    1.6671 C   0  0  1  0  0  0  0  0  0  0  0  0
   27.7035   22.6124    2.3066 O   0  0  0  0  0  0  0  0  0  0  0  0
   24.7567   30.8372    6.4812 C   0  0  0  0  0  0  0  0  0  0  0  0
   30.2998   27.3380   12.9310 C   0  0  0  0  0  0  0  0  0  0  0  0
   30.9328   26.6967   13.9214 O   0  0  0  0  0  0  0  0  0  0  0  0
   25.2138   24.3711    9.0312 C   0  0  1  0  0  0  0  0  0  0  0  0
   24.4446   23.7578    8.0495 O   0  0  0  0  0  0  0  0  0  0  0  0
   24.0855   27.0674    5.0917 C   0  0  0  0  0  0  0  0  0  0  0  0
   27.7182   20.2134    1.4077 C   0  0  0  0  0  0  0  0  0  0  0  0
   28.5865   19.1596    0.9448 N   0  0  0  0  0  0  0  0  0  0  0  0
   24.1533   28.5941    4.9817 C   0  0  0  0  0  0  0  0  0  0  0  0
   22.7634   29.1527    4.9300 N   0  0  0  0  0  0  0  0  0  0  0  0
   22.6650   30.6927    4.7600 C   0  0  0  0  0  0  0  0  0  0  0  0
  1  2  1  1  0  0  0
  1  9  1  0  0  0  0
  1 35  1  0  0  0  0
  3  4  1  1  0  0  0
  3 11  1  0  0  0  0
  3 45  1  0  0  0  0
  5  6  1  0  0  0  0
  5 12  1  0  0  0  0
  5 37  1  1  0  0  0
  6 30  1  0  0  0  0
  7 14  1  0  0  0  0
  7 41  1  0  0  0  0
  7 23  1  6  0  0  0
  8 16  2  0  0  0  0
  8 42  1  0  0  0  0
  9 10  1  6  0  0  0
  9 18  1  0  0  0  0
 11 20  1  0  0  0  0
 12 13  1  6  0  0  0
 12 22  1  0  0  0  0
 13 47  1  0  0  0  0
 14 15  1  6  0  0  0
 14 24  1  0  0  0  0
 16 17  1  0  0  0  0
 17 26  2  0  0  0  0
 18 19  1  6  0  0  0
 18 27  1  0  0  0  0
 20 21  1  1  0  0  0
 20 29  1  0  0  0  0
 22 23  1  6  0  0  0
 22 30  1  0  0  0  0
 24 25  1  1  0  0  0
 24 31  1  0  0  0  0
 26 33  1  0  0  0  0
 27 28  1  1  0  0  0
 27 34  1  0  0  0  0
 29  2  1  6  0  0  0
 29 36  1  0  0  0  0
 30 38  1  1  0  0  0
 31 32  1  6  0  0  0
 31 40  1  0  0  0  0
 33 42  2  0  0  0  0
 34 35  1  0  0  0  0
 34 43  1  1  0  0  0
 36 37  1  6  0  0  0
 36 45  1  0  0  0  0
 38 39  1  0  0  0  0
 40 41  1  0  0  0  0
 40 48  1  6  0  0  0
 43 44  1  0  0  0  0
 45 46  1  6  0  0  0
 47 50  1  0  0  0  0
 48 49  1  0  0  0  0
 50 51  1  0  0  0  0
 51 52  1  0  0  0  0
 52  8  1  0  0  0  0
M  END
>  <CHROM.1>
-178.78256654,-47.03674209,-167.02333316,35.03428546,103.37494762,172.92970554
-118.48194430,133.62193692,-64.22791573,-157.70967877,67.08138809,151.74171881
-177.64211083,-34.36186759,167.60125348,27.56301310,25.55922955,6.50040572
-1.42207940,0.88069859,-2.10846707

>  <Name>
2be0_lig

>  <RI>
2.57068e+07

>  <Rbt.Current_Directory>
/home/itssahil/PROJECTS/Mol_Feturizer/New_Systems/rnas/2be0

>  <Rbt.Executable>
rbdock ($Id: //depot/dev/client3/rdock/2013.1/src/exe/rbdock.cxx#4 $)

>  <Rbt.Library>
libRbt.so (2013.1, Build901 2013/11/27)

>  <Rbt.Parameter_File>
/export/apps/rDock/src/rDock_2013.1_src/data/scripts/dock_solv.prm

>  <Rbt.Receptor>
prm/blind_docking_60.prm

>  <SCORE>
27.8857

>  <SCORE.INTER>
13.9511

>  <SCORE.INTER.CONST>
1

>  <SCORE.INTER.POLAR>
-1.45297

>  <SCORE.INTER.ROT>
15

>  <SCORE.INTER.SOLV>
38.2807

>  <SCORE.INTER.VDW>
-12.2162

>  <SCORE.INTER.norm>
0.268291

>  <SCORE.INTRA>
0.339001

>  <SCORE.INTRA.DIHEDRAL>
-19.3861

>  <SCORE.INTRA.DIHEDRAL.0>
47.8724

>  <SCORE.INTRA.POLAR>
0

>  <SCORE.INTRA.POLAR.0>
0

>  <SCORE.INTRA.REPUL>
0

>  <SCORE.INTRA.REPUL.0>
0

>  <SCORE.INTRA.SOLV>
0.720181

>  <SCORE.INTRA.SOLV.lig_0>
-115.677

>  <SCORE.INTRA.VDW>
9.67196

>  <SCORE.INTRA.VDW.0>
-7.4833

>  <SCORE.INTRA.norm>
0.00651925

>  <SCORE.RESTR>
13.5956

>  <SCORE.RESTR.CAVITY>
13.5956

>  <SCORE.RESTR.norm>
0.261453

>  <SCORE.SYSTEM>
0

>  <SCORE.SYSTEM.CONST>
0

>  <SCORE.SYSTEM.DIHEDRAL>
0

>  <SCORE.SYSTEM.SOLV>
0

>  <SCORE.SYSTEM.norm>
0

>  <SCORE.heavy>
52

>  <SCORE.norm>
0.536263

>  <RMSD>
30.099

$$$$
2be0_lig
 OpenBabel11021811423D
libRbt.so/2013.1/901 2013/11/27
 52 56  0  0  0  0  0  0  0  0999 V2000
   29.8118   26.5412    9.4850 C   0  0  2  0  0  0  0  0  0  0  0  0
   29.1770   25.2904    9.3607 O   0  0  0  0  0  0  0  0  0  0  0  0
   25.2592   23.4683   10.1982 C   0  0  2  0  0  0  0  0  0  0  0  0
   23.8364   23.3516   10.6242 N   0  0  0  0  0  0  0  0  0  0  0  0
   26.1380   25.5934    6.4724 C   0  0  2  0  0  0  0  0  0  0  0  0
   25.6026   24.3102    6.0890 O   0  0  0  0  0  0  0  0  0  0  0  0
   27.7811   23.8217    2.4094 C   0  0  1  0  0  0  0  0  0  0  0  0
   24.3278   30.8541    7.0838 C   0  0  0  0  0  0  0  0  0  0  0  0
   31.3530   26.4387    9.1386 C   0  0  2  0  0  0  0  0  0  0  0  0
   31.5242   25.8420    7.8122 N   0  0  0  0  0  0  0  0  0  0  0  0
   26.1191   24.0621   11.4049 C   0  0  0  0  0  0  0  0  0  0  0  0
   26.7246   26.2266    5.2006 C   0  0  2  0  0  0  0  0  0  0  0  0
   25.5446   26.8897    4.5640 O   0  0  0  0  0  0  0  0  0  0  0  0
   29.3632   23.4603    2.3219 C   0  0  2  0  0  0  0  0  0  0  0  0
   30.0827   24.6060    1.6774 N   0  0  0  0  0  0  0  0  0  0  0  0
   25.6576   30.4765    6.7047 C   0  0  0  0  0  0  0  0  0  0  0  0
   26.6605   31.4722    6.5717 N   0  0  0  0  0  0  0  0  0  0  0  0
   32.1042   25.5999   10.2734 C   0  0  1  0  0  0  0  0  0  0  0  0
   33.4811   25.5134    9.9406 O   0  0  0  0  0  0  0  0  0  0  0  0
   27.6870   24.2195   10.9727 C   0  0  2  0  0  0  0  0  0  0  0  0
   28.4721   24.7509   12.0509 N   0  0  0  0  0  0  0  0  0  0  0  0
   27.3270   24.9602    4.5633 C   0  0  2  0  0  0  0  0  0  0  0  0
   27.6602   25.0280    3.1845 O   0  0  0  0  0  0  0  0  0  0  0  0
   29.5109   22.1618    1.4727 C   0  0  1  0  0  0  0  0  0  0  0  0
   28.7856   21.1091    2.2029 O   0  0  0  0  0  0  0  0  0  0  0  0
   26.4134   32.8565    6.7972 C   0  0  0  0  0  0  0  0  0  0  0  0
   31.8822   26.3080   11.6415 C   0  0  2  0  0  0  0  0  0  0  0  0
   32.5551   25.5709   12.7384 O   0  0  0  0  0  0  0  0  0  0  0  0
   27.8037   25.1713    9.7118 C   0  0  2  0  0  0  0  0  0  0  0  0
   26.2923   23.8615    4.9043 C   0  0  1  0  0  0  0  0  0  0  0  0
   28.8798   22.3912   -0.0089 C   0  0  2  0  0  0  0  0  0  0  0  0
   29.5996   23.4424   -0.7445 O   0  0  0  0  0  0  0  0  0  0  0  0
   25.1185   33.2894    7.1753 C   0  0  0  0  0  0  0  0  0  0  0  0
   30.3420   26.4008   11.9684 C   0  0  2  0  0  0  0  0  0  0  0  0
   29.7413   27.1266   10.8606 O   0  0  0  0  0  0  0  0  0  0  0  0
   26.9355   24.5505    8.5630 C   0  0  2  0  0  0  0  0  0  0  0  0
   27.1231   25.4687    7.4929 O   0  0  0  0  0  0  0  0  0  0  0  0
   26.9515   22.5275    5.2507 C   0  0  0  0  0  0  0  0  0  0  0  0
   27.6556   21.9090    4.2005 O   0  0  0  0  0  0  0  0  0  0  0  0
   27.3388   22.7912    0.1263 C   0  0  1  0  0  0  0  0  0  0  0  0
   27.2378   24.0275    0.9958 O   0  0  0  0  0  0  0  0  0  0  0  0
   24.0366   32.2891    7.3267 C   0  0  0  0  0  0  0  0  0  0  0  0
   30.1948   27.0958   13.2574 C   0  0  0  0  0  0  0  0  0  0  0  0
   30.7947   26.3835   14.2194 O   0  0  0  0  0  0  0  0  0  0  0  0
   25.4157   24.4406    9.0051 C   0  0  1  0  0  0  0  0  0  0  0  0
   24.6619   23.8796    7.9811 O   0  0  0  0  0  0  0  0  0  0  0  0
   24.7319   28.0145    5.0843 C   0  0  0  0  0  0  0  0  0  0  0  0
   26.7951   23.0075   -1.3122 C   0  0  0  0  0  0  0  0  0  0  0  0
   25.4104   23.4074   -1.2765 N   0  0  0  0  0  0  0  0  0  0  0  0
   23.7764   27.4361    6.1331 C   0  0  0  0  0  0  0  0  0  0  0  0
   23.8195   28.2837    7.3685 N   0  0  0  0  0  0  0  0  0  0  0  0
   23.2135   29.7061    7.2281 C   0  0  0  0  0  0  0  0  0  0  0  0
  1  2  1  1  0  0  0
  1  9  1  0  0  0  0
  1 35  1  0  0  0  0
  3  4  1  1  0  0  0
  3 11  1  0  0  0  0
  3 45  1  0  0  0  0
  5  6  1  0  0  0  0
  5 12  1  0  0  0  0
  5 37  1  1  0  0  0
  6 30  1  0  0  0  0
  7 14  1  0  0  0  0
  7 41  1  0  0  0  0
  7 23  1  1  0  0  0
  8 16  2  0  0  0  0
  8 42  1  0  0  0  0
  9 10  1  6  0  0  0
  9 18  1  0  0  0  0
 11 20  1  0  0  0  0
 12 13  1  6  0  0  0
 12 22  1  0  0  0  0
 13 47  1  0  0  0  0
 14 15  1  6  0  0  0
 14 24  1  0  0  0  0
 16 17  1  0  0  0  0
 17 26  2  0  0  0  0
 18 19  1  6  0  0  0
 18 27  1  0  0  0  0
 20 21  1  1  0  0  0
 20 29  1  0  0  0  0
 22 23  1  6  0  0  0
 22 30  1  0  0  0  0
 24 25  1  1  0  0  0
 24 31  1  0  0  0  0
 26 33  1  0  0  0  0
 27 28  1  1  0  0  0
 27 34  1  0  0  0  0
 29  2  1  6  0  0  0
 29 36  1  0  0  0  0
 30 38  1  1  0  0  0
 31 32  1  1  0  0  0
 31 40  1  0  0  0  0
 33 42  2  0  0  0  0
 34 35  1  0  0  0  0
 34 43  1  1  0  0  0
 36 37  1  6  0  0  0
 36 45  1  0  0  0  0
 38 39  1  0  0  0  0
 40 41  1  0  0  0  0
 40 48  1  6  0  0  0
 43 44  1  0  0  0  0
 45 46  1  6  0  0  0
 47 50  1  0  0  0  0
 48 49  1  0  0  0  0
 50 51  1  0  0  0  0
 51 52  1  0  0  0  0
 52  8  1  0  0  0  0
M  END
>  <CHROM.1>
176.19555336,-40.55173520,-98.40648293,64.22007592,-78.46763534,-158.50629754
-114.37997244,178.62435788,-61.93147869,-154.72252310,-178.51669115,132.14082123
68.74567649,-102.57024952,18.13452208,27.62937666,25.66446768,6.69517618
-1.35284421,0.79378053,-2.04180171

>  <Name>
2be0_lig

>  <RI>
2.57068e+07

>  <Rbt.Current_Directory>
/home/itssahil/PROJECTS/Mol_Feturizer/New_Systems/rnas/2be0

>  <Rbt.Executable>
rbdock ($Id: //depot/dev/client3/rdock/2013.1/src/exe/rbdock.cxx#4 $)

>  <Rbt.Library>
libRbt.so (2013.1, Build901 2013/11/27)

>  <Rbt.Parameter_File>
/export/apps/rDock/src/rDock_2013.1_src/data/scripts/dock_solv.prm

>  <Rbt.Receptor>
prm/blind_docking_60.prm

>  <SCORE>
19.3858

>  <SCORE.INTER>
2.89204

>  <SCORE.INTER.CONST>
1

>  <SCORE.INTER.POLAR>
-0.602654

>  <SCORE.INTER.ROT>
15

>  <SCORE.INTER.SOLV>
40.7386

>  <SCORE.INTER.VDW>
-23.2427

>  <SCORE.INTER.norm>
0.0556162

>  <SCORE.INTRA>
5.18633

>  <SCORE.INTRA.DIHEDRAL>
-20.2759

>  <SCORE.INTRA.DIHEDRAL.0>
47.8724

>  <SCORE.INTRA.POLAR>
0

>  <SCORE.INTRA.POLAR.0>
0

>  <SCORE.INTRA.REPUL>
0

>  <SCORE.INTRA.REPUL.0>
0

>  <SCORE.INTRA.SOLV>
2.23583

>  <SCORE.INTRA.SOLV.lig_0>
-115.677

>  <SCORE.INTRA.VDW>
14.2064

>  <SCORE.INTRA.VDW.0>
-7.4833

>  <SCORE.INTRA.norm>
0.0997371

>  <SCORE.RESTR>
11.3074

>  <SCORE.RESTR.CAVITY>
11.3074

>  <SCORE.RESTR.norm>
0.21745

>  <SCORE.SYSTEM>
0

>  <SCORE.SYSTEM.CONST>
0

>  <SCORE.SYSTEM.DIHEDRAL>
0

>  <SCORE.SYSTEM.SOLV>
0

>  <SCORE.SYSTEM.norm>
0

>  <SCORE.heavy>
52

>  <SCORE.norm>
0.372804

>  <RMSD>
30.162

$$$$
2be0_lig
 OpenBabel11021811423D
libRbt.so/2013.1/901 2013/11/27
 52 56  0  0  0  0  0  0  0  0999 V2000
   26.8011   22.9848    2.3762 C   0  0  2  0  0  0  0  0  0  0  0  0
   26.1580   23.9256    3.2033 O   0  0  0  0  0  0  0  0  0  0  0  0
   24.7872   22.1204    6.9760 C   0  0  2  0  0  0  0  0  0  0  0  0
   24.7183   21.8119    8.4318 N   0  0  0  0  0  0  0  0  0  0  0  0
   23.8426   26.1747    5.8419 C   0  0  2  0  0  0  0  0  0  0  0  0
   23.7970   27.5416    5.3838 O   0  0  0  0  0  0  0  0  0  0  0  0
   27.8394   27.2743    8.0528 C   0  0  1  0  0  0  0  0  0  0  0  0
   24.6765   30.9142    7.7411 C   0  0  0  0  0  0  0  0  0  0  0  0
   28.2801   23.4358    2.0373 C   0  0  2  0  0  0  0  0  0  0  0  0
   29.0137   23.7005    3.2768 N   0  0  0  0  0  0  0  0  0  0  0  0
   26.2555   21.7940    6.4414 C   0  0  0  0  0  0  0  0  0  0  0  0
   24.6735   26.1684    7.1350 C   0  0  2  0  0  0  0  0  0  0  0  0
   23.6739   26.5085    8.1945 O   0  0  0  0  0  0  0  0  0  0  0  0
   27.7295   25.6595    8.1994 C   0  0  2  0  0  0  0  0  0  0  0  0
   26.7786   25.3418    9.3132 N   0  0  0  0  0  0  0  0  0  0  0  0
   25.8704   31.1765    6.9922 C   0  0  0  0  0  0  0  0  0  0  0  0
   26.0139   32.4115    6.3073 N   0  0  0  0  0  0  0  0  0  0  0  0
   28.2456   24.7142    1.0779 C   0  0  1  0  0  0  0  0  0  0  0  0
   29.5793   25.1065    0.7926 O   0  0  0  0  0  0  0  0  0  0  0  0
   26.3772   22.1329    4.8476 C   0  0  2  0  0  0  0  0  0  0  0  0
   27.6934   21.8414    4.3537 N   0  0  0  0  0  0  0  0  0  0  0  0
   25.7435   27.2008    6.7326 C   0  0  2  0  0  0  0  0  0  0  0  0
   26.5165   27.7699    7.7790 O   0  0  0  0  0  0  0  0  0  0  0  0
   29.1543   25.1094    8.5100 C   0  0  1  0  0  0  0  0  0  0  0  0
   29.9919   25.4619    7.3517 O   0  0  0  0  0  0  0  0  0  0  0  0
   25.0150   33.4264    6.3213 C   0  0  0  0  0  0  0  0  0  0  0  0
   27.4620   24.3426   -0.2144 C   0  0  2  0  0  0  0  0  0  0  0  0
   27.3927   25.4947   -1.1454 O   0  0  0  0  0  0  0  0  0  0  0  0
   26.0423   23.6606    4.5961 C   0  0  2  0  0  0  0  0  0  0  0  0
   24.9463   28.2387    5.9071 C   0  0  1  0  0  0  0  0  0  0  0  0
   29.7256   25.7838    9.8755 C   0  0  2  0  0  0  0  0  0  0  0  0
   28.8930   25.4361   11.0376 O   0  0  0  0  0  0  0  0  0  0  0  0
   23.8141   33.2244    7.0453 C   0  0  0  0  0  0  0  0  0  0  0  0
   25.9924   23.8958    0.1436 C   0  0  2  0  0  0  0  0  0  0  0  0
   26.1274   22.7721    1.0567 O   0  0  0  0  0  0  0  0  0  0  0  0
   24.5990   23.9299    5.1470 C   0  0  2  0  0  0  0  0  0  0  0  0
   24.4028   25.3092    4.8598 O   0  0  0  0  0  0  0  0  0  0  0  0
   25.7358   28.7599    4.7075 C   0  0  0  0  0  0  0  0  0  0  0  0
   25.7190   27.9354    3.5668 O   0  0  0  0  0  0  0  0  0  0  0  0
   29.7710   27.3718    9.7050 C   0  0  1  0  0  0  0  0  0  0  0  0
   28.3787   27.8578    9.3584 O   0  0  0  0  0  0  0  0  0  0  0  0
   23.6155   31.9515    7.7765 C   0  0  0  0  0  0  0  0  0  0  0  0
   25.3107   23.5378   -1.1107 C   0  0  0  0  0  0  0  0  0  0  0  0
   25.7271   22.3317   -1.5163 O   0  0  0  0  0  0  0  0  0  0  0  0
   24.5248   23.6200    6.7013 C   0  0  1  0  0  0  0  0  0  0  0  0
   23.2381   23.8534    7.1718 O   0  0  0  0  0  0  0  0  0  0  0  0
   23.9255   26.9469    9.5876 C   0  0  0  0  0  0  0  0  0  0  0  0
   30.3112   27.9591   11.0373 C   0  0  0  0  0  0  0  0  0  0  0  0
   31.7180   27.6783   11.1820 N   0  0  0  0  0  0  0  0  0  0  0  0
   22.9207   28.0603    9.9008 C   0  0  0  0  0  0  0  0  0  0  0  0
   23.0804   29.1706    8.9065 N   0  0  0  0  0  0  0  0  0  0  0  0
   24.5420   29.5089    8.5073 C   0  0  0  0  0  0  0  0  0  0  0  0
  1  2  1  6  0  0  0
  1  9  1  0  0  0  0
  1 35  1  0  0  0  0
  3  4  1  1  0  0  0
  3 11  1  0  0  0  0
  3 45  1  0  0  0  0
  5  6  1  0  0  0  0
  5 12  1  0  0  0  0
  5 37  1  6  0  0  0
  6 30  1  0  0  0  0
  7 14  1  0  0  0  0
  7 41  1  0  0  0  0
  7 23  1  1  0  0  0
  8 16  2  0  0  0  0
  8 42  1  0  0  0  0
  9 10  1  1  0  0  0
  9 18  1  0  0  0  0
 11 20  1  0  0  0  0
 12 13  1  1  0  0  0
 12 22  1  0  0  0  0
 13 47  1  0  0  0  0
 14 15  1  1  0  0  0
 14 24  1  0  0  0  0
 16 17  1  0  0  0  0
 17 26  2  0  0  0  0
 18 19  1  6  0  0  0
 18 27  1  0  0  0  0
 20 21  1  1  0  0  0
 20 29  1  0  0  0  0
 22 23  1  1  0  0  0
 22 30  1  0  0  0  0
 24 25  1  6  0  0  0
 24 31  1  0  0  0  0
 26 33  1  0  0  0  0
 27 28  1  6  0  0  0
 27 34  1  0  0  0  0
 29  2  1  6  0  0  0
 29 36  1  0  0  0  0
 30 38  1  6  0  0  0
 31 32  1  1  0  0  0
 31 40  1  0  0  0  0
 33 42  2  0  0  0  0
 34 35  1  0  0  0  0
 34 43  1  6  0  0  0
 36 37  1  1  0  0  0
 36 45  1  0  0  0  0
 38 39  1  0  0  0  0
 40 41  1  0  0  0  0
 40 48  1  1  0  0  0
 43 44  1  0  0  0  0
 45 46  1  6  0  0  0
 47 50  1  0  0  0  0
 48 49  1  0  0  0  0
 50 51  1  0  0  0  0
 51 52  1  0  0  0  0
 52  8  1  0  0  0  0
M  END
>  <CHROM.1>
-101.48757033,176.72235873,-51.13513319,-164.83746261,138.90350569,99.69868783
-14.09679679,-34.42933378,76.74778572,-135.12147590,71.75712375,-57.44265848
-39.56603096,-165.71658264,-162.57953614,26.29939446,26.12056258,5.87089551
-1.47193856,-1.04043366,1.02800272

>  <Name>
2be0_lig

>  <RI>
2.57068e+07

>  <Rbt.Current_Directory>
/home/itssahil/PROJECTS/Mol_Feturizer/New_Systems/rnas/2be0

>  <Rbt.Executable>
rbdock ($Id: //depot/dev/client3/rdock/2013.1/src/exe/rbdock.cxx#4 $)

>  <Rbt.Library>
libRbt.so (2013.1, Build901 2013/11/27)

>  <Rbt.Parameter_File>
/export/apps/rDock/src/rDock_2013.1_src/data/scripts/dock_solv.prm

>  <Rbt.Receptor>
prm/blind_docking_60.prm

>  <SCORE>
40.7571

>  <SCORE.INTER>
4.58789

>  <SCORE.INTER.CONST>
1

>  <SCORE.INTER.POLAR>
-1.41186

>  <SCORE.INTER.ROT>
15

>  <SCORE.INTER.SOLV>
27.9321

>  <SCORE.INTER.VDW>
-15.1459

>  <SCORE.INTER.norm>
0.0882287

>  <SCORE.INTRA>
13.7685

>  <SCORE.INTRA.DIHEDRAL>
-12.3949

>  <SCORE.INTRA.DIHEDRAL.0>
47.8724

>  <SCORE.INTRA.POLAR>
0

>  <SCORE.INTRA.POLAR.0>
0

>  <SCORE.INTRA.REPUL>
0.131076

>  <SCORE.INTRA.REPUL.0>
0

>  <SCORE.INTRA.SOLV>
7.42067

>  <SCORE.INTRA.SOLV.lig_0>
-115.677

>  <SCORE.INTRA.VDW>
15.6002

>  <SCORE.INTRA.VDW.0>
-7.4833

>  <SCORE.INTRA.norm>
0.264779

>  <SCORE.RESTR>
22.4007

>  <SCORE.RESTR.CAVITY>
22.4007

>  <SCORE.RESTR.norm>
0.430783

>  <SCORE.SYSTEM>
0

>  <SCORE.SYSTEM.CONST>
0

>  <SCORE.SYSTEM.DIHEDRAL>
0

>  <SCORE.SYSTEM.SOLV>
0

>  <SCORE.SYSTEM.norm>
0

>  <SCORE.heavy>
52

>  <SCORE.norm>
0.78379

>  <RMSD>
30.163

$$$$
2be0_lig
 OpenBabel11021811423D
libRbt.so/2013.1/901 2013/11/27
 52 56  0  0  0  0  0  0  0  0999 V2000
   28.6525   25.0020    9.8731 C   0  0  2  0  0  0  0  0  0  0  0  0
   27.3597   25.1785   10.4028 O   0  0  0  0  0  0  0  0  0  0  0  0
   24.4798   21.9724    9.5093 C   0  0  2  0  0  0  0  0  0  0  0  0
   23.2972   21.2819    8.9228 N   0  0  0  0  0  0  0  0  0  0  0  0
   27.1116   24.2334    6.8531 C   0  0  2  0  0  0  0  0  0  0  0  0
   27.8217   25.4321    6.4800 O   0  0  0  0  0  0  0  0  0  0  0  0
   24.7367   28.0992    6.8157 C   0  0  1  0  0  0  0  0  0  0  0  0
   27.5536   23.6450    1.8948 C   0  0  0  0  0  0  0  0  0  0  0  0
   29.5277   24.0620   10.7984 C   0  0  2  0  0  0  0  0  0  0  0  0
   28.8264   22.7963   11.0235 N   0  0  0  0  0  0  0  0  0  0  0  0
   23.9882   23.2649   10.3068 C   0  0  0  0  0  0  0  0  0  0  0  0
   25.6283   24.6171    6.9755 C   0  0  2  0  0  0  0  0  0  0  0  0
   25.1207   24.5023    5.5731 O   0  0  0  0  0  0  0  0  0  0  0  0
   24.8633   29.3219    7.8789 C   0  0  2  0  0  0  0  0  0  0  0  0
   23.6716   29.2940    8.7871 N   0  0  0  0  0  0  0  0  0  0  0  0
   27.4276   23.4423    3.3083 C   0  0  0  0  0  0  0  0  0  0  0  0
   28.3239   22.5670    3.9759 N   0  0  0  0  0  0  0  0  0  0  0  0
   29.8585   24.8147   12.1695 C   0  0  1  0  0  0  0  0  0  0  0  0
   30.6362   23.9534   12.9865 O   0  0  0  0  0  0  0  0  0  0  0  0
   25.2596   24.0604   10.9552 C   0  0  2  0  0  0  0  0  0  0  0  0
   24.8303   25.2245   11.6776 N   0  0  0  0  0  0  0  0  0  0  0  0
   25.7968   26.0074    7.6170 C   0  0  2  0  0  0  0  0  0  0  0  0
   24.6756   26.8778    7.5740 O   0  0  0  0  0  0  0  0  0  0  0  0
   24.9168   30.6540    7.0716 C   0  0  1  0  0  0  0  0  0  0  0  0
   26.1250   30.5779    6.2337 O   0  0  0  0  0  0  0  0  0  0  0  0
   29.3633   21.8619    3.3046 C   0  0  0  0  0  0  0  0  0  0  0  0
   30.6113   26.1364   11.8398 C   0  0  2  0  0  0  0  0  0  0  0  0
   30.9429   26.8836   13.0770 O   0  0  0  0  0  0  0  0  0  0  0  0
   26.2666   24.4881    9.8095 C   0  0  2  0  0  0  0  0  0  0  0  0
   27.0561   26.5732    6.9184 C   0  0  1  0  0  0  0  0  0  0  0  0
   23.5781   30.8065    6.1603 C   0  0  2  0  0  0  0  0  0  0  0  0
   22.3664   30.8828    6.9912 O   0  0  0  0  0  0  0  0  0  0  0  0
   29.5372   22.0233    1.9079 C   0  0  0  0  0  0  0  0  0  0  0  0
   29.7243   27.0584   10.9176 C   0  0  2  0  0  0  0  0  0  0  0  0
   29.4311   26.2722    9.7298 O   0  0  0  0  0  0  0  0  0  0  0  0
   26.7091   23.1878    9.0529 C   0  0  2  0  0  0  0  0  0  0  0  0
   27.6086   23.6845    8.0693 O   0  0  0  0  0  0  0  0  0  0  0  0
   27.9459   27.3664    7.8741 C   0  0  0  0  0  0  0  0  0  0  0  0
   29.2986   27.4681    7.4985 O   0  0  0  0  0  0  0  0  0  0  0  0
   23.4679   29.5611    5.1655 C   0  0  1  0  0  0  0  0  0  0  0  0
   23.4665   28.2885    5.9872 O   0  0  0  0  0  0  0  0  0  0  0  0
   28.6270   22.9252    1.1648 C   0  0  0  0  0  0  0  0  0  0  0  0
   30.4941   28.2778   10.6235 C   0  0  0  0  0  0  0  0  0  0  0  0
   30.9457   28.2274    9.3640 O   0  0  0  0  0  0  0  0  0  0  0  0
   25.4550   22.4580    8.4109 C   0  0  1  0  0  0  0  0  0  0  0  0
   25.8620   21.3033    7.7534 O   0  0  0  0  0  0  0  0  0  0  0  0
   25.9011   24.4727    4.3136 C   0  0  0  0  0  0  0  0  0  0  0  0
   22.1714   29.7547    4.3330 C   0  0  0  0  0  0  0  0  0  0  0  0
   21.8061   31.1485    4.2797 N   0  0  0  0  0  0  0  0  0  0  0  0
   25.0082   25.0555    3.2134 C   0  0  0  0  0  0  0  0  0  0  0  0
   25.8659   25.6544    2.1399 N   0  0  0  0  0  0  0  0  0  0  0  0
   26.5266   24.6420    1.1659 C   0  0  0  0  0  0  0  0  0  0  0  0
  1  2  1  1  0  0  0
  1  9  1  0  0  0  0
  1 35  1  0  0  0  0
  3  4  1  6  0  0  0
  3 11  1  0  0  0  0
  3 45  1  0  0  0  0
  5  6  1  0  0  0  0
  5 12  1  0  0  0  0
  5 37  1  1  0  0  0
  6 30  1  0  0  0  0
  7 14  1  0  0  0  0
  7 41  1  0  0  0  0
  7 23  1  1  0  0  0
  8 16  2  0  0  0  0
  8 42  1  0  0  0  0
  9 10  1  1  0  0  0
  9 18  1  0  0  0  0
 11 20  1  0  0  0  0
 12 13  1  6  0  0  0
 12 22  1  0  0  0  0
 13 47  1  0  0  0  0
 14 15  1  1  0  0  0
 14 24  1  0  0  0  0
 16 17  1  0  0  0  0
 17 26  2  0  0  0  0
 18 19  1  1  0  0  0
 18 27  1  0  0  0  0
 20 21  1  6  0  0  0
 20 29  1  0  0  0  0
 22 23  1  6  0  0  0
 22 30  1  0  0  0  0
 24 25  1  6  0  0  0
 24 31  1  0  0  0  0
 26 33  1  0  0  0  0
 27 28  1  1  0  0  0
 27 34  1  0  0  0  0
 29  2  1  1  0  0  0
 29 36  1  0  0  0  0
 30 38  1  1  0  0  0
 31 32  1  1  0  0  0
 31 40  1  0  0  0  0
 33 42  2  0  0  0  0
 34 35  1  0  0  0  0
 34 43  1  6  0  0  0
 36 37  1  6  0  0  0
 36 45  1  0  0  0  0
 38 39  1  0  0  0  0
 40 41  1  0  0  0  0
 40 48  1  1  0  0  0
 43 44  1  0  0  0  0
 45 46  1  1  0  0  0
 47 50  1  0  0  0  0
 48 49  1  0  0  0  0
 50 51  1  0  0  0  0
 51 52  1  0  0  0  0
 52  8  1  0  0  0  0
M  END
>  <CHROM.1>
-104.50484650,137.76526502,-106.21030973,-18.04726124,-151.43345524,-114.79490196
143.65911215,40.19374753,105.24894151,-81.92797684,24.12253690,153.13454887
77.12926709,-62.99268611,21.42423260,26.67692666,25.76072076,7.48437507,0.49961010
-0.94125463,0.95695192

>  <Name>
2be0_lig

>  <RI>
2.57068e+07

>  <Rbt.Current_Directory>
/home/itssahil/PROJECTS/Mol_Feturizer/New_Systems/rnas/2be0

>  <Rbt.Executable>
rbdock ($Id: //depot/dev/client3/rdock/2013.1/src/exe/rbdock.cxx#4 $)

>  <Rbt.Library>
libRbt.so (2013.1, Build901 2013/11/27)

>  <Rbt.Parameter_File>
/export/apps/rDock/src/rDock_2013.1_src/data/scripts/dock_solv.prm

>  <Rbt.Receptor>
prm/blind_docking_60.prm

>  <SCORE>
54.0589

>  <SCORE.INTER>
1.44486

>  <SCORE.INTER.CONST>
1

>  <SCORE.INTER.POLAR>
-1.778

>  <SCORE.INTER.ROT>
15

>  <SCORE.INTER.SOLV>
36.1177

>  <SCORE.INTER.VDW>
-18.7493

>  <SCORE.INTER.norm>
0.0277859

>  <SCORE.INTRA>
37.3098

>  <SCORE.INTRA.DIHEDRAL>
5.50597

>  <SCORE.INTRA.DIHEDRAL.0>
47.8724

>  <SCORE.INTRA.POLAR>
0

>  <SCORE.INTRA.POLAR.0>
0

>  <SCORE.INTRA.REPUL>
0

>  <SCORE.INTRA.REPUL.0>
0

>  <SCORE.INTRA.SOLV>
3.30725

>  <SCORE.INTRA.SOLV.lig_0>
-115.677

>  <SCORE.INTRA.VDW>
32.9032

>  <SCORE.INTRA.VDW.0>
-7.4833

>  <SCORE.INTRA.norm>
0.717495

>  <SCORE.RESTR>
15.3042

>  <SCORE.RESTR.CAVITY>
15.3042

>  <SCORE.RESTR.norm>
0.294312

>  <SCORE.SYSTEM>
0

>  <SCORE.SYSTEM.CONST>
0

>  <SCORE.SYSTEM.DIHEDRAL>
0

>  <SCORE.SYSTEM.SOLV>
0

>  <SCORE.SYSTEM.norm>
0

>  <SCORE.heavy>
52

>  <SCORE.norm>
1.03959

>  <RMSD>
30.216

$$$$
2be0_lig
 OpenBabel11021811423D
libRbt.so/2013.1/901 2013/11/27
 52 56  0  0  0  0  0  0  0  0999 V2000
   24.0913   29.8211    4.9896 C   0  0  2  0  0  0  0  0  0  0  0  0
   23.5586   29.2641    6.1681 O   0  0  0  0  0  0  0  0  0  0  0  0
   27.1841   28.0350    8.3398 C   0  0  2  0  0  0  0  0  0  0  0  0
   28.0544   27.2997    9.2996 N   0  0  0  0  0  0  0  0  0  0  0  0
   25.7377   26.0261    4.6612 C   0  0  2  0  0  0  0  0  0  0  0  0
   24.9380   25.3447    3.6731 O   0  0  0  0  0  0  0  0  0  0  0  0
   25.8370   22.5338    7.4551 C   0  0  1  0  0  0  0  0  0  0  0  0
   29.6356   23.9480    0.5052 C   0  0  0  0  0  0  0  0  0  0  0  0
   25.1231   30.9761    5.3170 C   0  0  2  0  0  0  0  0  0  0  0  0
   26.1548   30.4754    6.2276 N   0  0  0  0  0  0  0  0  0  0  0  0
   25.9891   28.7260    9.1416 C   0  0  0  0  0  0  0  0  0  0  0  0
   26.2595   24.9505    5.6273 C   0  0  2  0  0  0  0  0  0  0  0  0
   27.4941   24.4435    4.9521 O   0  0  0  0  0  0  0  0  0  0  0  0
   24.7352   22.7466    8.6307 C   0  0  2  0  0  0  0  0  0  0  0  0
   24.1832   24.1359    8.5259 N   0  0  0  0  0  0  0  0  0  0  0  0
   30.3607   22.7761    0.8998 C   0  0  0  0  0  0  0  0  0  0  0  0
   31.7801   22.7899    0.8871 N   0  0  0  0  0  0  0  0  0  0  0  0
   24.3465   32.2336    5.9263 C   0  0  1  0  0  0  0  0  0  0  0  0
   25.2889   33.2535    6.2195 O   0  0  0  0  0  0  0  0  0  0  0  0
   25.0009   29.5331    8.1208 C   0  0  2  0  0  0  0  0  0  0  0  0
   23.9225   30.1615    8.8303 N   0  0  0  0  0  0  0  0  0  0  0  0
   25.0027   24.0622    5.6917 C   0  0  2  0  0  0  0  0  0  0  0  0
   25.1684   22.7461    6.1987 O   0  0  0  0  0  0  0  0  0  0  0  0
   25.4490   22.5330    9.9996 C   0  0  1  0  0  0  0  0  0  0  0  0
   25.9327   21.1425    9.9977 O   0  0  0  0  0  0  0  0  0  0  0  0
   32.5409   23.9276    0.4937 C   0  0  0  0  0  0  0  0  0  0  0  0
   23.2830   32.7070    4.8932 C   0  0  2  0  0  0  0  0  0  0  0  0
   22.5245   33.8736    5.4059 O   0  0  0  0  0  0  0  0  0  0  0  0
   24.4144   28.5350    7.0395 C   0  0  2  0  0  0  0  0  0  0  0  0
   24.4552   24.1118    4.2454 C   0  0  1  0  0  0  0  0  0  0  0  0
   26.6810   23.5838   10.1545 C   0  0  2  0  0  0  0  0  0  0  0  0
   26.2050   24.9759   10.1567 O   0  0  0  0  0  0  0  0  0  0  0  0
   31.8793   25.1150    0.0945 C   0  0  0  0  0  0  0  0  0  0  0  0
   22.2654   31.5435    4.5799 C   0  0  2  0  0  0  0  0  0  0  0  0
   23.0662   30.4339    4.0875 O   0  0  0  0  0  0  0  0  0  0  0  0
   25.6251   27.8774    6.2905 C   0  0  2  0  0  0  0  0  0  0  0  0
   24.9882   27.0228    5.3485 O   0  0  0  0  0  0  0  0  0  0  0  0
   22.9291   24.1676    4.2014 C   0  0  0  0  0  0  0  0  0  0  0  0
   22.3734   24.5941    2.9806 O   0  0  0  0  0  0  0  0  0  0  0  0
   27.7135   23.3726    8.9536 C   0  0  1  0  0  0  0  0  0  0  0  0
   26.9696   23.5423    7.6450 O   0  0  0  0  0  0  0  0  0  0  0  0
   30.3985   25.1515    0.0896 C   0  0  0  0  0  0  0  0  0  0  0  0
   21.3016   32.0417    3.5855 C   0  0  0  0  0  0  0  0  0  0  0  0
   20.0822   31.5668    3.8691 O   0  0  0  0  0  0  0  0  0  0  0  0
   26.5456   27.0778    7.3057 C   0  0  1  0  0  0  0  0  0  0  0  0
   27.6186   26.5101    6.6288 O   0  0  0  0  0  0  0  0  0  0  0  0
   27.7280   23.1117    4.3455 C   0  0  0  0  0  0  0  0  0  0  0  0
   28.8568   24.4055    9.1472 C   0  0  0  0  0  0  0  0  0  0  0  0
   29.3604   24.8500    7.8714 N   0  0  0  0  0  0  0  0  0  0  0  0
   28.4524   23.3406    3.0151 C   0  0  0  0  0  0  0  0  0  0  0  0
   27.4497   23.6740    1.9520 N   0  0  0  0  0  0  0  0  0  0  0  0
   28.0301   23.9044    0.5306 C   0  0  0  0  0  0  0  0  0  0  0  0
  1  2  1  1  0  0  0
  1  9  1  0  0  0  0
  1 35  1  0  0  0  0
  3  4  1  1  0  0  0
  3 11  1  0  0  0  0
  3 45  1  0  0  0  0
  5  6  1  0  0  0  0
  5 12  1  0  0  0  0
  5 37  1  1  0  0  0
  6 30  1  0  0  0  0
  7 14  1  0  0  0  0
  7 41  1  0  0  0  0
  7 23  1  6  0  0  0
  8 16  2  0  0  0  0
  8 42  1  0  0  0  0
  9 10  1  1  0  0  0
  9 18  1  0  0  0  0
 11 20  1  0  0  0  0
 12 13  1  6  0  0  0
 12 22  1  0  0  0  0
 13 47  1  0  0  0  0
 14 15  1  1  0  0  0
 14 24  1  0  0  0  0
 16 17  1  0  0  0  0
 17 26  2  0  0  0  0
 18 19  1  6  0  0  0
 18 27  1  0  0  0  0
 20 21  1  1  0  0  0
 20 29  1  0  0  0  0
 22 23  1  6  0  0  0
 22 30  1  0  0  0  0
 24 25  1  6  0  0  0
 24 31  1  0  0  0  0
 26 33  1  0  0  0  0
 27 28  1  1  0  0  0
 27 34  1  0  0  0  0
 29  2  1  6  0  0  0
 29 36  1  0  0  0  0
 30 38  1  1  0  0  0
 31 32  1  6  0  0  0
 31 40  1  0  0  0  0
 33 42  2  0  0  0  0
 34 35  1  0  0  0  0
 34 43  1  6  0  0  0
 36 37  1  6  0  0  0
 36 45  1  0  0  0  0
 38 39  1  0  0  0  0
 40 41  1  0  0  0  0
 40 48  1  1  0  0  0
 43 44  1  0  0  0  0
 45 46  1  6  0  0  0
 47 50  1  0  0  0  0
 48 49  1  0  0  0  0
 50 51  1  0  0  0  0
 51 52  1  0  0  0  0
 52  8  1  0  0  0  0
M  END
>  <CHROM.1>
-66.72740952,-175.10735747,83.63105203,-111.55454540,137.00017758,50.88647983
91.86085688,46.29491214,-141.76692972,-166.40453002,-146.55752279,-82.75956338
-178.70620649,-8.26390224,62.55602487,25.98907218,26.47029110,5.62576034
-2.83291879,-0.95859577,2.15301102

>  <Name>
2be0_lig

>  <RI>
2.57068e+07

>  <Rbt.Current_Directory>
/home/itssahil/PROJECTS/Mol_Feturizer/New_Systems/rnas/2be0

>  <Rbt.Executable>
rbdock ($Id: //depot/dev/client3/rdock/2013.1/src/exe/rbdock.cxx#4 $)

>  <Rbt.Library>
libRbt.so (2013.1, Build901 2013/11/27)

>  <Rbt.Parameter_File>
/export/apps/rDock/src/rDock_2013.1_src/data/scripts/dock_solv.prm

>  <Rbt.Receptor>
prm/blind_docking_60.prm

>  <SCORE>
30.37

>  <SCORE.INTER>
-4.7847

>  <SCORE.INTER.CONST>
1

>  <SCORE.INTER.POLAR>
-2.00774

>  <SCORE.INTER.ROT>
15

>  <SCORE.INTER.SOLV>
30.3754

>  <SCORE.INTER.VDW>
-20.2225

>  <SCORE.INTER.norm>
-0.0920135

>  <SCORE.INTRA>
17.1946

>  <SCORE.INTRA.DIHEDRAL>
-16.4392

>  <SCORE.INTRA.DIHEDRAL.0>
47.8724

>  <SCORE.INTRA.POLAR>
0

>  <SCORE.INTRA.POLAR.0>
0

>  <SCORE.INTRA.REPUL>
0

>  <SCORE.INTRA.REPUL.0>
0

>  <SCORE.INTRA.SOLV>
15.4016

>  <SCORE.INTRA.SOLV.lig_0>
-115.677

>  <SCORE.INTRA.VDW>
17.7134

>  <SCORE.INTRA.VDW.0>
-7.4833

>  <SCORE.INTRA.norm>
0.330665

>  <SCORE.RESTR>
17.9601

>  <SCORE.RESTR.CAVITY>
17.9601

>  <SCORE.RESTR.norm>
0.345386

>  <SCORE.SYSTEM>
0

>  <SCORE.SYSTEM.CONST>
0

>  <SCORE.SYSTEM.DIHEDRAL>
0

>  <SCORE.SYSTEM.SOLV>
0

>  <SCORE.SYSTEM.norm>
0

>  <SCORE.heavy>
52

>  <SCORE.norm>
0.584038

>  <RMSD>
30.223

$$$$
2be0_lig
 OpenBabel11021811423D
libRbt.so/2013.1/901 2013/11/27
 52 56  0  0  0  0  0  0  0  0999 V2000
   29.9648   25.3094    8.3572 C   0  0  2  0  0  0  0  0  0  0  0  0
   29.3158   24.2960    9.0884 O   0  0  0  0  0  0  0  0  0  0  0  0
   25.1751   23.4467   10.3146 C   0  0  2  0  0  0  0  0  0  0  0  0
   23.7990   23.6764   10.8373 N   0  0  0  0  0  0  0  0  0  0  0  0
   26.1835   25.1236    6.4096 C   0  0  2  0  0  0  0  0  0  0  0  0
   25.4546   23.9496    5.9963 O   0  0  0  0  0  0  0  0  0  0  0  0
   27.8094   23.4280    2.2342 C   0  0  1  0  0  0  0  0  0  0  0  0
   23.8518   31.3800    6.3675 C   0  0  0  0  0  0  0  0  0  0  0  0
   30.8423   26.2265    9.3031 C   0  0  2  0  0  0  0  0  0  0  0  0
   31.7702   25.3975   10.0753 N   0  0  0  0  0  0  0  0  0  0  0  0
   26.2358   23.9117   11.4131 C   0  0  0  0  0  0  0  0  0  0  0  0
   26.7646   25.7558    5.1348 C   0  0  2  0  0  0  0  0  0  0  0  0
   25.6457   26.6083    4.6261 O   0  0  0  0  0  0  0  0  0  0  0  0
   29.4057   23.5773    1.9678 C   0  0  2  0  0  0  0  0  0  0  0  0
   29.6504   24.8509    1.2170 N   0  0  0  0  0  0  0  0  0  0  0  0
   23.5910   31.9314    5.0703 C   0  0  0  0  0  0  0  0  0  0  0  0
   23.9200   33.2861    4.8029 N   0  0  0  0  0  0  0  0  0  0  0  0
   29.8873   27.0938   10.2474 C   0  0  1  0  0  0  0  0  0  0  0  0
   30.6924   27.9022   11.0915 O   0  0  0  0  0  0  0  0  0  0  0  0
   27.7614   23.6890   10.8719 C   0  0  2  0  0  0  0  0  0  0  0  0
   28.7257   24.1016   11.8523 N   0  0  0  0  0  0  0  0  0  0  0  0
   27.1459   24.4656    4.3847 C   0  0  2  0  0  0  0  0  0  0  0  0
   27.3927   24.5789    2.9909 O   0  0  0  0  0  0  0  0  0  0  0  0
   29.8693   22.3432    1.1365 C   0  0  1  0  0  0  0  0  0  0  0  0
   29.5985   21.1610    1.9711 O   0  0  0  0  0  0  0  0  0  0  0  0
   24.5060   34.1478    5.7736 C   0  0  0  0  0  0  0  0  0  0  0  0
   28.9478   27.9500    9.3494 C   0  0  2  0  0  0  0  0  0  0  0  0
   28.0318   28.7765   10.1722 O   0  0  0  0  0  0  0  0  0  0  0  0
   27.9815   24.5076    9.5336 C   0  0  2  0  0  0  0  0  0  0  0  0
   25.9967   23.4924    4.7403 C   0  0  1  0  0  0  0  0  0  0  0  0
   29.0456   22.2749   -0.2645 C   0  0  2  0  0  0  0  0  0  0  0  0
   29.3111   23.4537   -1.1038 O   0  0  0  0  0  0  0  0  0  0  0  0
   24.7878   33.6584    7.0729 C   0  0  0  0  0  0  0  0  0  0  0  0
   28.0830   27.0194    8.4147 C   0  0  2  0  0  0  0  0  0  0  0  0
   29.0331   26.2362    7.6409 O   0  0  0  0  0  0  0  0  0  0  0  0
   26.9114   24.0218    8.4954 C   0  0  2  0  0  0  0  0  0  0  0  0
   27.2083   24.8042    7.3452 O   0  0  0  0  0  0  0  0  0  0  0  0
   26.4904   22.0636    4.9616 C   0  0  0  0  0  0  0  0  0  0  0  0
   26.4564   21.6106    6.2938 O   0  0  0  0  0  0  0  0  0  0  0  0
   27.4808   22.1780    0.0434 C   0  0  1  0  0  0  0  0  0  0  0  0
   27.0832   23.3690    0.8908 O   0  0  0  0  0  0  0  0  0  0  0  0
   24.4624   32.2513    7.4024 C   0  0  0  0  0  0  0  0  0  0  0  0
   27.2342   27.8827    7.5779 C   0  0  0  0  0  0  0  0  0  0  0  0
   26.2420   28.3884    8.3213 O   0  0  0  0  0  0  0  0  0  0  0  0
   25.4437   24.2807    9.0396 C   0  0  1  0  0  0  0  0  0  0  0  0
   24.5078   23.8358    8.1135 O   0  0  0  0  0  0  0  0  0  0  0  0
   24.5180   27.1943    5.3885 C   0  0  0  0  0  0  0  0  0  0  0  0
   26.7483   22.1273   -1.3249 C   0  0  0  0  0  0  0  0  0  0  0  0
   26.4379   23.4584   -1.7839 N   0  0  0  0  0  0  0  0  0  0  0  0
   23.9911   28.3822    4.5770 C   0  0  0  0  0  0  0  0  0  0  0  0
   22.9521   29.1101    5.3753 N   0  0  0  0  0  0  0  0  0  0  0  0
   23.4706   29.8437    6.6414 C   0  0  0  0  0  0  0  0  0  0  0  0
  1  2  1  1  0  0  0
  1  9  1  0  0  0  0
  1 35  1  0  0  0  0
  3  4  1  1  0  0  0
  3 11  1  0  0  0  0
  3 45  1  0  0  0  0
  5  6  1  0  0  0  0
  5 12  1  0  0  0  0
  5 37  1  1  0  0  0
  6 30  1  0  0  0  0
  7 14  1  0  0  0  0
  7 41  1  0  0  0  0
  7 23  1  1  0  0  0
  8 16  2  0  0  0  0
  8 42  1  0  0  0  0
  9 10  1  1  0  0  0
  9 18  1  0  0  0  0
 11 20  1  0  0  0  0
 12 13  1  6  0  0  0
 12 22  1  0  0  0  0
 13 47  1  0  0  0  0
 14 15  1  6  0  0  0
 14 24  1  0  0  0  0
 16 17  1  0  0  0  0
 17 26  2  0  0  0  0
 18 19  1  1  0  0  0
 18 27  1  0  0  0  0
 20 21  1  1  0  0  0
 20 29  1  0  0  0  0
 22 23  1  6  0  0  0
 22 30  1  0  0  0  0
 24 25  1  1  0  0  0
 24 31  1  0  0  0  0
 26 33  1  0  0  0  0
 27 28  1  1  0  0  0
 27 34  1  0  0  0  0
 29  2  1  6  0  0  0
 29 36  1  0  0  0  0
 30 38  1  1  0  0  0
 31 32  1  6  0  0  0
 31 40  1  0  0  0  0
 33 42  2  0  0  0  0
 34 35  1  0  0  0  0
 34 43  1  6  0  0  0
 36 37  1  6  0  0  0
 36 45  1  0  0  0  0
 38 39  1  0  0  0  0
 40 41  1  0  0  0  0
 40 48  1  6  0  0  0
 43 44  1  0  0  0  0
 45 46  1  6  0  0  0
 47 50  1  0  0  0  0
 48 49  1  0  0  0  0
 50 51  1  0  0  0  0
 51 52  1  0  0  0  0
 52  8  1  0  0  0  0
M  END
>  <CHROM.1>
94.94180449,-50.73099139,-103.27325173,24.13261863,158.16090974,177.33444687
-150.38213401,-7.11126532,-73.96161174,-152.17008615,-89.35911129,-173.51112023
67.58219538,92.73484942,4.63858707,27.01698306,25.78734421,6.07307335,-1.90622180
1.08596966,-1.89431233

>  <Name>
2be0_lig

>  <RI>
2.57068e+07

>  <Rbt.Current_Directory>
/home/itssahil/PROJECTS/Mol_Feturizer/New_Systems/rnas/2be0

>  <Rbt.Executable>
rbdock ($Id: //depot/dev/client3/rdock/2013.1/src/exe/rbdock.cxx#4 $)

>  <Rbt.Library>
libRbt.so (2013.1, Build901 2013/11/27)

>  <Rbt.Parameter_File>
/export/apps/rDock/src/rDock_2013.1_src/data/scripts/dock_solv.prm

>  <Rbt.Receptor>
prm/blind_docking_60.prm

>  <SCORE>
5.6728

>  <SCORE.INTER>
-8.17561

>  <SCORE.INTER.CONST>
1

>  <SCORE.INTER.POLAR>
-2.27606

>  <SCORE.INTER.ROT>
15

>  <SCORE.INTER.SOLV>
36.6323

>  <SCORE.INTER.VDW>
-23.6743

>  <SCORE.INTER.norm>
-0.157223

>  <SCORE.INTRA>
2.77253

>  <SCORE.INTRA.DIHEDRAL>
-13.6622

>  <SCORE.INTRA.DIHEDRAL.0>
47.8724

>  <SCORE.INTRA.POLAR>
0

>  <SCORE.INTRA.POLAR.0>
0

>  <SCORE.INTRA.REPUL>
0

>  <SCORE.INTRA.REPUL.0>
0

>  <SCORE.INTRA.SOLV>
1.61619

>  <SCORE.INTRA.SOLV.lig_0>
-115.677

>  <SCORE.INTRA.VDW>
8.79552

>  <SCORE.INTRA.VDW.0>
-7.4833

>  <SCORE.INTRA.norm>
0.0533179

>  <SCORE.RESTR>
11.0759

>  <SCORE.RESTR.CAVITY>
11.0759

>  <SCORE.RESTR.norm>
0.212998

>  <SCORE.SYSTEM>
0

>  <SCORE.SYSTEM.CONST>
0

>  <SCORE.SYSTEM.DIHEDRAL>
0

>  <SCORE.SYSTEM.SOLV>
0

>  <SCORE.SYSTEM.norm>
0

>  <SCORE.heavy>
52

>  <SCORE.norm>
0.109092

>  <RMSD>
30.267

$$$$
2be0_lig
 OpenBabel11021811423D
libRbt.so/2013.1/901 2013/11/27
 52 56  0  0  0  0  0  0  0  0999 V2000
   28.1094   25.7069   10.2677 C   0  0  2  0  0  0  0  0  0  0  0  0
   28.0513   24.6645    9.3227 O   0  0  0  0  0  0  0  0  0  0  0  0
   25.1787   21.5953    8.0193 C   0  0  2  0  0  0  0  0  0  0  0  0
   23.8847   20.8769    7.8492 N   0  0  0  0  0  0  0  0  0  0  0  0
   26.1042   25.3095    5.7066 C   0  0  2  0  0  0  0  0  0  0  0  0
   26.7599   26.4692    5.1538 O   0  0  0  0  0  0  0  0  0  0  0  0
   23.4313   29.2230    5.5189 C   0  0  1  0  0  0  0  0  0  0  0  0
   28.2087   23.2373    1.4649 C   0  0  0  0  0  0  0  0  0  0  0  0
   28.5739   27.0634    9.5969 C   0  0  2  0  0  0  0  0  0  0  0  0
   27.7082   27.3747    8.4575 N   0  0  0  0  0  0  0  0  0  0  0  0
   25.4743   21.7779    9.5774 C   0  0  0  0  0  0  0  0  0  0  0  0
   24.5919   25.5581    5.5899 C   0  0  2  0  0  0  0  0  0  0  0  0
   24.2686   25.1014    4.2027 O   0  0  0  0  0  0  0  0  0  0  0  0
   23.1685   29.7730    7.0255 C   0  0  2  0  0  0  0  0  0  0  0  0
   21.8398   29.2654    7.4973 N   0  0  0  0  0  0  0  0  0  0  0  0
   28.5135   22.3007    0.4233 C   0  0  0  0  0  0  0  0  0  0  0  0
   29.3262   21.1722    0.7081 N   0  0  0  0  0  0  0  0  0  0  0  0
   30.1101   26.9525    9.1684 C   0  0  1  0  0  0  0  0  0  0  0  0
   30.5042   28.1743    8.5632 O   0  0  0  0  0  0  0  0  0  0  0  0
   26.8814   22.5760    9.8074 C   0  0  2  0  0  0  0  0  0  0  0  0
   27.1601   22.7448   11.2057 N   0  0  0  0  0  0  0  0  0  0  0  0
   24.5738   27.0616    5.9244 C   0  0  2  0  0  0  0  0  0  0  0  0
   23.4025   27.7855    5.5773 O   0  0  0  0  0  0  0  0  0  0  0  0
   23.1834   31.3307    6.9753 C   0  0  1  0  0  0  0  0  0  0  0  0
   24.5295   31.7139    6.5186 O   0  0  0  0  0  0  0  0  0  0  0  0
   29.8692   20.9137    1.9990 C   0  0  0  0  0  0  0  0  0  0  0  0
   30.9560   26.6343   10.4354 C   0  0  2  0  0  0  0  0  0  0  0  0
   32.3954   26.5151   10.0990 O   0  0  0  0  0  0  0  0  0  0  0  0
   26.8160   23.9940    9.1043 C   0  0  2  0  0  0  0  0  0  0  0  0
   25.8613   27.5933    5.2507 C   0  0  1  0  0  0  0  0  0  0  0  0
   22.0401   31.8652    5.9490 C   0  0  2  0  0  0  0  0  0  0  0  0
   20.6919   31.4856    6.3990 O   0  0  0  0  0  0  0  0  0  0  0  0
   29.6012   21.8036    3.0681 C   0  0  0  0  0  0  0  0  0  0  0  0
   30.4784   25.2807   11.0891 C   0  0  2  0  0  0  0  0  0  0  0  0
   29.0670   25.4588   11.3909 O   0  0  0  0  0  0  0  0  0  0  0  0
   26.5138   23.7592    7.5836 C   0  0  2  0  0  0  0  0  0  0  0  0
   26.4907   25.0807    7.0578 O   0  0  0  0  0  0  0  0  0  0  0  0
   26.5649   28.6549    6.0946 C   0  0  0  0  0  0  0  0  0  0  0  0
   25.9008   29.8924    6.1880 O   0  0  0  0  0  0  0  0  0  0  0  0
   22.3088   31.2625    4.4939 C   0  0  1  0  0  0  0  0  0  0  0  0
   22.3330   29.7514    4.5967 O   0  0  0  0  0  0  0  0  0  0  0  0
   28.7588   22.9971    2.8223 C   0  0  0  0  0  0  0  0  0  0  0  0
   31.2969   25.0450   12.2893 C   0  0  0  0  0  0  0  0  0  0  0  0
   30.8488   25.8103   13.2924 O   0  0  0  0  0  0  0  0  0  0  0  0
   25.1277   23.0103    7.3960 C   0  0  1  0  0  0  0  0  0  0  0  0
   24.8795   22.8007    6.0448 O   0  0  0  0  0  0  0  0  0  0  0  0
   24.4724   23.7599    3.6067 C   0  0  0  0  0  0  0  0  0  0  0  0
   21.1851   31.7957    3.5640 C   0  0  0  0  0  0  0  0  0  0  0  0
   21.3269   33.2159    3.3597 N   0  0  0  0  0  0  0  0  0  0  0  0
   25.9346   23.6818    3.1557 C   0  0  0  0  0  0  0  0  0  0  0  0
   26.2246   24.8054    2.2070 N   0  0  0  0  0  0  0  0  0  0  0  0
   27.2856   24.5043    1.1144 C   0  0  0  0  0  0  0  0  0  0  0  0
  1  2  1  6  0  0  0
  1  9  1  0  0  0  0
  1 35  1  0  0  0  0
  3  4  1  1  0  0  0
  3 11  1  0  0  0  0
  3 45  1  0  0  0  0
  5  6  1  0  0  0  0
  5 12  1  0  0  0  0
  5 37  1  1  0  0  0
  6 30  1  0  0  0  0
  7 14  1  0  0  0  0
  7 41  1  0  0  0  0
  7 23  1  1  0  0  0
  8 16  2  0  0  0  0
  8 42  1  0  0  0  0
  9 10  1  6  0  0  0
  9 18  1  0  0  0  0
 11 20  1  0  0  0  0
 12 13  1  6  0  0  0
 12 22  1  0  0  0  0
 13 47  1  0  0  0  0
 14 15  1  6  0  0  0
 14 24  1  0  0  0  0
 16 17  1  0  0  0  0
 17 26  2  0  0  0  0
 18 19  1  1  0  0  0
 18 27  1  0  0  0  0
 20 21  1  1  0  0  0
 20 29  1  0  0  0  0
 22 23  1  6  0  0  0
 22 30  1  0  0  0  0
 24 25  1  6  0  0  0
 24 31  1  0  0  0  0
 26 33  1  0  0  0  0
 27 28  1  6  0  0  0
 27 34  1  0  0  0  0
 29  2  1  6  0  0  0
 29 36  1  0  0  0  0
 30 38  1  1  0  0  0
 31 32  1  1  0  0  0
 31 40  1  0  0  0  0
 33 42  2  0  0  0  0
 34 35  1  0  0  0  0
 34 43  1  1  0  0  0
 36 37  1  6  0  0  0
 36 45  1  0  0  0  0
 38 39  1  0  0  0  0
 40 41  1  0  0  0  0
 40 48  1  6  0  0  0
 43 44  1  0  0  0  0
 45 46  1  6  0  0  0
 47 50  1  0  0  0  0
 48 49  1  0  0  0  0
 50 51  1  0  0  0  0
 51 52  1  0  0  0  0
 52  8  1  0  0  0  0
M  END
>  <CHROM.1>
-120.83582285,-150.00143122,-85.13161909,58.74174460,-82.25922628,-163.30472767
-104.55363321,173.60598065,78.36561095,-173.43044820,68.38908784,-56.60254425
-148.54734709,-18.26269196,137.52398428,26.31442240,26.13897994,6.57901601
-0.13895579,-0.84723425,0.91406774

>  <Name>
2be0_lig

>  <RI>
2.57068e+07

>  <Rbt.Current_Directory>
/home/itssahil/PROJECTS/Mol_Feturizer/New_Systems/rnas/2be0

>  <Rbt.Executable>
rbdock ($Id: //depot/dev/client3/rdock/2013.1/src/exe/rbdock.cxx#4 $)

>  <Rbt.Library>
libRbt.so (2013.1, Build901 2013/11/27)

>  <Rbt.Parameter_File>
/export/apps/rDock/src/rDock_2013.1_src/data/scripts/dock_solv.prm

>  <Rbt.Receptor>
prm/blind_docking_60.prm

>  <SCORE>
45.9256

>  <SCORE.INTER>
22.2214

>  <SCORE.INTER.CONST>
1

>  <SCORE.INTER.POLAR>
-1.04825

>  <SCORE.INTER.ROT>
15

>  <SCORE.INTER.SOLV>
30.3095

>  <SCORE.INTER.VDW>
-5.39469

>  <SCORE.INTER.norm>
0.427335

>  <SCORE.INTRA>
0.23857

>  <SCORE.INTRA.DIHEDRAL>
-20.2857

>  <SCORE.INTRA.DIHEDRAL.0>
47.8724

>  <SCORE.INTRA.POLAR>
0

>  <SCORE.INTRA.POLAR.0>
0

>  <SCORE.INTRA.REPUL>
0

>  <SCORE.INTRA.REPUL.0>
0

>  <SCORE.INTRA.SOLV>
4.76799

>  <SCORE.INTRA.SOLV.lig_0>
-115.677

>  <SCORE.INTRA.VDW>
7.99742

>  <SCORE.INTRA.VDW.0>
-7.4833

>  <SCORE.INTRA.norm>
0.00458788

>  <SCORE.RESTR>
23.4656

>  <SCORE.RESTR.CAVITY>
23.4656

>  <SCORE.RESTR.norm>
0.451262

>  <SCORE.SYSTEM>
0

>  <SCORE.SYSTEM.CONST>
0

>  <SCORE.SYSTEM.DIHEDRAL>
0

>  <SCORE.SYSTEM.SOLV>
0

>  <SCORE.SYSTEM.norm>
0

>  <SCORE.heavy>
52

>  <SCORE.norm>
0.883185

>  <RMSD>
30.309

$$$$
2be0_lig
 OpenBabel11021811423D
libRbt.so/2013.1/901 2013/11/27
 52 56  0  0  0  0  0  0  0  0999 V2000
   28.6071   25.1205   10.8811 C   0  0  2  0  0  0  0  0  0  0  0  0
   27.3142   24.9797   11.4208 O   0  0  0  0  0  0  0  0  0  0  0  0
   24.1943   22.4965    9.5577 C   0  0  2  0  0  0  0  0  0  0  0  0
   23.0360   22.1220    8.6989 N   0  0  0  0  0  0  0  0  0  0  0  0
   27.5245   24.4397    7.6037 C   0  0  2  0  0  0  0  0  0  0  0  0
   28.6652   25.2129    7.1777 O   0  0  0  0  0  0  0  0  0  0  0  0
   24.8941   27.9643    8.0600 C   0  0  1  0  0  0  0  0  0  0  0  0
   28.8399   24.0065    0.9793 C   0  0  0  0  0  0  0  0  0  0  0  0
   29.4671   23.8103   11.1039 C   0  0  2  0  0  0  0  0  0  0  0  0
   28.7501   22.6502   10.5704 N   0  0  0  0  0  0  0  0  0  0  0  0
   23.7672   23.6997   10.5159 C   0  0  0  0  0  0  0  0  0  0  0  0
   26.3139   25.3865    7.5802 C   0  0  2  0  0  0  0  0  0  0  0  0
   25.8483   25.3234    6.1601 O   0  0  0  0  0  0  0  0  0  0  0  0
   24.3685   29.2043    7.1504 C   0  0  2  0  0  0  0  0  0  0  0  0
   25.0419   30.4600    7.6148 N   0  0  0  0  0  0  0  0  0  0  0  0
   30.0308   24.7965    1.0902 C   0  0  0  0  0  0  0  0  0  0  0  0
   31.0492   24.6751    0.1088 N   0  0  0  0  0  0  0  0  0  0  0  0
   29.8006   23.6444   12.6586 C   0  0  1  0  0  0  0  0  0  0  0  0
   30.5644   22.4617   12.8376 O   0  0  0  0  0  0  0  0  0  0  0  0
   25.0171   24.1509   11.4667 C   0  0  2  0  0  0  0  0  0  0  0  0
   24.6450   25.2316   12.3355 N   0  0  0  0  0  0  0  0  0  0  0  0
   27.0016   26.6613    8.1043 C   0  0  2  0  0  0  0  0  0  0  0  0
   26.3222   27.8913    7.8995 O   0  0  0  0  0  0  0  0  0  0  0  0
   22.8230   29.3042    7.3251 C   0  0  1  0  0  0  0  0  0  0  0  0
   22.2706   28.0341    6.8262 O   0  0  0  0  0  0  0  0  0  0  0  0
   30.9525   23.7912   -1.0036 C   0  0  0  0  0  0  0  0  0  0  0  0
   30.5703   24.9093   13.1378 C   0  0  2  0  0  0  0  0  0  0  0  0
   30.9051   24.8151   14.5794 O   0  0  0  0  0  0  0  0  0  0  0  0
   26.2445   24.5915   10.5673 C   0  0  2  0  0  0  0  0  0  0  0  0
   28.4041   26.6045    7.4531 C   0  0  1  0  0  0  0  0  0  0  0  0
   22.4538   29.5304    8.8930 C   0  0  2  0  0  0  0  0  0  0  0  0
   23.0032   30.7980    9.3987 O   0  0  0  0  0  0  0  0  0  0  0  0
   29.7984   22.9860   -1.1665 C   0  0  0  0  0  0  0  0  0  0  0  0
   29.6983   26.2032   12.9073 C   0  0  2  0  0  0  0  0  0  0  0  0
   29.4012   26.2367   11.4841 O   0  0  0  0  0  0  0  0  0  0  0  0
   26.6159   23.3821    9.6408 C   0  0  2  0  0  0  0  0  0  0  0  0
   27.7220   23.8803    8.8981 O   0  0  0  0  0  0  0  0  0  0  0  0
   29.5048   27.0862    8.3967 C   0  0  0  0  0  0  0  0  0  0  0  0
   30.6690   26.2956    8.4230 O   0  0  0  0  0  0  0  0  0  0  0  0
   23.0303   28.3149    9.7552 C   0  0  1  0  0  0  0  0  0  0  0  0
   24.5240   28.2249    9.5198 O   0  0  0  0  0  0  0  0  0  0  0  0
   28.7071   23.0751   -0.1687 C   0  0  0  0  0  0  0  0  0  0  0  0
   30.4837   27.3636   13.3574 C   0  0  0  0  0  0  0  0  0  0  0  0
   31.3868   27.6813   12.4214 O   0  0  0  0  0  0  0  0  0  0  0  0
   25.3912   22.9907    8.7111 C   0  0  1  0  0  0  0  0  0  0  0  0
   25.7325   21.9118    7.9043 O   0  0  0  0  0  0  0  0  0  0  0  0
   26.6563   25.4370    4.9230 C   0  0  0  0  0  0  0  0  0  0  0  0
   22.6589   28.5899   11.2377 C   0  0  0  0  0  0  0  0  0  0  0  0
   22.7943   27.3900   12.0256 N   0  0  0  0  0  0  0  0  0  0  0  0
   27.2551   24.0546    4.6442 C   0  0  0  0  0  0  0  0  0  0  0  0
   28.2718   24.1631    3.5482 N   0  0  0  0  0  0  0  0  0  0  0  0
   27.7035   24.1656    2.1035 C   0  0  0  0  0  0  0  0  0  0  0  0
  1  2  1  1  0  0  0
  1  9  1  0  0  0  0
  1 35  1  0  0  0  0
  3  4  1  6  0  0  0
  3 11  1  0  0  0  0
  3 45  1  0  0  0  0
  5  6  1  0  0  0  0
  5 12  1  0  0  0  0
  5 37  1  1  0  0  0
  6 30  1  0  0  0  0
  7 14  1  0  0  0  0
  7 41  1  0  0  0  0
  7 23  1  1  0  0  0
  8 16  2  0  0  0  0
  8 42  1  0  0  0  0
  9 10  1  1  0  0  0
  9 18  1  0  0  0  0
 11 20  1  0  0  0  0
 12 13  1  6  0  0  0
 12 22  1  0  0  0  0
 13 47  1  0  0  0  0
 14 15  1  1  0  0  0
 14 24  1  0  0  0  0
 16 17  1  0  0  0  0
 17 26  2  0  0  0  0
 18 19  1  6  0  0  0
 18 27  1  0  0  0  0
 20 21  1  6  0  0  0
 20 29  1  0  0  0  0
 22 23  1  6  0  0  0
 22 30  1  0  0  0  0
 24 25  1  1  0  0  0
 24 31  1  0  0  0  0
 26 33  1  0  0  0  0
 27 28  1  1  0  0  0
 27 34  1  0  0  0  0
 29  2  1  1  0  0  0
 29 36  1  0  0  0  0
 30 38  1  1  0  0  0
 31 32  1  1  0  0  0
 31 40  1  0  0  0  0
 33 42  2  0  0  0  0
 34 35  1  0  0  0  0
 34 43  1  6  0  0  0
 36 37  1  6  0  0  0
 36 45  1  0  0  0  0
 38 39  1  0  0  0  0
 40 41  1  0  0  0  0
 40 48  1  1  0  0  0
 43 44  1  0  0  0  0
 45 46  1  6  0  0  0
 47 50  1  0  0  0  0
 48 49  1  0  0  0  0
 50 51  1  0  0  0  0
 51 52  1  0  0  0  0
 52  8  1  0  0  0  0
M  END
>  <CHROM.1>
-96.38640312,163.82006885,-154.81322305,-47.63941979,82.78847460,39.82139113
165.62486987,19.55318951,78.53298133,-96.06796168,163.61419468,-170.07866104
-81.95351018,-169.21909203,-45.78741630,27.06256390,25.56886585,8.30197119
-1.79340752,0.52813413,-1.64348864

>  <Name>
2be0_lig

>  <RI>
2.57068e+07

>  <Rbt.Current_Directory>
/home/itssahil/PROJECTS/Mol_Feturizer/New_Systems/rnas/2be0

>  <Rbt.Executable>
rbdock ($Id: //depot/dev/client3/rdock/2013.1/src/exe/rbdock.cxx#4 $)

>  <Rbt.Library>
libRbt.so (2013.1, Build901 2013/11/27)

>  <Rbt.Parameter_File>
/export/apps/rDock/src/rDock_2013.1_src/data/scripts/dock_solv.prm

>  <Rbt.Receptor>
prm/blind_docking_60.prm

>  <SCORE>
47.0118

>  <SCORE.INTER>
22.6315

>  <SCORE.INTER.CONST>
1

>  <SCORE.INTER.POLAR>
-1.596

>  <SCORE.INTER.ROT>
15

>  <SCORE.INTER.SOLV>
37.7965

>  <SCORE.INTER.VDW>
-5.79114

>  <SCORE.INTER.norm>
0.435222

>  <SCORE.INTRA>
4.57422

>  <SCORE.INTRA.DIHEDRAL>
-20.7458

>  <SCORE.INTRA.DIHEDRAL.0>
47.8724

>  <SCORE.INTRA.POLAR>
0

>  <SCORE.INTRA.POLAR.0>
0

>  <SCORE.INTRA.REPUL>
0.247295

>  <SCORE.INTRA.REPUL.0>
0

>  <SCORE.INTRA.SOLV>
4.21909

>  <SCORE.INTRA.SOLV.lig_0>
-115.677

>  <SCORE.INTRA.VDW>
11.6011

>  <SCORE.INTRA.VDW.0>
-7.4833

>  <SCORE.INTRA.norm>
0.0879657

>  <SCORE.RESTR>
19.8061

>  <SCORE.RESTR.CAVITY>
19.8061

>  <SCORE.RESTR.norm>
0.380886

>  <SCORE.SYSTEM>
0

>  <SCORE.SYSTEM.CONST>
0

>  <SCORE.SYSTEM.DIHEDRAL>
0

>  <SCORE.SYSTEM.SOLV>
0

>  <SCORE.SYSTEM.norm>
0

>  <SCORE.heavy>
52

>  <SCORE.norm>
0.904073

>  <RMSD>
30.331

$$$$
2be0_lig
 OpenBabel11021811423D
libRbt.so/2013.1/901 2013/11/27
 52 56  0  0  0  0  0  0  0  0999 V2000
   24.3861   30.3886    6.0853 C   0  0  2  0  0  0  0  0  0  0  0  0
   24.9716   29.3450    5.3430 O   0  0  0  0  0  0  0  0  0  0  0  0
   21.5988   26.8424    4.0269 C   0  0  2  0  0  0  0  0  0  0  0  0
   20.7173   26.0502    3.1242 N   0  0  0  0  0  0  0  0  0  0  0  0
   25.5047   25.1984    5.3484 C   0  0  2  0  0  0  0  0  0  0  0  0
   24.4711   24.6034    6.1596 O   0  0  0  0  0  0  0  0  0  0  0  0
   27.9324   25.6067    9.3838 C   0  0  1  0  0  0  0  0  0  0  0  0
   30.0162   24.0736    0.7972 C   0  0  0  0  0  0  0  0  0  0  0  0
   25.3682   30.9126    7.2107 C   0  0  2  0  0  0  0  0  0  0  0  0
   26.6511   31.2886    6.6130 N   0  0  0  0  0  0  0  0  0  0  0  0
   21.7481   28.3216    3.4456 C   0  0  0  0  0  0  0  0  0  0  0  0
   26.8353   24.9568    6.0789 C   0  0  2  0  0  0  0  0  0  0  0  0
   27.2406   23.5906    5.6241 O   0  0  0  0  0  0  0  0  0  0  0  0
   29.0042   26.3566    8.4192 C   0  0  2  0  0  0  0  0  0  0  0  0
   29.8974   25.3248    7.8002 N   0  0  0  0  0  0  0  0  0  0  0  0
   30.7838   25.2155    0.3951 C   0  0  0  0  0  0  0  0  0  0  0  0
   32.1603   25.0633    0.0835 N   0  0  0  0  0  0  0  0  0  0  0  0
   25.5391   29.7928    8.3388 C   0  0  1  0  0  0  0  0  0  0  0  0
   26.4279   30.2786    9.3329 O   0  0  0  0  0  0  0  0  0  0  0  0
   22.7213   29.2210    4.4015 C   0  0  2  0  0  0  0  0  0  0  0  0
   22.8621   30.5553    3.8904 N   0  0  0  0  0  0  0  0  0  0  0  0
   26.3518   25.1697    7.5258 C   0  0  2  0  0  0  0  0  0  0  0  0
   27.1908   24.6854    8.5641 O   0  0  0  0  0  0  0  0  0  0  0  0
   29.8250   27.3490    9.2970 C   0  0  1  0  0  0  0  0  0  0  0  0
   28.8565   28.3181    9.8358 O   0  0  0  0  0  0  0  0  0  0  0  0
   32.8368   23.8120    0.1514 C   0  0  0  0  0  0  0  0  0  0  0  0
   24.1361   29.4638    8.9267 C   0  0  2  0  0  0  0  0  0  0  0  0
   24.2301   28.4240    9.9798 O   0  0  0  0  0  0  0  0  0  0  0  0
   24.1478   28.5403    4.5081 C   0  0  2  0  0  0  0  0  0  0  0  0
   24.9348   24.5483    7.5244 C   0  0  1  0  0  0  0  0  0  0  0  0
   30.5773   26.5428   10.4928 C   0  0  2  0  0  0  0  0  0  0  0  0
   31.5466   25.5719    9.9616 O   0  0  0  0  0  0  0  0  0  0  0  0
   32.1297   22.6481    0.5416 C   0  0  0  0  0  0  0  0  0  0  0  0
   23.1727   28.9443    7.7912 C   0  0  2  0  0  0  0  0  0  0  0  0
   23.1255   30.0006    6.7927 O   0  0  0  0  0  0  0  0  0  0  0  0
   23.9443   27.0913    5.0719 C   0  0  2  0  0  0  0  0  0  0  0  0
   25.2728   26.5872    5.1363 O   0  0  0  0  0  0  0  0  0  0  0  0
   23.9445   25.3532    8.3644 C   0  0  0  0  0  0  0  0  0  0  0  0
   24.5193   26.2577    9.2769 O   0  0  0  0  0  0  0  0  0  0  0  0
   29.4920   25.7825   11.3855 C   0  0  1  0  0  0  0  0  0  0  0  0
   28.6875   24.8660   10.4869 O   0  0  0  0  0  0  0  0  0  0  0  0
   30.6910   22.7541    0.8779 C   0  0  0  0  0  0  0  0  0  0  0  0
   21.8613   28.6715    8.4010 C   0  0  0  0  0  0  0  0  0  0  0  0
   22.0005   27.7556    9.3676 O   0  0  0  0  0  0  0  0  0  0  0  0
   23.0206   26.2375    4.1048 C   0  0  1  0  0  0  0  0  0  0  0  0
   22.8416   24.9605    4.6231 O   0  0  0  0  0  0  0  0  0  0  0  0
   27.0576   22.9756    4.2883 C   0  0  0  0  0  0  0  0  0  0  0  0
   30.2657   25.0250   12.4987 C   0  0  0  0  0  0  0  0  0  0  0  0
   30.9675   23.8923   11.9480 N   0  0  0  0  0  0  0  0  0  0  0  0
   28.3463   23.2199    3.4965 C   0  0  0  0  0  0  0  0  0  0  0  0
   28.1918   24.4546    2.6608 N   0  0  0  0  0  0  0  0  0  0  0  0
   28.4603   24.2751    1.1423 C   0  0  0  0  0  0  0  0  0  0  0  0
  1  2  1  1  0  0  0
  1  9  1  0  0  0  0
  1 35  1  0  0  0  0
  3  4  1  6  0  0  0
  3 11  1  0  0  0  0
  3 45  1  0  0  0  0
  5  6  1  0  0  0  0
  5 12  1  0  0  0  0
  5 37  1  1  0  0  0
  6 30  1  0  0  0  0
  7 14  1  0  0  0  0
  7 41  1  0  0  0  0
  7 23  1  6  0  0  0
  8 16  2  0  0  0  0
  8 42  1  0  0  0  0
  9 10  1  6  0  0  0
  9 18  1  0  0  0  0
 11 20  1  0  0  0  0
 12 13  1  1  0  0  0
 12 22  1  0  0  0  0
 13 47  1  0  0  0  0
 14 15  1  1  0  0  0
 14 24  1  0  0  0  0
 16 17  1  0  0  0  0
 17 26  2  0  0  0  0
 18 19  1  1  0  0  0
 18 27  1  0  0  0  0
 20 21  1  6  0  0  0
 20 29  1  0  0  0  0
 22 23  1  1  0  0  0
 22 30  1  0  0  0  0
 24 25  1  1  0  0  0
 24 31  1  0  0  0  0
 26 33  1  0  0  0  0
 27 28  1  1  0  0  0
 27 34  1  0  0  0  0
 29  2  1  1  0  0  0
 29 36  1  0  0  0  0
 30 38  1  1  0  0  0
 31 32  1  6  0  0  0
 31 40  1  0  0  0  0
 33 42  2  0  0  0  0
 34 35  1  0  0  0  0
 34 43  1  1  0  0  0
 36 37  1  6  0  0  0
 36 45  1  0  0  0  0
 38 39  1  0  0  0  0
 40 41  1  0  0  0  0
 40 48  1  1  0  0  0
 43 44  1  0  0  0  0
 45 46  1  1  0  0  0
 47 50  1  0  0  0  0
 48 49  1  0  0  0  0
 50 51  1  0  0  0  0
 51 52  1  0  0  0  0
 52  8  1  0  0  0  0
M  END
>  <CHROM.1>
165.35861663,-31.51248748,-64.83057618,36.32870382,94.29263594,107.64746349
10.97724748,-133.52031415,-59.13902031,-167.37731669,-72.18481133,-94.77491480
-125.07727383,-72.25151837,-96.18821198,26.48478574,26.49673854,6.37221044
2.50573910,-0.47155765,1.33628984

>  <Name>
2be0_lig

>  <RI>
2.57068e+07

>  <Rbt.Current_Directory>
/home/itssahil/PROJECTS/Mol_Feturizer/New_Systems/rnas/2be0

>  <Rbt.Executable>
rbdock ($Id: //depot/dev/client3/rdock/2013.1/src/exe/rbdock.cxx#4 $)

>  <Rbt.Library>
libRbt.so (2013.1, Build901 2013/11/27)

>  <Rbt.Parameter_File>
/export/apps/rDock/src/rDock_2013.1_src/data/scripts/dock_solv.prm

>  <Rbt.Receptor>
prm/blind_docking_60.prm

>  <SCORE>
45.6702

>  <SCORE.INTER>
18.0354

>  <SCORE.INTER.CONST>
1

>  <SCORE.INTER.POLAR>
-1.25855

>  <SCORE.INTER.ROT>
15

>  <SCORE.INTER.SOLV>
37.4328

>  <SCORE.INTER.VDW>
-9.85881

>  <SCORE.INTER.norm>
0.346835

>  <SCORE.INTRA>
8.19508

>  <SCORE.INTRA.DIHEDRAL>
-11.9714

>  <SCORE.INTRA.DIHEDRAL.0>
47.8724

>  <SCORE.INTRA.POLAR>
0

>  <SCORE.INTRA.POLAR.0>
0

>  <SCORE.INTRA.REPUL>
0

>  <SCORE.INTRA.REPUL.0>
0

>  <SCORE.INTRA.SOLV>
3.96104

>  <SCORE.INTRA.SOLV.lig_0>
-115.677

>  <SCORE.INTRA.VDW>
12.2003

>  <SCORE.INTRA.VDW.0>
-7.4833

>  <SCORE.INTRA.norm>
0.157598

>  <SCORE.RESTR>
19.4397

>  <SCORE.RESTR.CAVITY>
19.4397

>  <SCORE.RESTR.norm>
0.37384

>  <SCORE.SYSTEM>
0

>  <SCORE.SYSTEM.CONST>
0

>  <SCORE.SYSTEM.DIHEDRAL>
0

>  <SCORE.SYSTEM.SOLV>
0

>  <SCORE.SYSTEM.norm>
0

>  <SCORE.heavy>
52

>  <SCORE.norm>
0.878273

>  <RMSD>
30.420

$$$$
2be0_lig
 OpenBabel11021811423D
libRbt.so/2013.1/901 2013/11/27
 52 56  0  0  0  0  0  0  0  0999 V2000
   29.3371   26.4358    8.6645 C   0  0  2  0  0  0  0  0  0  0  0  0
   29.0167   25.3283    9.4729 O   0  0  0  0  0  0  0  0  0  0  0  0
   25.1620   23.2955   10.0891 C   0  0  2  0  0  0  0  0  0  0  0  0
   23.7613   23.0666   10.5420 N   0  0  0  0  0  0  0  0  0  0  0  0
   26.6674   25.6851    6.3671 C   0  0  2  0  0  0  0  0  0  0  0  0
   26.9609   26.9014    5.6495 O   0  0  0  0  0  0  0  0  0  0  0  0
   22.5873   28.1288    5.6777 C   0  0  1  0  0  0  0  0  0  0  0  0
   26.3475   23.5935   -0.8787 C   0  0  0  0  0  0  0  0  0  0  0  0
   30.8639   26.4184    8.2472 C   0  0  2  0  0  0  0  0  0  0  0  0
   31.1903   25.1383    7.6154 N   0  0  0  0  0  0  0  0  0  0  0  0
   26.0685   23.6522   11.3537 C   0  0  0  0  0  0  0  0  0  0  0  0
   25.2050   25.3290    6.0556 C   0  0  2  0  0  0  0  0  0  0  0  0
   25.2964   24.5693    4.7703 O   0  0  0  0  0  0  0  0  0  0  0  0
   22.5138   28.9112    4.2551 C   0  0  2  0  0  0  0  0  0  0  0  0
   23.9099   29.1985    3.7922 N   0  0  0  0  0  0  0  0  0  0  0  0
   25.7566   23.6246   -2.1844 C   0  0  0  0  0  0  0  0  0  0  0  0
   25.8035   22.4674   -3.0052 N   0  0  0  0  0  0  0  0  0  0  0  0
   31.7749   26.7018    9.5300 C   0  0  1  0  0  0  0  0  0  0  0  0
   33.1382   26.6745    9.1365 O   0  0  0  0  0  0  0  0  0  0  0  0
   27.6134   23.9251   10.8968 C   0  0  2  0  0  0  0  0  0  0  0  0
   28.4402   24.2450   12.0262 N   0  0  0  0  0  0  0  0  0  0  0  0
   24.6095   26.7496    6.0643 C   0  0  2  0  0  0  0  0  0  0  0  0
   23.3347   26.9183    5.4620 O   0  0  0  0  0  0  0  0  0  0  0  0
   21.7179   30.2327    4.4766 C   0  0  1  0  0  0  0  0  0  0  0  0
   20.3692   29.8318    4.9098 O   0  0  0  0  0  0  0  0  0  0  0  0
   26.4200   21.2508   -2.5956 C   0  0  0  0  0  0  0  0  0  0  0  0
   31.3722   28.0809   10.1285 C   0  0  2  0  0  0  0  0  0  0  0  0
   32.1836   28.3985   11.3285 O   0  0  0  0  0  0  0  0  0  0  0  0
   27.6622   25.1131    9.8500 C   0  0  2  0  0  0  0  0  0  0  0  0
   25.7245   27.6086    5.4217 C   0  0  1  0  0  0  0  0  0  0  0  0
   22.4527   31.1419    5.6077 C   0  0  2  0  0  0  0  0  0  0  0  0
   23.8016   31.5460    5.1816 O   0  0  0  0  0  0  0  0  0  0  0  0
   27.0196   21.1600   -1.3153 C   0  0  0  0  0  0  0  0  0  0  0  0
   29.8489   28.0787   10.5373 C   0  0  2  0  0  0  0  0  0  0  0  0
   29.1104   27.7592    9.3260 O   0  0  0  0  0  0  0  0  0  0  0  0
   26.7502   24.7181    8.6370 C   0  0  2  0  0  0  0  0  0  0  0  0
   26.8788   25.8362    7.7671 O   0  0  0  0  0  0  0  0  0  0  0  0
   25.8639   28.9762    6.0883 C   0  0  0  0  0  0  0  0  0  0  0  0
   25.6904   30.0847    5.2384 O   0  0  0  0  0  0  0  0  0  0  0  0
   22.5467   30.3176    6.9731 C   0  0  1  0  0  0  0  0  0  0  0  0
   23.2846   29.0226    6.7027 O   0  0  0  0  0  0  0  0  0  0  0  0
   26.9981   22.3405   -0.4208 C   0  0  0  0  0  0  0  0  0  0  0  0
   29.5232   29.4098   11.0742 C   0  0  0  0  0  0  0  0  0  0  0  0
   30.5255   29.8339   11.8541 O   0  0  0  0  0  0  0  0  0  0  0  0
   25.2533   24.4907    9.1111 C   0  0  1  0  0  0  0  0  0  0  0  0
   24.4607   24.1316    8.0274 O   0  0  0  0  0  0  0  0  0  0  0  0
   26.4668   24.4189    3.8737 C   0  0  0  0  0  0  0  0  0  0  0  0
   23.2637   31.2273    8.0075 C   0  0  0  0  0  0  0  0  0  0  0  0
   22.3553   32.2194    8.5264 N   0  0  0  0  0  0  0  0  0  0  0  0
   25.9273   24.1414    2.4669 C   0  0  0  0  0  0  0  0  0  0  0  0
   26.8689   24.7124    1.4499 N   0  0  0  0  0  0  0  0  0  0  0  0
   26.2783   24.9171    0.0289 C   0  0  0  0  0  0  0  0  0  0  0  0
  1  2  1  1  0  0  0
  1  9  1  0  0  0  0
  1 35  1  0  0  0  0
  3  4  1  1  0  0  0
  3 11  1  0  0  0  0
  3 45  1  0  0  0  0
  5  6  1  0  0  0  0
  5 12  1  0  0  0  0
  5 37  1  1  0  0  0
  6 30  1  0  0  0  0
  7 14  1  0  0  0  0
  7 41  1  0  0  0  0
  7 23  1  6  0  0  0
  8 16  2  0  0  0  0
  8 42  1  0  0  0  0
  9 10  1  1  0  0  0
  9 18  1  0  0  0  0
 11 20  1  0  0  0  0
 12 13  1  6  0  0  0
 12 22  1  0  0  0  0
 13 47  1  0  0  0  0
 14 15  1  1  0  0  0
 14 24  1  0  0  0  0
 16 17  1  0  0  0  0
 17 26  2  0  0  0  0
 18 19  1  6  0  0  0
 18 27  1  0  0  0  0
 20 21  1  1  0  0  0
 20 29  1  0  0  0  0
 22 23  1  6  0  0  0
 22 30  1  0  0  0  0
 24 25  1  1  0  0  0
 24 31  1  0  0  0  0
 26 33  1  0  0  0  0
 27 28  1  1  0  0  0
 27 34  1  0  0  0  0
 29  2  1  6  0  0  0
 29 36  1  0  0  0  0
 30 38  1  1  0  0  0
 31 32  1  6  0  0  0
 31 40  1  0  0  0  0
 33 42  2  0  0  0  0
 34 35  1  0  0  0  0
 34 43  1  6  0  0  0
 36 37  1  6  0  0  0
 36 45  1  0  0  0  0
 38 39  1  0  0  0  0
 40 41  1  0  0  0  0
 40 48  1  1  0  0  0
 43 44  1  0  0  0  0
 45 46  1  6  0  0  0
 47 50  1  0  0  0  0
 48 49  1  0  0  0  0
 50 51  1  0  0  0  0
 51 52  1  0  0  0  0
 52  8  1  0  0  0  0
M  END
>  <CHROM.1>
-174.61199751,-174.83108077,112.78463903,-10.62581435,-154.40759905,166.59311597
-172.80042787,122.32285954,-41.23442504,154.75126209,77.86901289,148.67032332
-161.57723610,-84.94725639,176.04116047,26.39829738,26.56348958,6.37636991
-1.10228024,0.65303251,-2.12963148

>  <Name>
2be0_lig

>  <RI>
2.57068e+07

>  <Rbt.Current_Directory>
/home/itssahil/PROJECTS/Mol_Feturizer/New_Systems/rnas/2be0

>  <Rbt.Executable>
rbdock ($Id: //depot/dev/client3/rdock/2013.1/src/exe/rbdock.cxx#4 $)

>  <Rbt.Library>
libRbt.so (2013.1, Build901 2013/11/27)

>  <Rbt.Parameter_File>
/export/apps/rDock/src/rDock_2013.1_src/data/scripts/dock_solv.prm

>  <Rbt.Receptor>
prm/blind_docking_60.prm

>  <SCORE>
50.9671

>  <SCORE.INTER>
21.0178

>  <SCORE.INTER.CONST>
1

>  <SCORE.INTER.POLAR>
-1.03289

>  <SCORE.INTER.ROT>
15

>  <SCORE.INTER.SOLV>
38.5304

>  <SCORE.INTER.VDW>
-8.98863

>  <SCORE.INTER.norm>
0.404188

>  <SCORE.INTRA>
6.19845

>  <SCORE.INTRA.DIHEDRAL>
-15.907

>  <SCORE.INTRA.DIHEDRAL.0>
47.8724

>  <SCORE.INTRA.POLAR>
0

>  <SCORE.INTRA.POLAR.0>
0

>  <SCORE.INTRA.REPUL>
0.0240178

>  <SCORE.INTRA.REPUL.0>
0

>  <SCORE.INTRA.SOLV>
0.848047

>  <SCORE.INTRA.SOLV.lig_0>
-115.677

>  <SCORE.INTRA.VDW>
13.6078

>  <SCORE.INTRA.VDW.0>
-7.4833

>  <SCORE.INTRA.norm>
0.119201

>  <SCORE.RESTR>
23.7508

>  <SCORE.RESTR.CAVITY>
23.7508

>  <SCORE.RESTR.norm>
0.456747

>  <SCORE.SYSTEM>
0

>  <SCORE.SYSTEM.CONST>
0

>  <SCORE.SYSTEM.DIHEDRAL>
0

>  <SCORE.SYSTEM.SOLV>
0

>  <SCORE.SYSTEM.norm>
0

>  <SCORE.heavy>
52

>  <SCORE.norm>
0.980136

>  <RMSD>
30.454

$$$$
2be0_lig
 OpenBabel11021811423D
libRbt.so/2013.1/901 2013/11/27
 52 56  0  0  0  0  0  0  0  0999 V2000
   26.2989   24.7113    4.5218 C   0  0  2  0  0  0  0  0  0  0  0  0
   25.5940   23.6164    5.0575 O   0  0  0  0  0  0  0  0  0  0  0  0
   25.1499   22.2743    9.2255 C   0  0  2  0  0  0  0  0  0  0  0  0
   25.5129   21.7185   10.5592 N   0  0  0  0  0  0  0  0  0  0  0  0
   26.6333   26.2563    8.1587 C   0  0  2  0  0  0  0  0  0  0  0  0
   25.4660   26.7800    8.8247 O   0  0  0  0  0  0  0  0  0  0  0  0
   25.5410   30.3506    5.8800 C   0  0  1  0  0  0  0  0  0  0  0  0
   29.8685   24.5239   11.7722 C   0  0  0  0  0  0  0  0  0  0  0  0
   25.5791   25.2811    3.2322 C   0  0  2  0  0  0  0  0  0  0  0  0
   24.1838   25.5987    3.5432 N   0  0  0  0  0  0  0  0  0  0  0  0
   25.5214   21.2086    8.0965 C   0  0  0  0  0  0  0  0  0  0  0  0
   27.3798   27.4598    7.5614 C   0  0  2  0  0  0  0  0  0  0  0  0
   28.2240   27.9459    8.6965 O   0  0  0  0  0  0  0  0  0  0  0  0
   24.8073   31.5523    6.6919 C   0  0  2  0  0  0  0  0  0  0  0  0
   24.0194   30.9587    7.8200 N   0  0  0  0  0  0  0  0  0  0  0  0
   31.0968   23.9406   12.2258 C   0  0  0  0  0  0  0  0  0  0  0  0
   31.8546   24.5922   13.2339 N   0  0  0  0  0  0  0  0  0  0  0  0
   25.7004   24.2249    2.0382 C   0  0  1  0  0  0  0  0  0  0  0  0
   25.0431   24.7507    0.8956 O   0  0  0  0  0  0  0  0  0  0  0  0
   25.1510   21.7868    6.6138 C   0  0  2  0  0  0  0  0  0  0  0  0
   25.4785   20.8362    5.5889 N   0  0  0  0  0  0  0  0  0  0  0  0
   26.1641   28.2871    7.1027 C   0  0  2  0  0  0  0  0  0  0  0  0
   26.3895   29.6591    6.8140 O   0  0  0  0  0  0  0  0  0  0  0  0
   23.8734   32.3026    5.6950 C   0  0  1  0  0  0  0  0  0  0  0  0
   24.7491   32.8534    4.6475 O   0  0  0  0  0  0  0  0  0  0  0  0
   31.4548   25.8212   13.8319 C   0  0  0  0  0  0  0  0  0  0  0  0
   27.2090   23.9559    1.7663 C   0  0  2  0  0  0  0  0  0  0  0  0
   27.3859   22.9767    0.6668 O   0  0  0  0  0  0  0  0  0  0  0  0
   25.9343   23.1389    6.3534 C   0  0  2  0  0  0  0  0  0  0  0  0
   25.1240   28.0453    8.2224 C   0  0  1  0  0  0  0  0  0  0  0  0
   22.7846   31.2696    5.0678 C   0  0  2  0  0  0  0  0  0  0  0  0
   21.9060   30.7147    6.1091 O   0  0  0  0  0  0  0  0  0  0  0  0
   30.2494   26.4444   13.4248 C   0  0  0  0  0  0  0  0  0  0  0  0
   27.9082   23.3897    3.0617 C   0  0  2  0  0  0  0  0  0  0  0  0
   27.6975   24.3876    4.0983 O   0  0  0  0  0  0  0  0  0  0  0  0
   25.5436   24.1438    7.4921 C   0  0  2  0  0  0  0  0  0  0  0  0
   26.2851   25.3096    7.1537 O   0  0  0  0  0  0  0  0  0  0  0  0
   23.7027   27.9103    7.6784 C   0  0  0  0  0  0  0  0  0  0  0  0
   22.6871   27.8344    8.6500 O   0  0  0  0  0  0  0  0  0  0  0  0
   23.5485   30.0808    4.3219 C   0  0  1  0  0  0  0  0  0  0  0  0
   24.4778   29.4106    5.3128 O   0  0  0  0  0  0  0  0  0  0  0  0
   29.4227   25.8049   12.3752 C   0  0  0  0  0  0  0  0  0  0  0  0
   29.3309   23.1764    2.7507 C   0  0  0  0  0  0  0  0  0  0  0  0
   29.9434   24.3607    2.6289 O   0  0  0  0  0  0  0  0  0  0  0  0
   25.9445   23.5645    8.9137 C   0  0  1  0  0  0  0  0  0  0  0  0
   25.5826   24.4613    9.9119 O   0  0  0  0  0  0  0  0  0  0  0  0
   28.8214   27.1573    9.7999 C   0  0  0  0  0  0  0  0  0  0  0  0
   22.4635   29.1249    3.7558 C   0  0  0  0  0  0  0  0  0  0  0  0
   21.3104   29.8701    3.3156 N   0  0  0  0  0  0  0  0  0  0  0  0
   29.3871   25.8732    9.1846 C   0  0  0  0  0  0  0  0  0  0  0  0
   28.4954   24.7193    9.5310 N   0  0  0  0  0  0  0  0  0  0  0  0
   29.0309   23.7640   10.6314 C   0  0  0  0  0  0  0  0  0  0  0  0
  1  2  1  6  0  0  0
  1  9  1  0  0  0  0
  1 35  1  0  0  0  0
  3  4  1  1  0  0  0
  3 11  1  0  0  0  0
  3 45  1  0  0  0  0
  5  6  1  0  0  0  0
  5 12  1  0  0  0  0
  5 37  1  6  0  0  0
  6 30  1  0  0  0  0
  7 14  1  0  0  0  0
  7 41  1  0  0  0  0
  7 23  1  1  0  0  0
  8 16  2  0  0  0  0
  8 42  1  0  0  0  0
  9 10  1  1  0  0  0
  9 18  1  0  0  0  0
 11 20  1  0  0  0  0
 12 13  1  1  0  0  0
 12 22  1  0  0  0  0
 13 47  1  0  0  0  0
 14 15  1  1  0  0  0
 14 24  1  0  0  0  0
 16 17  1  0  0  0  0
 17 26  2  0  0  0  0
 18 19  1  6  0  0  0
 18 27  1  0  0  0  0
 20 21  1  6  0  0  0
 20 29  1  0  0  0  0
 22 23  1  1  0  0  0
 22 30  1  0  0  0  0
 24 25  1  6  0  0  0
 24 31  1  0  0  0  0
 26 33  1  0  0  0  0
 27 28  1  6  0  0  0
 27 34  1  0  0  0  0
 29  2  1  6  0  0  0
 29 36  1  0  0  0  0
 30 38  1  6  0  0  0
 31 32  1  1  0  0  0
 31 40  1  0  0  0  0
 33 42  2  0  0  0  0
 34 35  1  0  0  0  0
 34 43  1  6  0  0  0
 36 37  1  6  0  0  0
 36 45  1  0  0  0  0
 38 39  1  0  0  0  0
 40 41  1  0  0  0  0
 40 48  1  1  0  0  0
 43 44  1  0  0  0  0
 45 46  1  1  0  0  0
 47 50  1  0  0  0  0
 48 49  1  0  0  0  0
 50 51  1  0  0  0  0
 51 52  1  0  0  0  0
 52  8  1  0  0  0  0
M  END
>  <CHROM.1>
-167.75438738,-58.38730528,118.33498577,30.88160288,42.59249259,153.37022416
-171.54838928,70.37790084,71.02925554,-155.40030501,35.54313962,-105.68156762
-104.61219632,34.96303353,-136.15713147,26.29218474,26.18242902,6.86596138
-2.93955238,-1.00377673,0.84595716

>  <Name>
2be0_lig

>  <RI>
2.57068e+07

>  <Rbt.Current_Directory>
/home/itssahil/PROJECTS/Mol_Feturizer/New_Systems/rnas/2be0

>  <Rbt.Executable>
rbdock ($Id: //depot/dev/client3/rdock/2013.1/src/exe/rbdock.cxx#4 $)

>  <Rbt.Library>
libRbt.so (2013.1, Build901 2013/11/27)

>  <Rbt.Parameter_File>
/export/apps/rDock/src/rDock_2013.1_src/data/scripts/dock_solv.prm

>  <Rbt.Receptor>
prm/blind_docking_60.prm

>  <SCORE>
18.191

>  <SCORE.INTER>
1.79848

>  <SCORE.INTER.CONST>
1

>  <SCORE.INTER.POLAR>
-0.582464

>  <SCORE.INTER.ROT>
15

>  <SCORE.INTER.SOLV>
31.542

>  <SCORE.INTER.VDW>
-20.9735

>  <SCORE.INTER.norm>
0.0345862

>  <SCORE.INTRA>
-1.58044

>  <SCORE.INTRA.DIHEDRAL>
-19.4954

>  <SCORE.INTRA.DIHEDRAL.0>
47.8724

>  <SCORE.INTRA.POLAR>
0

>  <SCORE.INTRA.POLAR.0>
0

>  <SCORE.INTRA.REPUL>
0

>  <SCORE.INTRA.REPUL.0>
0

>  <SCORE.INTRA.SOLV>
4.21456

>  <SCORE.INTRA.SOLV.lig_0>
-115.677

>  <SCORE.INTRA.VDW>
6.06

>  <SCORE.INTRA.VDW.0>
-7.4833

>  <SCORE.INTRA.norm>
-0.030393

>  <SCORE.RESTR>
17.973

>  <SCORE.RESTR.CAVITY>
17.973

>  <SCORE.RESTR.norm>
0.345635

>  <SCORE.SYSTEM>
0

>  <SCORE.SYSTEM.CONST>
0

>  <SCORE.SYSTEM.DIHEDRAL>
0

>  <SCORE.SYSTEM.SOLV>
0

>  <SCORE.SYSTEM.norm>
0

>  <SCORE.heavy>
52

>  <SCORE.norm>
0.349828

>  <RMSD>
30.500

$$$$
2be0_lig
 OpenBabel11021811423D
libRbt.so/2013.1/901 2013/11/27
 52 56  0  0  0  0  0  0  0  0999 V2000
   28.5188   25.1339    8.8306 C   0  0  2  0  0  0  0  0  0  0  0  0
   27.3583   25.7087    9.3836 O   0  0  0  0  0  0  0  0  0  0  0  0
   24.3938   28.8061    8.3895 C   0  0  2  0  0  0  0  0  0  0  0  0
   23.7092   29.8914    7.6325 N   0  0  0  0  0  0  0  0  0  0  0  0
   25.0917   25.1202    6.2601 C   0  0  2  0  0  0  0  0  0  0  0  0
   24.7046   23.8209    5.7677 O   0  0  0  0  0  0  0  0  0  0  0  0
   27.9835   24.0428    3.2555 C   0  0  1  0  0  0  0  0  0  0  0  0
   24.8932   31.4740    5.7513 C   0  0  0  0  0  0  0  0  0  0  0  0
   29.0125   23.8996    9.6898 C   0  0  2  0  0  0  0  0  0  0  0  0
   27.9200   22.9374    9.8482 N   0  0  0  0  0  0  0  0  0  0  0  0
   25.9088   29.2316    8.6579 C   0  0  0  0  0  0  0  0  0  0  0  0
   26.4078   25.4868    5.5557 C   0  0  2  0  0  0  0  0  0  0  0  0
   25.9563   26.0914    4.2642 O   0  0  0  0  0  0  0  0  0  0  0  0
   27.5074   22.5973    2.6853 C   0  0  2  0  0  0  0  0  0  0  0  0
   28.5612   21.5823    3.0095 N   0  0  0  0  0  0  0  0  0  0  0  0
   25.4660   31.9495    6.9763 C   0  0  0  0  0  0  0  0  0  0  0  0
   25.1906   33.2712    7.4149 N   0  0  0  0  0  0  0  0  0  0  0  0
   29.5666   24.4129   11.0988 C   0  0  1  0  0  0  0  0  0  0  0  0
   29.9965   23.2920   11.8557 O   0  0  0  0  0  0  0  0  0  0  0  0
   26.7005   28.0591    9.4754 C   0  0  2  0  0  0  0  0  0  0  0  0
   28.0646   28.4307    9.7253 N   0  0  0  0  0  0  0  0  0  0  0  0
   27.0720   24.0970    5.5593 C   0  0  2  0  0  0  0  0  0  0  0  0
   28.1667   23.9030    4.6759 O   0  0  0  0  0  0  0  0  0  0  0  0
   27.3179   22.7300    1.1440 C   0  0  1  0  0  0  0  0  0  0  0  0
   26.2579   23.7322    0.9455 O   0  0  0  0  0  0  0  0  0  0  0  0
   24.3599   34.1718    6.6889 C   0  0  0  0  0  0  0  0  0  0  0  0
   30.7277   25.4161   10.8387 C   0  0  2  0  0  0  0  0  0  0  0  0
   31.2819   25.9319   12.1138 O   0  0  0  0  0  0  0  0  0  0  0  0
   26.6613   26.7079    8.6494 C   0  0  2  0  0  0  0  0  0  0  0  0
   25.8871   23.1338    5.3094 C   0  0  1  0  0  0  0  0  0  0  0  0
   28.7114   23.2030    0.4508 C   0  0  2  0  0  0  0  0  0  0  0  0
   29.7757   22.2061    0.6455 O   0  0  0  0  0  0  0  0  0  0  0  0
   23.7652   33.7574    5.4717 C   0  0  0  0  0  0  0  0  0  0  0  0
   30.2167   26.6375    9.9816 C   0  0  2  0  0  0  0  0  0  0  0  0
   29.6848   26.0692    8.7532 O   0  0  0  0  0  0  0  0  0  0  0  0
   25.1564   26.3417    8.4044 C   0  0  2  0  0  0  0  0  0  0  0  0
   25.2417   25.1229    7.6761 O   0  0  0  0  0  0  0  0  0  0  0  0
   25.9997   21.8473    6.1257 C   0  0  0  0  0  0  0  0  0  0  0  0
   25.2266   20.7662    5.6621 O   0  0  0  0  0  0  0  0  0  0  0  0
   29.1669   24.6017    1.0743 C   0  0  1  0  0  0  0  0  0  0  0  0
   29.2930   24.4404    2.5752 O   0  0  0  0  0  0  0  0  0  0  0  0
   24.0223   32.3874    4.9703 C   0  0  0  0  0  0  0  0  0  0  0  0
   31.3586   27.5368    9.7508 C   0  0  0  0  0  0  0  0  0  0  0  0
   32.1487   27.0202    8.8014 O   0  0  0  0  0  0  0  0  0  0  0  0
   24.4269   27.4864    7.5828 C   0  0  1  0  0  0  0  0  0  0  0  0
   23.0929   27.1520    7.3831 O   0  0  0  0  0  0  0  0  0  0  0  0
   25.4819   27.4728    4.0133 C   0  0  0  0  0  0  0  0  0  0  0  0
   30.5019   24.9957    0.3858 C   0  0  0  0  0  0  0  0  0  0  0  0
   31.2526   23.8192    0.0239 N   0  0  0  0  0  0  0  0  0  0  0  0
   24.1834   27.6570    4.8054 C   0  0  0  0  0  0  0  0  0  0  0  0
   23.9474   29.1179    5.0437 N   0  0  0  0  0  0  0  0  0  0  0  0
   25.2209   29.9737    5.2801 C   0  0  0  0  0  0  0  0  0  0  0  0
  1  2  1  1  0  0  0
  1  9  1  0  0  0  0
  1 35  1  0  0  0  0
  3  4  1  6  0  0  0
  3 11  1  0  0  0  0
  3 45  1  0  0  0  0
  5  6  1  0  0  0  0
  5 12  1  0  0  0  0
  5 37  1  1  0  0  0
  6 30  1  0  0  0  0
  7 14  1  0  0  0  0
  7 41  1  0  0  0  0
  7 23  1  1  0  0  0
  8 16  2  0  0  0  0
  8 42  1  0  0  0  0
  9 10  1  1  0  0  0
  9 18  1  0  0  0  0
 11 20  1  0  0  0  0
 12 13  1  6  0  0  0
 12 22  1  0  0  0  0
 13 47  1  0  0  0  0
 14 15  1  6  0  0  0
 14 24  1  0  0  0  0
 16 17  1  0  0  0  0
 17 26  2  0  0  0  0
 18 19  1  1  0  0  0
 18 27  1  0  0  0  0
 20 21  1  6  0  0  0
 20 29  1  0  0  0  0
 22 23  1  6  0  0  0
 22 30  1  0  0  0  0
 24 25  1  1  0  0  0
 24 31  1  0  0  0  0
 26 33  1  0  0  0  0
 27 28  1  1  0  0  0
 27 34  1  0  0  0  0
 29  2  1  1  0  0  0
 29 36  1  0  0  0  0
 30 38  1  1  0  0  0
 31 32  1  1  0  0  0
 31 40  1  0  0  0  0
 33 42  2  0  0  0  0
 34 35  1  0  0  0  0
 34 43  1  6  0  0  0
 36 37  1  6  0  0  0
 36 45  1  0  0  0  0
 38 39  1  0  0  0  0
 40 41  1  0  0  0  0
 40 48  1  6  0  0  0
 43 44  1  0  0  0  0
 45 46  1  1  0  0  0
 47 50  1  0  0  0  0
 48 49  1  0  0  0  0
 50 51  1  0  0  0  0
 51 52  1  0  0  0  0
 52  8  1  0  0  0  0
M  END
>  <CHROM.1>
-171.21238541,-158.04930559,-87.53967186,81.03344083,-64.28826469,-61.01668156
-117.13244342,82.99762607,76.66544623,-99.89448028,-30.93020495,157.71922985
-35.28568906,-171.11066973,124.12028140,27.12386720,26.16040739,6.27836536
-2.10977791,0.94972169,-2.04577636

>  <Name>
2be0_lig

>  <RI>
2.57068e+07

>  <Rbt.Current_Directory>
/home/itssahil/PROJECTS/Mol_Feturizer/New_Systems/rnas/2be0

>  <Rbt.Executable>
rbdock ($Id: //depot/dev/client3/rdock/2013.1/src/exe/rbdock.cxx#4 $)

>  <Rbt.Library>
libRbt.so (2013.1, Build901 2013/11/27)

>  <Rbt.Parameter_File>
/export/apps/rDock/src/rDock_2013.1_src/data/scripts/dock_solv.prm

>  <Rbt.Receptor>
prm/blind_docking_60.prm

>  <SCORE>
43.3457

>  <SCORE.INTER>
27.1306

>  <SCORE.INTER.CONST>
1

>  <SCORE.INTER.POLAR>
-1.18422

>  <SCORE.INTER.ROT>
15

>  <SCORE.INTER.SOLV>
31.2675

>  <SCORE.INTER.VDW>
-1.98803

>  <SCORE.INTER.norm>
0.521743

>  <SCORE.INTRA>
5.31057

>  <SCORE.INTRA.DIHEDRAL>
-19.3559

>  <SCORE.INTRA.DIHEDRAL.0>
47.8724

>  <SCORE.INTRA.POLAR>
0

>  <SCORE.INTRA.POLAR.0>
0

>  <SCORE.INTRA.REPUL>
0

>  <SCORE.INTRA.REPUL.0>
0

>  <SCORE.INTRA.SOLV>
10.6211

>  <SCORE.INTRA.SOLV.lig_0>
-115.677

>  <SCORE.INTRA.VDW>
9.67798

>  <SCORE.INTRA.VDW.0>
-7.4833

>  <SCORE.INTRA.norm>
0.102126

>  <SCORE.RESTR>
10.9045

>  <SCORE.RESTR.CAVITY>
10.9045

>  <SCORE.RESTR.norm>
0.209703

>  <SCORE.SYSTEM>
0

>  <SCORE.SYSTEM.CONST>
0

>  <SCORE.SYSTEM.DIHEDRAL>
0

>  <SCORE.SYSTEM.SOLV>
0

>  <SCORE.SYSTEM.norm>
0

>  <SCORE.heavy>
52

>  <SCORE.norm>
0.833572

>  <RMSD>
30.560

$$$$
2be0_lig
 OpenBabel11021811423D
libRbt.so/2013.1/901 2013/11/27
 52 56  0  0  0  0  0  0  0  0999 V2000
   24.3865   29.3103    7.2480 C   0  0  2  0  0  0  0  0  0  0  0  0
   23.1807   28.7726    6.7582 O   0  0  0  0  0  0  0  0  0  0  0  0
   21.9412   26.2187    3.3948 C   0  0  2  0  0  0  0  0  0  0  0  0
   21.8960   25.6444    2.0210 N   0  0  0  0  0  0  0  0  0  0  0  0
   25.3979   25.2994    5.9322 C   0  0  2  0  0  0  0  0  0  0  0  0
   24.8220   24.1611    6.6053 O   0  0  0  0  0  0  0  0  0  0  0  0
   28.8231   25.6591    8.7866 C   0  0  1  0  0  0  0  0  0  0  0  0
   27.6524   22.1067    0.1568 C   0  0  0  0  0  0  0  0  0  0  0  0
   24.2392   29.7681    8.7561 C   0  0  2  0  0  0  0  0  0  0  0  0
   23.7416   28.6539    9.5658 N   0  0  0  0  0  0  0  0  0  0  0  0
   21.6982   27.7943    3.3110 C   0  0  0  0  0  0  0  0  0  0  0  0
   26.8253   25.4616    6.4786 C   0  0  2  0  0  0  0  0  0  0  0  0
   27.6321   24.5300    5.6308 O   0  0  0  0  0  0  0  0  0  0  0  0
   30.0783   24.7899    9.3435 C   0  0  2  0  0  0  0  0  0  0  0  0
   29.7390   24.2773   10.7102 N   0  0  0  0  0  0  0  0  0  0  0  0
   27.1169   23.3934   -0.1786 C   0  0  0  0  0  0  0  0  0  0  0  0
   26.4866   23.5868   -1.4358 N   0  0  0  0  0  0  0  0  0  0  0  0
   23.2790   31.0436    8.8392 C   0  0  1  0  0  0  0  0  0  0  0  0
   23.1543   31.4329   10.1982 O   0  0  0  0  0  0  0  0  0  0  0  0
   21.7543   28.4662    4.7993 C   0  0  2  0  0  0  0  0  0  0  0  0
   21.5348   29.8837    4.7379 N   0  0  0  0  0  0  0  0  0  0  0  0
   26.5538   25.1126    7.9541 C   0  0  2  0  0  0  0  0  0  0  0  0
   27.6787   24.7873    8.7575 O   0  0  0  0  0  0  0  0  0  0  0  0
   31.3235   25.7259    9.3935 C   0  0  1  0  0  0  0  0  0  0  0  0
   31.5723   26.1524    8.0066 O   0  0  0  0  0  0  0  0  0  0  0  0
   26.3553   22.5513   -2.4047 C   0  0  0  0  0  0  0  0  0  0  0  0
   23.8866   32.1787    7.9647 C   0  0  2  0  0  0  0  0  0  0  0  0
   23.0344   33.3919    7.9990 O   0  0  0  0  0  0  0  0  0  0  0  0
   23.1610   28.1754    5.4674 C   0  0  2  0  0  0  0  0  0  0  0  0
   25.4993   23.9837    7.8664 C   0  0  1  0  0  0  0  0  0  0  0  0
   31.0220   27.0021   10.3559 C   0  0  2  0  0  0  0  0  0  0  0  0
   30.7720   26.5832   11.7439 O   0  0  0  0  0  0  0  0  0  0  0  0
   26.8643   21.2584   -2.1287 C   0  0  0  0  0  0  0  0  0  0  0  0
   24.0258   31.7038    6.4672 C   0  0  2  0  0  0  0  0  0  0  0  0
   24.8642   30.5160    6.5008 O   0  0  0  0  0  0  0  0  0  0  0  0
   23.3541   26.6199    5.5156 C   0  0  2  0  0  0  0  0  0  0  0  0
   24.6256   26.4780    6.1373 O   0  0  0  0  0  0  0  0  0  0  0  0
   24.4387   24.0905    8.9609 C   0  0  0  0  0  0  0  0  0  0  0  0
   24.9021   24.5404   10.2115 O   0  0  0  0  0  0  0  0  0  0  0  0
   29.7534   27.7987    9.8000 C   0  0  1  0  0  0  0  0  0  0  0  0
   28.5813   26.8422    9.7234 O   0  0  0  0  0  0  0  0  0  0  0  0
   27.5318   21.0053   -0.8308 C   0  0  0  0  0  0  0  0  0  0  0  0
   24.6230   32.8066    5.6970 C   0  0  0  0  0  0  0  0  0  0  0  0
   23.8617   33.0670    4.6269 O   0  0  0  0  0  0  0  0  0  0  0  0
   23.3248   26.0052    4.0532 C   0  0  1  0  0  0  0  0  0  0  0  0
   23.4867   24.6263    4.1137 O   0  0  0  0  0  0  0  0  0  0  0  0
   27.3561   24.0755    4.2475 C   0  0  0  0  0  0  0  0  0  0  0  0
   29.5076   28.9938   10.7606 C   0  0  0  0  0  0  0  0  0  0  0  0
   30.6821   29.8255   10.8466 N   0  0  0  0  0  0  0  0  0  0  0  0
   28.5549   23.2332    3.7996 C   0  0  0  0  0  0  0  0  0  0  0  0
   28.6535   23.2613    2.3042 N   0  0  0  0  0  0  0  0  0  0  0  0
   28.3589   21.9164    1.5869 C   0  0  0  0  0  0  0  0  0  0  0  0
  1  2  1  6  0  0  0
  1  9  1  0  0  0  0
  1 35  1  0  0  0  0
  3  4  1  6  0  0  0
  3 11  1  0  0  0  0
  3 45  1  0  0  0  0
  5  6  1  0  0  0  0
  5 12  1  0  0  0  0
  5 37  1  1  0  0  0
  6 30  1  0  0  0  0
  7 14  1  0  0  0  0
  7 41  1  0  0  0  0
  7 23  1  1  0  0  0
  8 16  2  0  0  0  0
  8 42  1  0  0  0  0
  9 10  1  1  0  0  0
  9 18  1  0  0  0  0
 11 20  1  0  0  0  0
 12 13  1  6  0  0  0
 12 22  1  0  0  0  0
 13 47  1  0  0  0  0
 14 15  1  1  0  0  0
 14 24  1  0  0  0  0
 16 17  1  0  0  0  0
 17 26  2  0  0  0  0
 18 19  1  1  0  0  0
 18 27  1  0  0  0  0
 20 21  1  6  0  0  0
 20 29  1  0  0  0  0
 22 23  1  6  0  0  0
 22 30  1  0  0  0  0
 24 25  1  6  0  0  0
 24 31  1  0  0  0  0
 26 33  1  0  0  0  0
 27 28  1  6  0  0  0
 27 34  1  0  0  0  0
 29  2  1  1  0  0  0
 29 36  1  0  0  0  0
 30 38  1  1  0  0  0
 31 32  1  1  0  0  0
 31 40  1  0  0  0  0
 33 42  2  0  0  0  0
 34 35  1  0  0  0  0
 34 43  1  6  0  0  0
 36 37  1  6  0  0  0
 36 45  1  0  0  0  0
 38 39  1  0  0  0  0
 40 41  1  0  0  0  0
 40 48  1  1  0  0  0
 43 44  1  0  0  0  0
 45 46  1  1  0  0  0
 47 50  1  0  0  0  0
 48 49  1  0  0  0  0
 50 51  1  0  0  0  0
 51 52  1  0  0  0  0
 52  8  1  0  0  0  0
M  END
>  <CHROM.1>
-173.25948608,-71.04790147,-160.65164976,26.68002819,174.92457598,50.83590946
-145.47073532,-152.59863268,-127.62876219,-156.35750790,57.28930188,-154.75837996
-112.03389787,146.52719117,-13.12073986,26.02301421,26.67938382,6.18416476
1.63048132,-0.67150751,0.92664260

>  <Name>
2be0_lig

>  <RI>
2.57068e+07

>  <Rbt.Current_Directory>
/home/itssahil/PROJECTS/Mol_Feturizer/New_Systems/rnas/2be0

>  <Rbt.Executable>
rbdock ($Id: //depot/dev/client3/rdock/2013.1/src/exe/rbdock.cxx#4 $)

>  <Rbt.Library>
libRbt.so (2013.1, Build901 2013/11/27)

>  <Rbt.Parameter_File>
/export/apps/rDock/src/rDock_2013.1_src/data/scripts/dock_solv.prm

>  <Rbt.Receptor>
prm/blind_docking_60.prm

>  <SCORE>
20.5096

>  <SCORE.INTER>
6.06884

>  <SCORE.INTER.CONST>
1

>  <SCORE.INTER.POLAR>
-1.02246

>  <SCORE.INTER.ROT>
15

>  <SCORE.INTER.SOLV>
28.6129

>  <SCORE.INTER.VDW>
-15.6835

>  <SCORE.INTER.norm>
0.116709

>  <SCORE.INTRA>
-8.17025

>  <SCORE.INTRA.DIHEDRAL>
-21.7781

>  <SCORE.INTRA.DIHEDRAL.0>
47.8724

>  <SCORE.INTRA.POLAR>
0

>  <SCORE.INTRA.POLAR.0>
0

>  <SCORE.INTRA.REPUL>
0

>  <SCORE.INTRA.REPUL.0>
0

>  <SCORE.INTRA.SOLV>
-2.75523

>  <SCORE.INTRA.SOLV.lig_0>
-115.677

>  <SCORE.INTRA.VDW>
4.0964

>  <SCORE.INTRA.VDW.0>
-7.4833

>  <SCORE.INTRA.norm>
-0.15712

>  <SCORE.RESTR>
22.611

>  <SCORE.RESTR.CAVITY>
22.611

>  <SCORE.RESTR.norm>
0.434827

>  <SCORE.SYSTEM>
0

>  <SCORE.SYSTEM.CONST>
0

>  <SCORE.SYSTEM.DIHEDRAL>
0

>  <SCORE.SYSTEM.SOLV>
0

>  <SCORE.SYSTEM.norm>
0

>  <SCORE.heavy>
52

>  <SCORE.norm>
0.394416

>  <RMSD>
30.568

$$$$
2be0_lig
 OpenBabel11021811423D
libRbt.so/2013.1/901 2013/11/27
 52 56  0  0  0  0  0  0  0  0999 V2000
   25.9116   25.1632    1.2834 C   0  0  2  0  0  0  0  0  0  0  0  0
   25.3064   24.5164    2.3781 O   0  0  0  0  0  0  0  0  0  0  0  0
   26.3361   23.2531    6.4664 C   0  0  2  0  0  0  0  0  0  0  0  0
   27.1434   23.0421    7.7006 N   0  0  0  0  0  0  0  0  0  0  0  0
   24.9965   27.3214    5.4899 C   0  0  2  0  0  0  0  0  0  0  0  0
   23.6155   27.4197    5.8945 O   0  0  0  0  0  0  0  0  0  0  0  0
   24.4323   31.4941    4.8753 C   0  0  1  0  0  0  0  0  0  0  0  0
   28.3996   25.8514    9.1741 C   0  0  0  0  0  0  0  0  0  0  0  0
   25.6854   24.3531   -0.0577 C   0  0  2  0  0  0  0  0  0  0  0  0
   24.2544   24.1142   -0.2568 N   0  0  0  0  0  0  0  0  0  0  0  0
   27.0894   22.5836    5.2284 C   0  0  0  0  0  0  0  0  0  0  0  0
   25.4139   28.7160    4.9967 C   0  0  2  0  0  0  0  0  0  0  0  0
   25.8138   29.4253    6.2514 O   0  0  0  0  0  0  0  0  0  0  0  0
   23.4279   31.5466    6.1519 C   0  0  2  0  0  0  0  0  0  0  0  0
   22.0496   31.8769    5.6654 N   0  0  0  0  0  0  0  0  0  0  0  0
   29.6586   25.6012    9.8122 C   0  0  0  0  0  0  0  0  0  0  0  0
   29.7678   24.5562   10.7668 N   0  0  0  0  0  0  0  0  0  0  0  0
   26.5185   22.9895   -0.0088 C   0  0  1  0  0  0  0  0  0  0  0  0
   26.2963   22.2758   -1.2152 O   0  0  0  0  0  0  0  0  0  0  0  0
   26.2415   22.8056    3.8493 C   0  0  2  0  0  0  0  0  0  0  0  0
   26.9077   22.2058    2.7278 N   0  0  0  0  0  0  0  0  0  0  0  0
   24.1109   29.1110    4.2763 C   0  0  2  0  0  0  0  0  0  0  0  0
   23.9308   30.4875    3.9776 O   0  0  0  0  0  0  0  0  0  0  0  0
   23.9516   32.6434    7.1276 C   0  0  1  0  0  0  0  0  0  0  0  0
   25.2935   32.2099    7.5503 O   0  0  0  0  0  0  0  0  0  0  0  0
   28.6716   23.7253   11.1355 C   0  0  0  0  0  0  0  0  0  0  0  0
   28.0227   23.3350    0.1914 C   0  0  2  0  0  0  0  0  0  0  0  0
   28.8489   22.1049    0.2487 O   0  0  0  0  0  0  0  0  0  0  0  0
   26.0446   24.3548    3.5832 C   0  0  2  0  0  0  0  0  0  0  0  0
   23.0068   28.5172    5.1833 C   0  0  1  0  0  0  0  0  0  0  0  0
   24.0100   34.0810    6.3689 C   0  0  2  0  0  0  0  0  0  0  0  0
   22.6721   34.5205    5.9431 O   0  0  0  0  0  0  0  0  0  0  0  0
   27.4029   23.9247   10.5375 C   0  0  0  0  0  0  0  0  0  0  0  0
   28.2275   24.1417    1.5311 C   0  0  2  0  0  0  0  0  0  0  0  0
   27.3934   25.3273    1.4154 O   0  0  0  0  0  0  0  0  0  0  0  0
   25.3127   24.9639    4.8292 C   0  0  2  0  0  0  0  0  0  0  0  0
   25.1794   26.3360    4.4785 O   0  0  0  0  0  0  0  0  0  0  0  0
   21.8428   27.9377    4.3813 C   0  0  0  0  0  0  0  0  0  0  0  0
   21.4751   28.6665    3.2346 O   0  0  0  0  0  0  0  0  0  0  0  0
   24.9683   33.9709    5.0951 C   0  0  1  0  0  0  0  0  0  0  0  0
   24.4511   32.8645    4.1990 O   0  0  0  0  0  0  0  0  0  0  0  0
   27.2366   25.0032    9.5357 C   0  0  0  0  0  0  0  0  0  0  0  0
   29.6598   24.4570    1.6542 C   0  0  0  0  0  0  0  0  0  0  0  0
   30.3540   23.3236    1.8156 O   0  0  0  0  0  0  0  0  0  0  0  0
   26.1768   24.7577    6.1438 C   0  0  1  0  0  0  0  0  0  0  0  0
   25.5106   25.2932    7.2396 O   0  0  0  0  0  0  0  0  0  0  0  0
   25.2314   29.2911    7.6076 C   0  0  0  0  0  0  0  0  0  0  0  0
   24.9761   35.3634    4.4077 C   0  0  0  0  0  0  0  0  0  0  0  0
   25.0548   36.4144    5.3914 N   0  0  0  0  0  0  0  0  0  0  0  0
   26.2749   28.5877    8.4814 C   0  0  0  0  0  0  0  0  0  0  0  0
   26.8444   27.4190    7.7353 N   0  0  0  0  0  0  0  0  0  0  0  0
   28.3056   27.0394    8.0969 C   0  0  0  0  0  0  0  0  0  0  0  0
  1  2  1  1  0  0  0
  1  9  1  0  0  0  0
  1 35  1  0  0  0  0
  3  4  1  1  0  0  0
  3 11  1  0  0  0  0
  3 45  1  0  0  0  0
  5  6  1  0  0  0  0
  5 12  1  0  0  0  0
  5 37  1  6  0  0  0
  6 30  1  0  0  0  0
  7 14  1  0  0  0  0
  7 41  1  0  0  0  0
  7 23  1  6  0  0  0
  8 16  2  0  0  0  0
  8 42  1  0  0  0  0
  9 10  1  1  0  0  0
  9 18  1  0  0  0  0
 11 20  1  0  0  0  0
 12 13  1  1  0  0  0
 12 22  1  0  0  0  0
 13 47  1  0  0  0  0
 14 15  1  6  0  0  0
 14 24  1  0  0  0  0
 16 17  1  0  0  0  0
 17 26  2  0  0  0  0
 18 19  1  6  0  0  0
 18 27  1  0  0  0  0
 20 21  1  6  0  0  0
 20 29  1  0  0  0  0
 22 23  1  1  0  0  0
 22 30  1  0  0  0  0
 24 25  1  6  0  0  0
 24 31  1  0  0  0  0
 26 33  1  0  0  0  0
 27 28  1  1  0  0  0
 27 34  1  0  0  0  0
 29  2  1  6  0  0  0
 29 36  1  0  0  0  0
 30 38  1  6  0  0  0
 31 32  1  6  0  0  0
 31 40  1  0  0  0  0
 33 42  2  0  0  0  0
 34 35  1  0  0  0  0
 34 43  1  6  0  0  0
 36 37  1  6  0  0  0
 36 45  1  0  0  0  0
 38 39  1  0  0  0  0
 40 41  1  0  0  0  0
 40 48  1  6  0  0  0
 43 44  1  0  0  0  0
 45 46  1  1  0  0  0
 47 50  1  0  0  0  0
 48 49  1  0  0  0  0
 50 51  1  0  0  0  0
 51 52  1  0  0  0  0
 52  8  1  0  0  0  0
M  END
>  <CHROM.1>
133.21110332,-82.83471046,-75.62588418,-34.71911654,110.25519055,-34.39101799
-116.65300851,-154.65233529,-65.95820570,-158.07665973,41.98841990,-45.38586854
150.81376167,96.60998653,-166.51113320,25.85464844,27.16825512,4.94989017
0.77333610,1.10831388,-2.08762808

>  <Name>
2be0_lig

>  <RI>
2.57068e+07

>  <Rbt.Current_Directory>
/home/itssahil/PROJECTS/Mol_Feturizer/New_Systems/rnas/2be0

>  <Rbt.Executable>
rbdock ($Id: //depot/dev/client3/rdock/2013.1/src/exe/rbdock.cxx#4 $)

>  <Rbt.Library>
libRbt.so (2013.1, Build901 2013/11/27)

>  <Rbt.Parameter_File>
/export/apps/rDock/src/rDock_2013.1_src/data/scripts/dock_solv.prm

>  <Rbt.Receptor>
prm/blind_docking_60.prm

>  <SCORE>
5.01135

>  <SCORE.INTER>
-17.6974

>  <SCORE.INTER.CONST>
1

>  <SCORE.INTER.POLAR>
-1.35183

>  <SCORE.INTER.ROT>
15

>  <SCORE.INTER.SOLV>
26.8946

>  <SCORE.INTER.VDW>
-29.8571

>  <SCORE.INTER.norm>
-0.340335

>  <SCORE.INTRA>
5.54069

>  <SCORE.INTRA.DIHEDRAL>
-10.3209

>  <SCORE.INTRA.DIHEDRAL.0>
47.8724

>  <SCORE.INTRA.POLAR>
0

>  <SCORE.INTRA.POLAR.0>
0

>  <SCORE.INTRA.REPUL>
0

>  <SCORE.INTRA.REPUL.0>
0

>  <SCORE.INTRA.SOLV>
12.4396

>  <SCORE.INTRA.SOLV.lig_0>
-115.677

>  <SCORE.INTRA.VDW>
4.48134

>  <SCORE.INTRA.VDW.0>
-7.4833

>  <SCORE.INTRA.norm>
0.106552

>  <SCORE.RESTR>
17.1681

>  <SCORE.RESTR.CAVITY>
17.1681

>  <SCORE.RESTR.norm>
0.330156

>  <SCORE.SYSTEM>
0

>  <SCORE.SYSTEM.CONST>
0

>  <SCORE.SYSTEM.DIHEDRAL>
0

>  <SCORE.SYSTEM.SOLV>
0

>  <SCORE.SYSTEM.norm>
0

>  <SCORE.heavy>
52

>  <SCORE.norm>
0.0963721

>  <RMSD>
30.628

$$$$
2be0_lig
 OpenBabel11021811423D
libRbt.so/2013.1/901 2013/11/27
 52 56  0  0  0  0  0  0  0  0999 V2000
   24.4710   28.1845    7.3631 C   0  0  2  0  0  0  0  0  0  0  0  0
   25.7224   27.6715    6.9709 O   0  0  0  0  0  0  0  0  0  0  0  0
   29.4036   27.8153    9.3789 C   0  0  2  0  0  0  0  0  0  0  0  0
   30.3743   27.5027   10.4650 N   0  0  0  0  0  0  0  0  0  0  0  0
   27.7964   24.4765    7.1312 C   0  0  2  0  0  0  0  0  0  0  0  0
   27.7551   23.4597    6.1091 O   0  0  0  0  0  0  0  0  0  0  0  0
   24.2433   22.8676    8.9088 C   0  0  1  0  0  0  0  0  0  0  0  0
   30.9818   25.8667   12.8408 C   0  0  0  0  0  0  0  0  0  0  0  0
   23.3897   27.9918    6.2233 C   0  0  2  0  0  0  0  0  0  0  0  0
   23.3299   26.5823    5.8302 N   0  0  0  0  0  0  0  0  0  0  0  0
   28.0247   28.2871   10.0302 C   0  0  0  0  0  0  0  0  0  0  0  0
   26.6131   24.2054    8.0739 C   0  0  2  0  0  0  0  0  0  0  0  0
   27.1552   23.1942    9.0335 O   0  0  0  0  0  0  0  0  0  0  0  0
   22.8141   22.1185    9.1025 C   0  0  2  0  0  0  0  0  0  0  0  0
   21.7337   22.9927    8.5421 N   0  0  0  0  0  0  0  0  0  0  0  0
   31.0911   26.6089   14.0622 C   0  0  0  0  0  0  0  0  0  0  0  0
   32.2211   27.4396   14.2816 N   0  0  0  0  0  0  0  0  0  0  0  0
   23.7369   28.9435    4.9866 C   0  0  1  0  0  0  0  0  0  0  0  0
   22.7612   28.7502    3.9742 O   0  0  0  0  0  0  0  0  0  0  0  0
   26.9256   28.6267    8.8697 C   0  0  2  0  0  0  0  0  0  0  0  0
   25.6807   29.0547    9.4428 N   0  0  0  0  0  0  0  0  0  0  0  0
   25.5682   23.7815    7.0244 C   0  0  2  0  0  0  0  0  0  0  0  0
   24.4205   23.0927    7.4987 O   0  0  0  0  0  0  0  0  0  0  0  0
   22.6020   21.8801   10.6280 C   0  0  1  0  0  0  0  0  0  0  0  0
   23.7018   21.0036   11.0634 O   0  0  0  0  0  0  0  0  0  0  0  0
   33.2766   27.5785   13.3358 C   0  0  0  0  0  0  0  0  0  0  0  0
   23.7671   30.4164    5.4885 C   0  0  2  0  0  0  0  0  0  0  0  0
   24.0894   31.3498    4.3821 O   0  0  0  0  0  0  0  0  0  0  0  0
   26.6828   27.3467    7.9686 C   0  0  2  0  0  0  0  0  0  0  0  0
   26.3999   22.9789    5.9957 C   0  0  1  0  0  0  0  0  0  0  0  0
   22.6317   23.2993   11.4223 C   0  0  2  0  0  0  0  0  0  0  0  0
   21.5352   24.1808   10.9920 O   0  0  0  0  0  0  0  0  0  0  0  0
   33.2231   26.8703   12.1100 C   0  0  0  0  0  0  0  0  0  0  0  0
   24.8492   30.5882    6.6230 C   0  0  2  0  0  0  0  0  0  0  0  0
   24.4820   29.6492    7.6710 O   0  0  0  0  0  0  0  0  0  0  0  0
   28.0651   26.9195    7.3637 C   0  0  2  0  0  0  0  0  0  0  0  0
   27.7282   25.7852    6.5743 O   0  0  0  0  0  0  0  0  0  0  0  0
   25.9542   23.2371    4.5574 C   0  0  0  0  0  0  0  0  0  0  0  0
   24.5659   23.3715    4.3683 O   0  0  0  0  0  0  0  0  0  0  0  0
   24.0329   24.0227   11.1653 C   0  0  1  0  0  0  0  0  0  0  0  0
   24.2195   24.1918    9.6716 O   0  0  0  0  0  0  0  0  0  0  0  0
   32.0649   25.9892   11.8333 C   0  0  0  0  0  0  0  0  0  0  0  0
   24.8161   31.9899    7.0705 C   0  0  0  0  0  0  0  0  0  0  0  0
   25.1313   32.7928    6.0464 O   0  0  0  0  0  0  0  0  0  0  0  0
   29.0973   26.5681    8.5163 C   0  0  1  0  0  0  0  0  0  0  0  0
   30.3193   26.2018    7.9648 O   0  0  0  0  0  0  0  0  0  0  0  0
   28.2091   23.3748   10.0597 C   0  0  0  0  0  0  0  0  0  0  0  0
   23.9990   25.3708   11.9353 C   0  0  0  0  0  0  0  0  0  0  0  0
   23.0480   26.2737   11.3361 N   0  0  0  0  0  0  0  0  0  0  0  0
   27.7089   24.4404   11.0403 C   0  0  0  0  0  0  0  0  0  0  0  0
   28.8372   25.3613   11.3945 N   0  0  0  0  0  0  0  0  0  0  0  0
   29.6916   24.9358   12.6189 C   0  0  0  0  0  0  0  0  0  0  0  0
  1  2  1  6  0  0  0
  1  9  1  0  0  0  0
  1 35  1  0  0  0  0
  3  4  1  1  0  0  0
  3 11  1  0  0  0  0
  3 45  1  0  0  0  0
  5  6  1  0  0  0  0
  5 12  1  0  0  0  0
  5 37  1  6  0  0  0
  6 30  1  0  0  0  0
  7 14  1  0  0  0  0
  7 41  1  0  0  0  0
  7 23  1  6  0  0  0
  8 16  2  0  0  0  0
  8 42  1  0  0  0  0
  9 10  1  6  0  0  0
  9 18  1  0  0  0  0
 11 20  1  0  0  0  0
 12 13  1  1  0  0  0
 12 22  1  0  0  0  0
 13 47  1  0  0  0  0
 14 15  1  1  0  0  0
 14 24  1  0  0  0  0
 16 17  1  0  0  0  0
 17 26  2  0  0  0  0
 18 19  1  6  0  0  0
 18 27  1  0  0  0  0
 20 21  1  1  0  0  0
 20 29  1  0  0  0  0
 22 23  1  1  0  0  0
 22 30  1  0  0  0  0
 24 25  1  1  0  0  0
 24 31  1  0  0  0  0
 26 33  1  0  0  0  0
 27 28  1  6  0  0  0
 27 34  1  0  0  0  0
 29  2  1  6  0  0  0
 29 36  1  0  0  0  0
 30 38  1  6  0  0  0
 31 32  1  6  0  0  0
 31 40  1  0  0  0  0
 33 42  2  0  0  0  0
 34 35  1  0  0  0  0
 34 43  1  1  0  0  0
 36 37  1  6  0  0  0
 36 45  1  0  0  0  0
 38 39  1  0  0  0  0
 40 41  1  0  0  0  0
 40 48  1  1  0  0  0
 43 44  1  0  0  0  0
 45 46  1  6  0  0  0
 47 50  1  0  0  0  0
 48 49  1  0  0  0  0
 50 51  1  0  0  0  0
 51 52  1  0  0  0  0
 52  8  1  0  0  0  0
M  END
>  <CHROM.1>
-159.43215444,-165.24640702,177.64320696,67.74514666,61.19865343,2.60392796
-55.25506815,-154.59082312,-61.67578694,-92.00756064,-68.23980697,-138.56652206
-89.36800699,173.26343870,118.41503077,26.30094272,26.10439611,8.72571099
-2.70313382,0.55846048,2.63084738

>  <Name>
2be0_lig

>  <RI>
0

>  <Rbt.Current_Directory>
/home/itssahil/PROJECTS/Mol_Feturizer/New_Systems/rnas/2be0

>  <Rbt.Executable>
rbdock ($Id: //depot/dev/client3/rdock/2013.1/src/exe/rbdock.cxx#4 $)

>  <Rbt.Library>
libRbt.so (2013.1, Build901 2013/11/27)

>  <Rbt.Parameter_File>
/export/apps/rDock/src/rDock_2013.1_src/data/scripts/dock_solv.prm

>  <Rbt.Receptor>
prm/blind_docking_80.prm

>  <SCORE>
57.1148

>  <SCORE.INTER>
22.365

>  <SCORE.INTER.CONST>
1

>  <SCORE.INTER.POLAR>
-0.731733

>  <SCORE.INTER.ROT>
15

>  <SCORE.INTER.SOLV>
24.7152

>  <SCORE.INTER.VDW>
-4.48931

>  <SCORE.INTER.norm>
0.430096

>  <SCORE.INTRA>
1.03707

>  <SCORE.INTRA.DIHEDRAL>
-25.0151

>  <SCORE.INTRA.DIHEDRAL.0>
47.8724

>  <SCORE.INTRA.POLAR>
0

>  <SCORE.INTRA.POLAR.0>
0

>  <SCORE.INTRA.REPUL>
0

>  <SCORE.INTRA.REPUL.0>
0

>  <SCORE.INTRA.SOLV>
10.7152

>  <SCORE.INTRA.SOLV.lig_0>
-115.677

>  <SCORE.INTRA.VDW>
8.18706

>  <SCORE.INTRA.VDW.0>
-7.4833

>  <SCORE.INTRA.norm>
0.0199436

>  <SCORE.RESTR>
33.7127

>  <SCORE.RESTR.CAVITY>
33.7127

>  <SCORE.RESTR.norm>
0.648322

>  <SCORE.SYSTEM>
0

>  <SCORE.SYSTEM.CONST>
0

>  <SCORE.SYSTEM.DIHEDRAL>
0

>  <SCORE.SYSTEM.SOLV>
0

>  <SCORE.SYSTEM.norm>
0

>  <SCORE.heavy>
52

>  <SCORE.norm>
1.09836

>  <RMSD>
31.054

$$$$
2be0_lig
 OpenBabel11021811423D
libRbt.so/2013.1/901 2013/11/27
 52 56  0  0  0  0  0  0  0  0999 V2000
   22.5568   28.9432    9.1234 C   0  0  2  0  0  0  0  0  0  0  0  0
   23.8670   29.2924    8.7436 O   0  0  0  0  0  0  0  0  0  0  0  0
   23.4376   29.7641    4.3888 C   0  0  2  0  0  0  0  0  0  0  0  0
   23.8157   29.8568    2.9508 N   0  0  0  0  0  0  0  0  0  0  0  0
   24.6269   26.1673    6.4308 C   0  0  2  0  0  0  0  0  0  0  0  0
   24.8453   24.9584    7.1866 O   0  0  0  0  0  0  0  0  0  0  0  0
   28.6436   26.7748    9.0068 C   0  0  1  0  0  0  0  0  0  0  0  0
   28.8293   21.1307    2.3893 C   0  0  0  0  0  0  0  0  0  0  0  0
   21.8949   30.0771   10.0076 C   0  0  2  0  0  0  0  0  0  0  0  0
   21.9611   31.3583    9.3014 N   0  0  0  0  0  0  0  0  0  0  0  0
   24.2576   30.8556    5.2162 C   0  0  0  0  0  0  0  0  0  0  0  0
   26.0055   26.8138    6.2212 C   0  0  2  0  0  0  0  0  0  0  0  0
   26.5325   26.1259    5.0020 O   0  0  0  0  0  0  0  0  0  0  0  0
   30.2267   27.0494    8.7627 C   0  0  2  0  0  0  0  0  0  0  0  0
   30.8066   25.8864    8.0166 N   0  0  0  0  0  0  0  0  0  0  0  0
   27.8742   20.2414    1.7961 C   0  0  0  0  0  0  0  0  0  0  0  0
   28.2799   19.3675    0.7536 N   0  0  0  0  0  0  0  0  0  0  0  0
   22.6198   30.1405   11.4311 C   0  0  1  0  0  0  0  0  0  0  0  0
   22.0175   31.1668   12.2045 O   0  0  0  0  0  0  0  0  0  0  0  0
   23.8814   30.7773    6.8044 C   0  0  2  0  0  0  0  0  0  0  0  0
   24.6112   31.7561    7.5598 N   0  0  0  0  0  0  0  0  0  0  0  0
   26.6215   26.5071    7.5994 C   0  0  2  0  0  0  0  0  0  0  0  0
   28.0328   26.6158    7.7137 O   0  0  0  0  0  0  0  0  0  0  0  0
   30.9047   27.2103   10.1568 C   0  0  1  0  0  0  0  0  0  0  0  0
   30.2739   28.3815   10.7874 O   0  0  0  0  0  0  0  0  0  0  0  0
   29.6120   19.3252    0.2517 C   0  0  0  0  0  0  0  0  0  0  0  0
   22.4910   28.7484   12.1149 C   0  0  2  0  0  0  0  0  0  0  0  0
   23.1508   28.7440   13.4430 O   0  0  0  0  0  0  0  0  0  0  0  0
   24.2023   29.3296    7.3617 C   0  0  2  0  0  0  0  0  0  0  0  0
   26.0729   25.0989    7.9309 C   0  0  1  0  0  0  0  0  0  0  0  0
   30.6735   25.8681   11.0461 C   0  0  2  0  0  0  0  0  0  0  0  0
   31.3011   24.6931   10.4217 O   0  0  0  0  0  0  0  0  0  0  0  0
   30.5998   20.1801    0.7998 C   0  0  0  0  0  0  0  0  0  0  0  0
   23.1553   27.6329   11.2194 C   0  0  2  0  0  0  0  0  0  0  0  0
   22.4716   27.6899    9.9372 O   0  0  0  0  0  0  0  0  0  0  0  0
   23.3830   28.2981    6.5108 C   0  0  2  0  0  0  0  0  0  0  0  0
   23.7342   27.0520    7.0999 O   0  0  0  0  0  0  0  0  0  0  0  0
   25.7181   24.9447    9.4089 C   0  0  0  0  0  0  0  0  0  0  0  0
   25.8642   23.6472    9.9347 O   0  0  0  0  0  0  0  0  0  0  0  0
   29.1065   25.6094   11.2200 C   0  0  1  0  0  0  0  0  0  0  0  0
   28.4810   25.5067    9.8441 O   0  0  0  0  0  0  0  0  0  0  0  0
   30.2267   21.1116    1.8895 C   0  0  0  0  0  0  0  0  0  0  0  0
   22.9837   26.3417   11.9047 C   0  0  0  0  0  0  0  0  0  0  0  0
   24.0109   25.5372   11.6042 O   0  0  0  0  0  0  0  0  0  0  0  0
   23.7949   28.3802    4.9807 C   0  0  1  0  0  0  0  0  0  0  0  0
   23.0534   27.4682    4.2392 O   0  0  0  0  0  0  0  0  0  0  0  0
   27.2086   24.8104    4.9098 C   0  0  0  0  0  0  0  0  0  0  0  0
   28.9479   24.3154   12.0637 C   0  0  0  0  0  0  0  0  0  0  0  0
   28.7954   23.1662   11.2063 N   0  0  0  0  0  0  0  0  0  0  0  0
   27.4381   24.5219    3.4227 C   0  0  0  0  0  0  0  0  0  0  0  0
   28.6146   23.6062    3.2680 N   0  0  0  0  0  0  0  0  0  0  0  0
   28.3426   22.1075    3.5680 C   0  0  0  0  0  0  0  0  0  0  0  0
  1  2  1  1  0  0  0
  1  9  1  0  0  0  0
  1 35  1  0  0  0  0
  3  4  1  6  0  0  0
  3 11  1  0  0  0  0
  3 45  1  0  0  0  0
  5  6  1  0  0  0  0
  5 12  1  0  0  0  0
  5 37  1  1  0  0  0
  6 30  1  0  0  0  0
  7 14  1  0  0  0  0
  7 41  1  0  0  0  0
  7 23  1  6  0  0  0
  8 16  2  0  0  0  0
  8 42  1  0  0  0  0
  9 10  1  6  0  0  0
  9 18  1  0  0  0  0
 11 20  1  0  0  0  0
 12 13  1  6  0  0  0
 12 22  1  0  0  0  0
 13 47  1  0  0  0  0
 14 15  1  1  0  0  0
 14 24  1  0  0  0  0
 16 17  1  0  0  0  0
 17 26  2  0  0  0  0
 18 19  1  1  0  0  0
 18 27  1  0  0  0  0
 20 21  1  1  0  0  0
 20 29  1  0  0  0  0
 22 23  1  6  0  0  0
 22 30  1  0  0  0  0
 24 25  1  1  0  0  0
 24 31  1  0  0  0  0
 26 33  1  0  0  0  0
 27 28  1  1  0  0  0
 27 34  1  0  0  0  0
 29  2  1  1  0  0  0
 29 36  1  0  0  0  0
 30 38  1  1  0  0  0
 31 32  1  6  0  0  0
 31 40  1  0  0  0  0
 33 42  2  0  0  0  0
 34 35  1  0  0  0  0
 34 43  1  1  0  0  0
 36 37  1  1  0  0  0
 36 45  1  0  0  0  0
 38 39  1  0  0  0  0
 40 41  1  0  0  0  0
 40 48  1  6  0  0  0
 43 44  1  0  0  0  0
 45 46  1  6  0  0  0
 47 50  1  0  0  0  0
 48 49  1  0  0  0  0
 50 51  1  0  0  0  0
 51 52  1  0  0  0  0
 52  8  1  0  0  0  0
M  END
>  <CHROM.1>
-123.22524885,-179.56262522,-173.15168375,-82.43274514,175.28218067,159.94653823
88.47731359,94.36735169,-149.51097155,-105.42257494,-94.13891925,153.81993523
78.05930981,128.42747068,-123.68005175,26.13837747,26.39481507,7.60646030
2.25694778,-0.69547890,1.24570297

>  <Name>
2be0_lig

>  <RI>
2.57068e+07

>  <Rbt.Current_Directory>
/home/itssahil/PROJECTS/Mol_Feturizer/New_Systems/rnas/2be0

>  <Rbt.Executable>
rbdock ($Id: //depot/dev/client3/rdock/2013.1/src/exe/rbdock.cxx#4 $)

>  <Rbt.Library>
libRbt.so (2013.1, Build901 2013/11/27)

>  <Rbt.Parameter_File>
/export/apps/rDock/src/rDock_2013.1_src/data/scripts/dock_solv.prm

>  <Rbt.Receptor>
prm/blind_docking_60.prm

>  <SCORE>
34.1511

>  <SCORE.INTER>
9.12534

>  <SCORE.INTER.CONST>
1

>  <SCORE.INTER.POLAR>
-0.931013

>  <SCORE.INTER.ROT>
15

>  <SCORE.INTER.SOLV>
40.8815

>  <SCORE.INTER.VDW>
-18.0402

>  <SCORE.INTER.norm>
0.175487

>  <SCORE.INTRA>
-2.17061

>  <SCORE.INTRA.DIHEDRAL>
-13.2188

>  <SCORE.INTRA.DIHEDRAL.0>
47.8724

>  <SCORE.INTRA.POLAR>
0

>  <SCORE.INTRA.POLAR.0>
0

>  <SCORE.INTRA.REPUL>
0

>  <SCORE.INTRA.REPUL.0>
0

>  <SCORE.INTRA.SOLV>
1.91403

>  <SCORE.INTRA.SOLV.lig_0>
-115.677

>  <SCORE.INTRA.VDW>
3.4818

>  <SCORE.INTRA.VDW.0>
-7.4833

>  <SCORE.INTRA.norm>
-0.0417424

>  <SCORE.RESTR>
27.1964

>  <SCORE.RESTR.CAVITY>
27.1964

>  <SCORE.RESTR.norm>
0.523007

>  <SCORE.SYSTEM>
0

>  <SCORE.SYSTEM.CONST>
0

>  <SCORE.SYSTEM.DIHEDRAL>
0

>  <SCORE.SYSTEM.SOLV>
0

>  <SCORE.SYSTEM.norm>
0

>  <SCORE.heavy>
52

>  <SCORE.norm>
0.656752

>  <RMSD>
31.055

$$$$
2be0_lig
 OpenBabel11021811423D
libRbt.so/2013.1/901 2013/11/27
 52 56  0  0  0  0  0  0  0  0999 V2000
   28.5988   26.3693   10.1906 C   0  0  2  0  0  0  0  0  0  0  0  0
   28.1065   25.2841    9.4403 O   0  0  0  0  0  0  0  0  0  0  0  0
   25.0424   22.1414    9.7658 C   0  0  2  0  0  0  0  0  0  0  0  0
   23.9878   21.2769   10.3656 N   0  0  0  0  0  0  0  0  0  0  0  0
   25.6301   26.7208    7.9751 C   0  0  2  0  0  0  0  0  0  0  0  0
   26.7599   27.6018    8.1418 O   0  0  0  0  0  0  0  0  0  0  0  0
   24.3568   30.8088    7.2692 C   0  0  1  0  0  0  0  0  0  0  0  0
   27.4043   23.8763    2.3256 C   0  0  0  0  0  0  0  0  0  0  0  0
   29.8571   27.0265    9.4902 C   0  0  2  0  0  0  0  0  0  0  0  0
   29.5226   27.3916    8.1120 N   0  0  0  0  0  0  0  0  0  0  0  0
   26.3700   22.0329   10.6456 C   0  0  0  0  0  0  0  0  0  0  0  0
   24.4136   27.6118    7.6775 C   0  0  2  0  0  0  0  0  0  0  0  0
   24.4889   27.8235    6.1987 O   0  0  0  0  0  0  0  0  0  0  0  0
   23.7488   32.2905    7.5454 C   0  0  2  0  0  0  0  0  0  0  0  0
   22.2695   32.1716    7.7535 N   0  0  0  0  0  0  0  0  0  0  0  0
   27.1244   24.4462    1.0404 C   0  0  0  0  0  0  0  0  0  0  0  0
   27.8241   23.9796   -0.1032 N   0  0  0  0  0  0  0  0  0  0  0  0
   31.0970   26.0196    9.5582 C   0  0  1  0  0  0  0  0  0  0  0  0
   32.2108   26.6238    8.9192 O   0  0  0  0  0  0  0  0  0  0  0  0
   27.5499   22.9796   10.0279 C   0  0  2  0  0  0  0  0  0  0  0  0
   28.7509   22.8892   10.8093 N   0  0  0  0  0  0  0  0  0  0  0  0
   24.7341   28.7754    8.6346 C   0  0  2  0  0  0  0  0  0  0  0  0
   24.0456   29.9981    8.4166 O   0  0  0  0  0  0  0  0  0  0  0  0
   24.0667   33.1770    6.3036 C   0  0  1  0  0  0  0  0  0  0  0  0
   25.5345   33.2366    6.2067 O   0  0  0  0  0  0  0  0  0  0  0  0
   28.8119   22.9555   -0.0434 C   0  0  0  0  0  0  0  0  0  0  0  0
   31.3910   25.6963   11.0519 C   0  0  2  0  0  0  0  0  0  0  0  0
   32.5336   24.7596   11.1794 O   0  0  0  0  0  0  0  0  0  0  0  0
   27.0603   24.4854    9.9796 C   0  0  2  0  0  0  0  0  0  0  0  0
   26.2738   28.8989    8.5444 C   0  0  1  0  0  0  0  0  0  0  0  0
   23.4157   32.5167    4.9672 C   0  0  2  0  0  0  0  0  0  0  0  0
   21.9486   32.4535    5.0571 O   0  0  0  0  0  0  0  0  0  0  0  0
   29.1302   22.3541    1.1992 C   0  0  0  0  0  0  0  0  0  0  0  0
   30.1267   25.0432   11.7319 C   0  0  2  0  0  0  0  0  0  0  0  0
   29.0459   26.0029   11.5712 O   0  0  0  0  0  0  0  0  0  0  0  0
   25.7526   24.5347    9.1155 C   0  0  2  0  0  0  0  0  0  0  0  0
   25.4153   25.9165    9.1303 O   0  0  0  0  0  0  0  0  0  0  0  0
   26.9133   29.2148    9.8955 C   0  0  0  0  0  0  0  0  0  0  0  0
   28.2944   28.9589    9.9865 O   0  0  0  0  0  0  0  0  0  0  0  0
   24.0036   31.0453    4.7613 C   0  0  1  0  0  0  0  0  0  0  0  0
   23.7146   30.2337    6.0073 O   0  0  0  0  0  0  0  0  0  0  0  0
   28.4284   22.8064    2.4228 C   0  0  0  0  0  0  0  0  0  0  0  0
   30.4568   24.7810   13.1420 C   0  0  0  0  0  0  0  0  0  0  0  0
   30.5367   25.9417   13.8048 O   0  0  0  0  0  0  0  0  0  0  0  0
   24.6199   23.6296    9.7599 C   0  0  1  0  0  0  0  0  0  0  0  0
   23.4720   23.6758    8.9777 O   0  0  0  0  0  0  0  0  0  0  0  0
   25.5630   27.4096    5.2653 C   0  0  0  0  0  0  0  0  0  0  0  0
   23.3409   30.4633    3.4832 C   0  0  0  0  0  0  0  0  0  0  0  0
   21.9476   30.1775    3.7193 N   0  0  0  0  0  0  0  0  0  0  0  0
   24.9945   26.2894    4.3883 C   0  0  0  0  0  0  0  0  0  0  0  0
   26.0330   25.8549    3.3985 N   0  0  0  0  0  0  0  0  0  0  0  0
   26.5964   24.4227    3.6020 C   0  0  0  0  0  0  0  0  0  0  0  0
  1  2  1  6  0  0  0
  1  9  1  0  0  0  0
  1 35  1  0  0  0  0
  3  4  1  1  0  0  0
  3 11  1  0  0  0  0
  3 45  1  0  0  0  0
  5  6  1  0  0  0  0
  5 12  1  0  0  0  0
  5 37  1  1  0  0  0
  6 30  1  0  0  0  0
  7 14  1  0  0  0  0
  7 41  1  0  0  0  0
  7 23  1  1  0  0  0
  8 16  2  0  0  0  0
  8 42  1  0  0  0  0
  9 10  1  6  0  0  0
  9 18  1  0  0  0  0
 11 20  1  0  0  0  0
 12 13  1  6  0  0  0
 12 22  1  0  0  0  0
 13 47  1  0  0  0  0
 14 15  1  6  0  0  0
 14 24  1  0  0  0  0
 16 17  1  0  0  0  0
 17 26  2  0  0  0  0
 18 19  1  1  0  0  0
 18 27  1  0  0  0  0
 20 21  1  1  0  0  0
 20 29  1  0  0  0  0
 22 23  1  6  0  0  0
 22 30  1  0  0  0  0
 24 25  1  6  0  0  0
 24 31  1  0  0  0  0
 26 33  1  0  0  0  0
 27 28  1  6  0  0  0
 27 34  1  0  0  0  0
 29  2  1  6  0  0  0
 29 36  1  0  0  0  0
 30 38  1  1  0  0  0
 31 32  1  1  0  0  0
 31 40  1  0  0  0  0
 33 42  2  0  0  0  0
 34 35  1  0  0  0  0
 34 43  1  1  0  0  0
 36 37  1  1  0  0  0
 36 45  1  0  0  0  0
 38 39  1  0  0  0  0
 40 41  1  0  0  0  0
 40 48  1  6  0  0  0
 43 44  1  0  0  0  0
 45 46  1  6  0  0  0
 47 50  1  0  0  0  0
 48 49  1  0  0  0  0
 50 51  1  0  0  0  0
 51 52  1  0  0  0  0
 52  8  1  0  0  0  0
M  END
>  <CHROM.1>
173.76896858,-106.10225047,-163.36768230,-6.41791664,110.32778160,-70.80903383
-123.19818241,45.82908434,70.76104912,105.62311171,-70.56673272,178.59504016
112.17902124,165.25038953,-23.06294230,26.60542443,26.83960032,7.54515850
0.21445065,-0.97254363,1.07890277

>  <Name>
2be0_lig

>  <RI>
2.57068e+07

>  <Rbt.Current_Directory>
/home/itssahil/PROJECTS/Mol_Feturizer/New_Systems/rnas/2be0

>  <Rbt.Executable>
rbdock ($Id: //depot/dev/client3/rdock/2013.1/src/exe/rbdock.cxx#4 $)

>  <Rbt.Library>
libRbt.so (2013.1, Build901 2013/11/27)

>  <Rbt.Parameter_File>
/export/apps/rDock/src/rDock_2013.1_src/data/scripts/dock_solv.prm

>  <Rbt.Receptor>
prm/blind_docking_60.prm

>  <SCORE>
42.0852

>  <SCORE.INTER>
23.9684

>  <SCORE.INTER.CONST>
1

>  <SCORE.INTER.POLAR>
-0.646424

>  <SCORE.INTER.ROT>
15

>  <SCORE.INTER.SOLV>
37.9541

>  <SCORE.INTER.VDW>
-8.11767

>  <SCORE.INTER.norm>
0.460931

>  <SCORE.INTRA>
3.69647

>  <SCORE.INTRA.DIHEDRAL>
-9.25823

>  <SCORE.INTRA.DIHEDRAL.0>
47.8724

>  <SCORE.INTRA.POLAR>
0

>  <SCORE.INTRA.POLAR.0>
0

>  <SCORE.INTRA.REPUL>
0.14756

>  <SCORE.INTRA.REPUL.0>
0

>  <SCORE.INTRA.SOLV>
5.44982

>  <SCORE.INTRA.SOLV.lig_0>
-115.677

>  <SCORE.INTRA.VDW>
4.86287

>  <SCORE.INTRA.VDW.0>
-7.4833

>  <SCORE.INTRA.norm>
0.0710859

>  <SCORE.RESTR>
14.4204

>  <SCORE.RESTR.CAVITY>
14.4204

>  <SCORE.RESTR.norm>
0.277315

>  <SCORE.SYSTEM>
0

>  <SCORE.SYSTEM.CONST>
0

>  <SCORE.SYSTEM.DIHEDRAL>
0

>  <SCORE.SYSTEM.SOLV>
0

>  <SCORE.SYSTEM.norm>
0

>  <SCORE.heavy>
52

>  <SCORE.norm>
0.809332

>  <RMSD>
31.078

$$$$
2be0_lig
 OpenBabel11021811423D
libRbt.so/2013.1/901 2013/11/27
 52 56  0  0  0  0  0  0  0  0999 V2000
   28.8360   26.8100    9.6535 C   0  0  2  0  0  0  0  0  0  0  0  0
   28.8227   25.6330   10.4264 O   0  0  0  0  0  0  0  0  0  0  0  0
   25.9320   22.4679    9.4282 C   0  0  2  0  0  0  0  0  0  0  0  0
   24.7179   21.6087    9.5137 N   0  0  0  0  0  0  0  0  0  0  0  0
   26.8155   26.8645    7.6722 C   0  0  2  0  0  0  0  0  0  0  0  0
   27.1131   28.2659    7.8393 O   0  0  0  0  0  0  0  0  0  0  0  0
   23.3068   29.8473    6.6149 C   0  0  1  0  0  0  0  0  0  0  0  0
   24.8003   22.2318    5.0246 C   0  0  0  0  0  0  0  0  0  0  0  0
   29.8262   26.6782    8.4255 C   0  0  2  0  0  0  0  0  0  0  0  0
   29.4899   25.4866    7.6434 N   0  0  0  0  0  0  0  0  0  0  0  0
   26.7211   22.3971   10.8140 C   0  0  0  0  0  0  0  0  0  0  0  0
   25.5968   26.7787    6.7395 C   0  0  2  0  0  0  0  0  0  0  0  0
   26.1991   26.8318    5.3714 O   0  0  0  0  0  0  0  0  0  0  0  0
   22.3940   30.2089    5.3198 C   0  0  2  0  0  0  0  0  0  0  0  0
   23.2294   30.0551    4.0852 N   0  0  0  0  0  0  0  0  0  0  0  0
   26.1238   21.6903    5.1240 C   0  0  0  0  0  0  0  0  0  0  0  0
   26.4295   20.7658    6.1569 N   0  0  0  0  0  0  0  0  0  0  0  0
   31.3349   26.6413    8.9532 C   0  0  1  0  0  0  0  0  0  0  0  0
   32.2049   26.5154    7.8391 O   0  0  0  0  0  0  0  0  0  0  0  0
   28.0551   23.3394   10.7665 C   0  0  2  0  0  0  0  0  0  0  0  0
   28.7755   23.2827   12.0071 N   0  0  0  0  0  0  0  0  0  0  0  0
   24.8050   27.9868    7.2747 C   0  0  2  0  0  0  0  0  0  0  0  0
   23.7661   28.4936    6.4499 O   0  0  0  0  0  0  0  0  0  0  0  0
   21.9001   31.6786    5.4781 C   0  0  1  0  0  0  0  0  0  0  0  0
   21.0840   31.7077    6.7031 O   0  0  0  0  0  0  0  0  0  0  0  0
   25.4741   20.3380    7.1224 C   0  0  0  0  0  0  0  0  0  0  0  0
   31.6098   27.9443    9.7588 C   0  0  2  0  0  0  0  0  0  0  0  0
   32.9982   27.9659   10.2794 O   0  0  0  0  0  0  0  0  0  0  0  0
   27.6436   24.8381   10.4597 C   0  0  2  0  0  0  0  0  0  0  0  0
   25.9083   29.0219    7.5994 C   0  0  1  0  0  0  0  0  0  0  0  0
   23.1735   32.6838    5.5961 C   0  0  2  0  0  0  0  0  0  0  0  0
   23.9941   32.6597    4.3753 O   0  0  0  0  0  0  0  0  0  0  0  0
   24.1496   20.8383    7.0738 C   0  0  0  0  0  0  0  0  0  0  0  0
   30.6139   28.0577   10.9765 C   0  0  2  0  0  0  0  0  0  0  0  0
   29.2774   28.0273   10.4041 O   0  0  0  0  0  0  0  0  0  0  0  0
   26.8650   24.8503    9.0986 C   0  0  2  0  0  0  0  0  0  0  0  0
   26.5608   26.2283    8.9203 O   0  0  0  0  0  0  0  0  0  0  0  0
   25.6132   29.8072    8.8762 C   0  0  0  0  0  0  0  0  0  0  0  0
   24.4258   29.4533    9.5441 O   0  0  0  0  0  0  0  0  0  0  0  0
   24.0681   32.2629    6.8513 C   0  0  1  0  0  0  0  0  0  0  0  0
   24.4863   30.8170    6.6799 O   0  0  0  0  0  0  0  0  0  0  0  0
   23.7802   21.8065    6.0153 C   0  0  0  0  0  0  0  0  0  0  0  0
   30.9070   29.3144   11.6843 C   0  0  0  0  0  0  0  0  0  0  0  0
   30.1631   30.3010   11.1685 O   0  0  0  0  0  0  0  0  0  0  0  0
   25.5612   23.9508    9.1899 C   0  0  1  0  0  0  0  0  0  0  0  0
   24.8885   23.9638    7.9739 O   0  0  0  0  0  0  0  0  0  0  0  0
   25.5135   27.0364    4.0736 C   0  0  0  0  0  0  0  0  0  0  0  0
   25.2689   33.2459    6.9066 C   0  0  0  0  0  0  0  0  0  0  0  0
   25.5309   33.8008    5.6019 N   0  0  0  0  0  0  0  0  0  0  0  0
   24.5571   25.8560    3.8752 C   0  0  0  0  0  0  0  0  0  0  0  0
   25.3294   24.5727    3.9353 N   0  0  0  0  0  0  0  0  0  0  0  0
   24.4823   23.2749    3.8450 C   0  0  0  0  0  0  0  0  0  0  0  0
  1  2  1  1  0  0  0
  1  9  1  0  0  0  0
  1 35  1  0  0  0  0
  3  4  1  1  0  0  0
  3 11  1  0  0  0  0
  3 45  1  0  0  0  0
  5  6  1  0  0  0  0
  5 12  1  0  0  0  0
  5 37  1  1  0  0  0
  6 30  1  0  0  0  0
  7 14  1  0  0  0  0
  7 41  1  0  0  0  0
  7 23  1  6  0  0  0
  8 16  2  0  0  0  0
  8 42  1  0  0  0  0
  9 10  1  1  0  0  0
  9 18  1  0  0  0  0
 11 20  1  0  0  0  0
 12 13  1  6  0  0  0
 12 22  1  0  0  0  0
 13 47  1  0  0  0  0
 14 15  1  6  0  0  0
 14 24  1  0  0  0  0
 16 17  1  0  0  0  0
 17 26  2  0  0  0  0
 18 19  1  6  0  0  0
 18 27  1  0  0  0  0
 20 21  1  1  0  0  0
 20 29  1  0  0  0  0
 22 23  1  6  0  0  0
 22 30  1  0  0  0  0
 24 25  1  1  0  0  0
 24 31  1  0  0  0  0
 26 33  1  0  0  0  0
 27 28  1  1  0  0  0
 27 34  1  0  0  0  0
 29  2  1  6  0  0  0
 29 36  1  0  0  0  0
 30 38  1  1  0  0  0
 31 32  1  6  0  0  0
 31 40  1  0  0  0  0
 33 42  2  0  0  0  0
 34 35  1  0  0  0  0
 34 43  1  6  0  0  0
 36 37  1  1  0  0  0
 36 45  1  0  0  0  0
 38 39  1  0  0  0  0
 40 41  1  0  0  0  0
 40 48  1  6  0  0  0
 43 44  1  0  0  0  0
 45 46  1  6  0  0  0
 47 50  1  0  0  0  0
 48 49  1  0  0  0  0
 50 51  1  0  0  0  0
 51 52  1  0  0  0  0
 52  8  1  0  0  0  0
M  END
>  <CHROM.1>
-112.66537499,-150.19954329,166.85308446,-167.70589344,-62.72526575,-157.86074112
153.31278964,-115.25657857,90.25510974,132.00293597,-24.50393069,-57.04204062
176.08559813,-128.62285167,-61.94094629,26.39424137,26.95207482,7.69570027
-1.00764027,-0.63394286,-0.00153689

>  <Name>
2be0_lig

>  <RI>
0

>  <Rbt.Current_Directory>
/home/itssahil/PROJECTS/Mol_Feturizer/New_Systems/rnas/2be0

>  <Rbt.Executable>
rbdock ($Id: //depot/dev/client3/rdock/2013.1/src/exe/rbdock.cxx#4 $)

>  <Rbt.Library>
libRbt.so (2013.1, Build901 2013/11/27)

>  <Rbt.Parameter_File>
/export/apps/rDock/src/rDock_2013.1_src/data/scripts/dock_solv.prm

>  <Rbt.Receptor>
prm/blind_docking_80.prm

>  <SCORE>
91.3717

>  <SCORE.INTER>
41.0009

>  <SCORE.INTER.CONST>
1

>  <SCORE.INTER.POLAR>
-0.846535

>  <SCORE.INTER.ROT>
15

>  <SCORE.INTER.SOLV>
39.0833

>  <SCORE.INTER.VDW>
3.52793

>  <SCORE.INTER.norm>
0.788478

>  <SCORE.INTRA>
11.5243

>  <SCORE.INTRA.DIHEDRAL>
-10.6998

>  <SCORE.INTRA.DIHEDRAL.0>
47.8724

>  <SCORE.INTRA.POLAR>
0

>  <SCORE.INTRA.POLAR.0>
0

>  <SCORE.INTRA.REPUL>
0

>  <SCORE.INTRA.REPUL.0>
0

>  <SCORE.INTRA.SOLV>
8.38591

>  <SCORE.INTRA.SOLV.lig_0>
-115.677

>  <SCORE.INTRA.VDW>
12.6812

>  <SCORE.INTRA.VDW.0>
-7.4833

>  <SCORE.INTRA.norm>
0.22162

>  <SCORE.RESTR>
38.8466

>  <SCORE.RESTR.CAVITY>
38.8466

>  <SCORE.RESTR.norm>
0.747051

>  <SCORE.SYSTEM>
0

>  <SCORE.SYSTEM.CONST>
0

>  <SCORE.SYSTEM.DIHEDRAL>
0

>  <SCORE.SYSTEM.SOLV>
0

>  <SCORE.SYSTEM.norm>
0

>  <SCORE.heavy>
52

>  <SCORE.norm>
1.75715

>  <RMSD>
31.110

$$$$
2be0_lig
 OpenBabel11021811423D
libRbt.so/2013.1/901 2013/11/27
 52 56  0  0  0  0  0  0  0  0999 V2000
   24.3061   28.8346    7.0066 C   0  0  2  0  0  0  0  0  0  0  0  0
   23.4311   28.9470    8.1042 O   0  0  0  0  0  0  0  0  0  0  0  0
   23.3459   25.9599   11.3354 C   0  0  2  0  0  0  0  0  0  0  0  0
   22.9310   24.7628   12.1192 N   0  0  0  0  0  0  0  0  0  0  0  0
   26.1492   26.2291    7.5838 C   0  0  2  0  0  0  0  0  0  0  0  0
   26.6579   26.9090    6.4178 O   0  0  0  0  0  0  0  0  0  0  0  0
   26.6673   23.5877    3.7103 C   0  0  1  0  0  0  0  0  0  0  0  0
   30.5376   26.0629   12.2888 C   0  0  0  0  0  0  0  0  0  0  0  0
   25.6417   29.6480    7.2526 C   0  0  2  0  0  0  0  0  0  0  0  0
   26.2533   29.2262    8.5146 N   0  0  0  0  0  0  0  0  0  0  0  0
   22.0767   26.9007   11.1070 C   0  0  0  0  0  0  0  0  0  0  0  0
   26.3632   24.7254    7.3483 C   0  0  2  0  0  0  0  0  0  0  0  0
   27.7686   24.4964    7.8064 O   0  0  0  0  0  0  0  0  0  0  0  0
   26.6246   22.0658    3.1419 C   0  0  2  0  0  0  0  0  0  0  0  0
   27.6928   21.2675    3.8256 N   0  0  0  0  0  0  0  0  0  0  0  0
   30.9846   26.4282   13.6009 C   0  0  0  0  0  0  0  0  0  0  0  0
   31.8529   27.5393   13.7640 N   0  0  0  0  0  0  0  0  0  0  0  0
   25.3274   31.2154    7.2346 C   0  0  1  0  0  0  0  0  0  0  0  0
   26.5346   31.9253    7.4642 O   0  0  0  0  0  0  0  0  0  0  0  0
   22.4874   28.2214   10.2369 C   0  0  2  0  0  0  0  0  0  0  0  0
   21.3542   29.0775   10.0263 N   0  0  0  0  0  0  0  0  0  0  0  0
   26.0299   24.6725    5.8453 C   0  0  2  0  0  0  0  0  0  0  0  0
   26.4515   23.5197    5.1314 O   0  0  0  0  0  0  0  0  0  0  0  0
   26.8707   22.1226    1.6039 C   0  0  1  0  0  0  0  0  0  0  0  0
   25.7623   22.9103    1.0397 O   0  0  0  0  0  0  0  0  0  0  0  0
   32.3164   28.3278   12.6725 C   0  0  0  0  0  0  0  0  0  0  0  0
   24.6945   31.5778    5.8597 C   0  0  2  0  0  0  0  0  0  0  0  0
   24.3761   33.0242    5.7844 O   0  0  0  0  0  0  0  0  0  0  0  0
   23.0853   27.7787    8.8383 C   0  0  2  0  0  0  0  0  0  0  0  0
   26.6187   25.9961    5.3017 C   0  0  1  0  0  0  0  0  0  0  0  0
   28.3061   22.8228    1.2956 C   0  0  2  0  0  0  0  0  0  0  0  0
   29.4188   22.0410    1.8570 O   0  0  0  0  0  0  0  0  0  0  0  0
   31.9073   28.0153   11.3526 C   0  0  0  0  0  0  0  0  0  0  0  0
   23.3665   30.7578    5.6329 C   0  0  2  0  0  0  0  0  0  0  0  0
   23.7423   29.3557    5.7218 O   0  0  0  0  0  0  0  0  0  0  0  0
   24.3183   26.8511    9.1184 C   0  0  2  0  0  0  0  0  0  0  0  0
   24.7759   26.5295    7.8106 O   0  0  0  0  0  0  0  0  0  0  0  0
   25.7306   26.6343    4.2349 C   0  0  0  0  0  0  0  0  0  0  0  0
   24.4086   26.9090    4.6323 O   0  0  0  0  0  0  0  0  0  0  0  0
   28.3218   24.2965    1.9129 C   0  0  1  0  0  0  0  0  0  0  0  0
   28.0325   24.1989    3.3966 O   0  0  0  0  0  0  0  0  0  0  0  0
   31.0020   26.8644   11.1291 C   0  0  0  0  0  0  0  0  0  0  0  0
   22.8282   31.1254    4.3134 C   0  0  0  0  0  0  0  0  0  0  0  0
   23.0774   30.1417    3.4400 O   0  0  0  0  0  0  0  0  0  0  0  0
   23.8785   25.5654    9.9376 C   0  0  1  0  0  0  0  0  0  0  0  0
   24.9830   24.7594   10.1864 O   0  0  0  0  0  0  0  0  0  0  0  0
   28.2347   23.7744    9.0138 C   0  0  0  0  0  0  0  0  0  0  0  0
   29.7139   24.9086    1.5987 C   0  0  0  0  0  0  0  0  0  0  0  0
   30.3649   24.1734    0.5430 N   0  0  0  0  0  0  0  0  0  0  0  0
   29.4371   24.5460    9.5672 C   0  0  0  0  0  0  0  0  0  0  0  0
   29.8561   23.9455   10.8751 N   0  0  0  0  0  0  0  0  0  0  0  0
   29.5544   24.8020   12.1342 C   0  0  0  0  0  0  0  0  0  0  0  0
  1  2  1  1  0  0  0
  1  9  1  0  0  0  0
  1 35  1  0  0  0  0
  3  4  1  6  0  0  0
  3 11  1  0  0  0  0
  3 45  1  0  0  0  0
  5  6  1  0  0  0  0
  5 12  1  0  0  0  0
  5 37  1  6  0  0  0
  6 30  1  0  0  0  0
  7 14  1  0  0  0  0
  7 41  1  0  0  0  0
  7 23  1  1  0  0  0
  8 16  2  0  0  0  0
  8 42  1  0  0  0  0
  9 10  1  1  0  0  0
  9 18  1  0  0  0  0
 11 20  1  0  0  0  0
 12 13  1  6  0  0  0
 12 22  1  0  0  0  0
 13 47  1  0  0  0  0
 14 15  1  1  0  0  0
 14 24  1  0  0  0  0
 16 17  1  0  0  0  0
 17 26  2  0  0  0  0
 18 19  1  6  0  0  0
 18 27  1  0  0  0  0
 20 21  1  6  0  0  0
 20 29  1  0  0  0  0
 22 23  1  6  0  0  0
 22 30  1  0  0  0  0
 24 25  1  6  0  0  0
 24 31  1  0  0  0  0
 26 33  1  0  0  0  0
 27 28  1  1  0  0  0
 27 34  1  0  0  0  0
 29  2  1  1  0  0  0
 29 36  1  0  0  0  0
 30 38  1  6  0  0  0
 31 32  1  1  0  0  0
 31 40  1  0  0  0  0
 33 42  2  0  0  0  0
 34 35  1  0  0  0  0
 34 43  1  6  0  0  0
 36 37  1  6  0  0  0
 36 45  1  0  0  0  0
 38 39  1  0  0  0  0
 40 41  1  0  0  0  0
 40 48  1  1  0  0  0
 43 44  1  0  0  0  0
 45 46  1  1  0  0  0
 47 50  1  0  0  0  0
 48 49  1  0  0  0  0
 50 51  1  0  0  0  0
 51 52  1  0  0  0  0
 52  8  1  0  0  0  0
M  END
>  <CHROM.1>
-117.06645359,-134.64033670,-160.67392382,109.18575397,-141.60257736,-155.56756628
162.62504191,-59.20532347,103.97888155,151.87400497,17.69962820,173.80146079
-108.82674125,-73.97925167,-141.79291540,26.42907484,26.49011789,7.06944333
1.71439930,-0.72829616,1.19261094

>  <Name>
2be0_lig

>  <RI>
2.57068e+07

>  <Rbt.Current_Directory>
/home/itssahil/PROJECTS/Mol_Feturizer/New_Systems/rnas/2be0

>  <Rbt.Executable>
rbdock ($Id: //depot/dev/client3/rdock/2013.1/src/exe/rbdock.cxx#4 $)

>  <Rbt.Library>
libRbt.so (2013.1, Build901 2013/11/27)

>  <Rbt.Parameter_File>
/export/apps/rDock/src/rDock_2013.1_src/data/scripts/dock_solv.prm

>  <Rbt.Receptor>
prm/blind_docking_60.prm

>  <SCORE>
21.0507

>  <SCORE.INTER>
-3.7169

>  <SCORE.INTER.CONST>
1

>  <SCORE.INTER.POLAR>
-0.692031

>  <SCORE.INTER.ROT>
15

>  <SCORE.INTER.SOLV>
27.5181

>  <SCORE.INTER.VDW>
-22.9438

>  <SCORE.INTER.norm>
-0.0714788

>  <SCORE.INTRA>
4.14084

>  <SCORE.INTRA.DIHEDRAL>
-3.45626

>  <SCORE.INTRA.DIHEDRAL.0>
47.8724

>  <SCORE.INTRA.POLAR>
0

>  <SCORE.INTRA.POLAR.0>
0

>  <SCORE.INTRA.REPUL>
0.0197036

>  <SCORE.INTRA.REPUL.0>
0

>  <SCORE.INTRA.SOLV>
1.75159

>  <SCORE.INTRA.SOLV.lig_0>
-115.677

>  <SCORE.INTRA.VDW>
4.89466

>  <SCORE.INTRA.VDW.0>
-7.4833

>  <SCORE.INTRA.norm>
0.0796315

>  <SCORE.RESTR>
20.6267

>  <SCORE.RESTR.CAVITY>
20.6267

>  <SCORE.RESTR.norm>
0.396668

>  <SCORE.SYSTEM>
0

>  <SCORE.SYSTEM.CONST>
0

>  <SCORE.SYSTEM.DIHEDRAL>
0

>  <SCORE.SYSTEM.SOLV>
0

>  <SCORE.SYSTEM.norm>
0

>  <SCORE.heavy>
52

>  <SCORE.norm>
0.404821

>  <RMSD>
31.195

$$$$
2be0_lig
 OpenBabel11021811423D
libRbt.so/2013.1/901 2013/11/27
 52 56  0  0  0  0  0  0  0  0999 V2000
   27.9812   23.9795    6.6422 C   0  0  2  0  0  0  0  0  0  0  0  0
   28.2288   25.3046    7.0492 O   0  0  0  0  0  0  0  0  0  0  0  0
   29.3388   24.5837   11.2467 C   0  0  2  0  0  0  0  0  0  0  0  0
   29.7643   24.8659   12.6463 N   0  0  0  0  0  0  0  0  0  0  0  0
   26.2965   26.4947    7.9565 C   0  0  2  0  0  0  0  0  0  0  0  0
   27.2312   27.5826    8.1092 O   0  0  0  0  0  0  0  0  0  0  0  0
   24.3250   30.4154    7.7763 C   0  0  1  0  0  0  0  0  0  0  0  0
   21.7019   25.3363    1.7663 C   0  0  0  0  0  0  0  0  0  0  0  0
   26.7084   23.8961    5.7048 C   0  0  2  0  0  0  0  0  0  0  0  0
   26.8613   24.8192    4.5783 N   0  0  0  0  0  0  0  0  0  0  0  0
   30.4285   25.1735   10.2403 C   0  0  0  0  0  0  0  0  0  0  0  0
   24.9045   27.1260    7.7951 C   0  0  2  0  0  0  0  0  0  0  0  0
   24.8234   27.4240    6.3315 O   0  0  0  0  0  0  0  0  0  0  0  0
   23.6363   31.7465    8.4049 C   0  0  2  0  0  0  0  0  0  0  0  0
   22.1771   31.4783    8.6158 N   0  0  0  0  0  0  0  0  0  0  0  0
   22.1524   24.0466    2.2005 C   0  0  0  0  0  0  0  0  0  0  0  0
   22.0358   22.9313    1.3302 N   0  0  0  0  0  0  0  0  0  0  0  0
   25.3919   24.2056    6.5574 C   0  0  1  0  0  0  0  0  0  0  0  0
   24.2646   24.1334    5.6984 O   0  0  0  0  0  0  0  0  0  0  0  0
   29.9911   24.8968    8.6904 C   0  0  2  0  0  0  0  0  0  0  0  0
   30.9647   25.4208    7.7745 N   0  0  0  0  0  0  0  0  0  0  0  0
   25.0508   28.2804    8.8043 C   0  0  2  0  0  0  0  0  0  0  0  0
   24.1122   29.3419    8.7107 O   0  0  0  0  0  0  0  0  0  0  0  0
   23.8472   32.9158    7.3963 C   0  0  1  0  0  0  0  0  0  0  0  0
   25.3032   33.0999    7.2799 O   0  0  0  0  0  0  0  0  0  0  0  0
   21.4823   23.0237    0.0213 C   0  0  0  0  0  0  0  0  0  0  0  0
   25.3013   23.1751    7.7202 C   0  0  2  0  0  0  0  0  0  0  0  0
   24.0973   23.4150    8.5522 O   0  0  0  0  0  0  0  0  0  0  0  0
   28.5815   25.5601    8.4034 C   0  0  2  0  0  0  0  0  0  0  0  0
   26.5214   28.7272    8.6257 C   0  0  1  0  0  0  0  0  0  0  0  0
   23.1858   32.5371    5.9592 C   0  0  2  0  0  0  0  0  0  0  0  0
   21.7305   32.3512    6.0679 O   0  0  0  0  0  0  0  0  0  0  0  0
   21.0213   24.2727   -0.4630 C   0  0  0  0  0  0  0  0  0  0  0  0
   26.5774   23.2731    8.6418 C   0  0  2  0  0  0  0  0  0  0  0  0
   27.7180   23.0338    7.7720 O   0  0  0  0  0  0  0  0  0  0  0  0
   27.5536   24.9565    9.4222 C   0  0  2  0  0  0  0  0  0  0  0  0
   26.3384   25.6054    9.0678 O   0  0  0  0  0  0  0  0  0  0  0  0
   27.1823   29.1003    9.9517 C   0  0  0  0  0  0  0  0  0  0  0  0
   28.5237   28.6983   10.0941 O   0  0  0  0  0  0  0  0  0  0  0  0
   23.8567   31.1984    5.4019 C   0  0  1  0  0  0  0  0  0  0  0  0
   23.6700   30.1029    6.4313 O   0  0  0  0  0  0  0  0  0  0  0  0
   21.1201   25.4673    0.4072 C   0  0  0  0  0  0  0  0  0  0  0  0
   26.4450   22.2647    9.7057 C   0  0  0  0  0  0  0  0  0  0  0  0
   27.0572   22.7018   10.8134 O   0  0  0  0  0  0  0  0  0  0  0  0
   27.9926   25.2698   10.9144 C   0  0  1  0  0  0  0  0  0  0  0  0
   27.0779   24.7199   11.8046 O   0  0  0  0  0  0  0  0  0  0  0  0
   23.6128   27.5554    5.4868 C   0  0  0  0  0  0  0  0  0  0  0  0
   23.1811   30.8815    4.0401 C   0  0  0  0  0  0  0  0  0  0  0  0
   21.8357   30.4033    4.2403 N   0  0  0  0  0  0  0  0  0  0  0  0
   23.3796   26.1984    4.8149 C   0  0  0  0  0  0  0  0  0  0  0  0
   21.9895   26.1506    4.2565 N   0  0  0  0  0  0  0  0  0  0  0  0
   21.8475   26.5808    2.7715 C   0  0  0  0  0  0  0  0  0  0  0  0
  1  2  1  1  0  0  0
  1  9  1  0  0  0  0
  1 35  1  0  0  0  0
  3  4  1  1  0  0  0
  3 11  1  0  0  0  0
  3 45  1  0  0  0  0
  5  6  1  0  0  0  0
  5 12  1  0  0  0  0
  5 37  1  1  0  0  0
  6 30  1  0  0  0  0
  7 14  1  0  0  0  0
  7 41  1  0  0  0  0
  7 23  1  1  0  0  0
  8 16  2  0  0  0  0
  8 42  1  0  0  0  0
  9 10  1  6  0  0  0
  9 18  1  0  0  0  0
 11 20  1  0  0  0  0
 12 13  1  6  0  0  0
 12 22  1  0  0  0  0
 13 47  1  0  0  0  0
 14 15  1  6  0  0  0
 14 24  1  0  0  0  0
 16 17  1  0  0  0  0
 17 26  2  0  0  0  0
 18 19  1  6  0  0  0
 18 27  1  0  0  0  0
 20 21  1  6  0  0  0
 20 29  1  0  0  0  0
 22 23  1  6  0  0  0
 22 30  1  0  0  0  0
 24 25  1  6  0  0  0
 24 31  1  0  0  0  0
 26 33  1  0  0  0  0
 27 28  1  1  0  0  0
 27 34  1  0  0  0  0
 29  2  1  6  0  0  0
 29 36  1  0  0  0  0
 30 38  1  1  0  0  0
 31 32  1  1  0  0  0
 31 40  1  0  0  0  0
 33 42  2  0  0  0  0
 34 35  1  0  0  0  0
 34 43  1  1  0  0  0
 36 37  1  6  0  0  0
 36 45  1  0  0  0  0
 38 39  1  0  0  0  0
 40 41  1  0  0  0  0
 40 48  1  6  0  0  0
 43 44  1  0  0  0  0
 45 46  1  1  0  0  0
 47 50  1  0  0  0  0
 48 49  1  0  0  0  0
 50 51  1  0  0  0  0
 51 52  1  0  0  0  0
 52  8  1  0  0  0  0
M  END
>  <CHROM.1>
137.08281201,-58.24933073,-150.36583916,154.93820281,-95.94371527,-83.99550270
65.72283579,24.62984924,-149.27103206,3.21690951,-72.71126481,164.65545209
92.97520621,101.99218944,-20.65181818,25.34017505,26.68722696,6.99420552
0.02186431,0.85649142,-2.74513721

>  <Name>
2be0_lig

>  <RI>
0

>  <Rbt.Current_Directory>
/home/itssahil/PROJECTS/Mol_Feturizer/New_Systems/rnas/2be0

>  <Rbt.Executable>
rbdock ($Id: //depot/dev/client3/rdock/2013.1/src/exe/rbdock.cxx#4 $)

>  <Rbt.Library>
libRbt.so (2013.1, Build901 2013/11/27)

>  <Rbt.Parameter_File>
/export/apps/rDock/src/rDock_2013.1_src/data/scripts/dock_solv.prm

>  <Rbt.Receptor>
prm/blind_docking_80.prm

>  <SCORE>
112.849

>  <SCORE.INTER>
30.8675

>  <SCORE.INTER.CONST>
1

>  <SCORE.INTER.POLAR>
-0.930031

>  <SCORE.INTER.ROT>
15

>  <SCORE.INTER.SOLV>
34.9127

>  <SCORE.INTER.VDW>
-1.55914

>  <SCORE.INTER.norm>
0.593605

>  <SCORE.INTRA>
39.4392

>  <SCORE.INTRA.DIHEDRAL>
-11.3563

>  <SCORE.INTRA.DIHEDRAL.0>
47.8724

>  <SCORE.INTRA.POLAR>
0

>  <SCORE.INTRA.POLAR.0>
0

>  <SCORE.INTRA.REPUL>
0.00988042

>  <SCORE.INTRA.REPUL.0>
0

>  <SCORE.INTRA.SOLV>
6.5544

>  <SCORE.INTRA.SOLV.lig_0>
-115.677

>  <SCORE.INTRA.VDW>
41.7907

>  <SCORE.INTRA.VDW.0>
-7.4833

>  <SCORE.INTRA.norm>
0.758445

>  <SCORE.RESTR>
42.542

>  <SCORE.RESTR.CAVITY>
42.542

>  <SCORE.RESTR.norm>
0.818116

>  <SCORE.SYSTEM>
0

>  <SCORE.SYSTEM.CONST>
0

>  <SCORE.SYSTEM.DIHEDRAL>
0

>  <SCORE.SYSTEM.SOLV>
0

>  <SCORE.SYSTEM.norm>
0

>  <SCORE.heavy>
52

>  <SCORE.norm>
2.17017

>  <RMSD>
31.217

$$$$
2be0_lig
 OpenBabel11021811423D
libRbt.so/2013.1/901 2013/11/27
 52 56  0  0  0  0  0  0  0  0999 V2000
   26.5252   23.2242    8.0505 C   0  0  2  0  0  0  0  0  0  0  0  0
   26.1274   24.4028    7.3905 O   0  0  0  0  0  0  0  0  0  0  0  0
   28.8006   27.4209    9.1556 C   0  0  2  0  0  0  0  0  0  0  0  0
   29.6804   28.6191    9.2551 N   0  0  0  0  0  0  0  0  0  0  0  0
   24.8735   27.6197    7.0949 C   0  0  2  0  0  0  0  0  0  0  0  0
   23.6490   27.2399    6.4339 O   0  0  0  0  0  0  0  0  0  0  0  0
   27.0423   24.7687    4.0230 C   0  0  1  0  0  0  0  0  0  0  0  0
   23.8736   33.8111    5.4871 C   0  0  0  0  0  0  0  0  0  0  0  0
   25.2917   22.5065    8.7354 C   0  0  2  0  0  0  0  0  0  0  0  0
   24.2389   22.2767    7.7437 N   0  0  0  0  0  0  0  0  0  0  0  0
   29.3573   26.4574    8.0110 C   0  0  0  0  0  0  0  0  0  0  0  0
   26.0039   27.4433    6.0685 C   0  0  2  0  0  0  0  0  0  0  0  0
   25.9925   28.7329    5.3108 O   0  0  0  0  0  0  0  0  0  0  0  0
   27.2486   24.4599    2.4408 C   0  0  2  0  0  0  0  0  0  0  0  0
   25.9288   24.0627    1.8527 N   0  0  0  0  0  0  0  0  0  0  0  0
   22.9162   34.7412    4.9645 C   0  0  0  0  0  0  0  0  0  0  0  0
   23.3616   35.8681    4.2252 N   0  0  0  0  0  0  0  0  0  0  0  0
   24.7732   23.3861    9.9654 C   0  0  1  0  0  0  0  0  0  0  0  0
   23.6642   22.7300   10.5601 O   0  0  0  0  0  0  0  0  0  0  0  0
   28.4098   25.1347    7.8598 C   0  0  2  0  0  0  0  0  0  0  0  0
   28.9013   24.2583    6.8344 N   0  0  0  0  0  0  0  0  0  0  0  0
   25.5071   26.1526    5.3902 C   0  0  2  0  0  0  0  0  0  0  0  0
   26.0736   25.8274    4.1293 O   0  0  0  0  0  0  0  0  0  0  0  0
   28.2864   23.3045    2.3104 C   0  0  1  0  0  0  0  0  0  0  0  0
   29.5377   23.8080    2.9005 O   0  0  0  0  0  0  0  0  0  0  0  0
   24.7372   36.1333    3.9696 C   0  0  0  0  0  0  0  0  0  0  0  0
   25.9458   23.5697   10.9722 C   0  0  2  0  0  0  0  0  0  0  0  0
   25.5250   24.3843   12.1376 O   0  0  0  0  0  0  0  0  0  0  0  0
   26.9264   25.5727    7.5176 C   0  0  2  0  0  0  0  0  0  0  0  0
   23.9708   26.3339    5.3586 C   0  0  1  0  0  0  0  0  0  0  0  0
   27.7531   21.9860    3.0997 C   0  0  2  0  0  0  0  0  0  0  0  0
   26.5024   21.4772    2.5155 O   0  0  0  0  0  0  0  0  0  0  0  0
   25.7292   35.2487    4.4600 C   0  0  0  0  0  0  0  0  0  0  0  0
   27.1643   24.2853   10.2717 C   0  0  2  0  0  0  0  0  0  0  0  0
   27.5258   23.4446    9.1415 O   0  0  0  0  0  0  0  0  0  0  0  0
   26.4329   26.5230    8.6632 C   0  0  2  0  0  0  0  0  0  0  0  0
   25.1050   26.8386    8.2627 O   0  0  0  0  0  0  0  0  0  0  0  0
   23.2242   25.0301    5.6359 C   0  0  0  0  0  0  0  0  0  0  0  0
   21.8326   25.0732    5.4289 O   0  0  0  0  0  0  0  0  0  0  0  0
   27.5178   22.3468    4.6383 C   0  0  1  0  0  0  0  0  0  0  0  0
   26.5415   23.5024    4.7169 O   0  0  0  0  0  0  0  0  0  0  0  0
   25.3159   34.0580    5.2384 C   0  0  0  0  0  0  0  0  0  0  0  0
   28.2451   24.4110   11.2628 C   0  0  0  0  0  0  0  0  0  0  0  0
   28.5728   25.7015   11.4044 O   0  0  0  0  0  0  0  0  0  0  0  0
   27.3560   27.8097    8.7616 C   0  0  1  0  0  0  0  0  0  0  0  0
   26.9122   28.6359    9.7872 O   0  0  0  0  0  0  0  0  0  0  0  0
   25.9681   30.1137    5.8486 C   0  0  0  0  0  0  0  0  0  0  0  0
   27.0010   21.0591    5.3356 C   0  0  0  0  0  0  0  0  0  0  0  0
   26.4261   20.1553    4.3704 N   0  0  0  0  0  0  0  0  0  0  0  0
   24.6136   30.3078    6.5377 C   0  0  0  0  0  0  0  0  0  0  0  0
   24.4822   31.7315    6.9876 N   0  0  0  0  0  0  0  0  0  0  0  0
   23.3410   32.5442    6.3187 C   0  0  0  0  0  0  0  0  0  0  0  0
  1  2  1  1  0  0  0
  1  9  1  0  0  0  0
  1 35  1  0  0  0  0
  3  4  1  6  0  0  0
  3 11  1  0  0  0  0
  3 45  1  0  0  0  0
  5  6  1  0  0  0  0
  5 12  1  0  0  0  0
  5 37  1  1  0  0  0
  6 30  1  0  0  0  0
  7 14  1  0  0  0  0
  7 41  1  0  0  0  0
  7 23  1  6  0  0  0
  8 16  2  0  0  0  0
  8 42  1  0  0  0  0
  9 10  1  6  0  0  0
  9 18  1  0  0  0  0
 11 20  1  0  0  0  0
 12 13  1  6  0  0  0
 12 22  1  0  0  0  0
 13 47  1  0  0  0  0
 14 15  1  1  0  0  0
 14 24  1  0  0  0  0
 16 17  1  0  0  0  0
 17 26  2  0  0  0  0
 18 19  1  1  0  0  0
 18 27  1  0  0  0  0
 20 21  1  6  0  0  0
 20 29  1  0  0  0  0
 22 23  1  6  0  0  0
 22 30  1  0  0  0  0
 24 25  1  1  0  0  0
 24 31  1  0  0  0  0
 26 33  1  0  0  0  0
 27 28  1  1  0  0  0
 27 34  1  0  0  0  0
 29  2  1  1  0  0  0
 29 36  1  0  0  0  0
 30 38  1  1  0  0  0
 31 32  1  6  0  0  0
 31 40  1  0  0  0  0
 33 42  2  0  0  0  0
 34 35  1  0  0  0  0
 34 43  1  1  0  0  0
 36 37  1  6  0  0  0
 36 45  1  0  0  0  0
 38 39  1  0  0  0  0
 40 41  1  0  0  0  0
 40 48  1  1  0  0  0
 43 44  1  0  0  0  0
 45 46  1  1  0  0  0
 47 50  1  0  0  0  0
 48 49  1  0  0  0  0
 50 51  1  0  0  0  0
 51 52  1  0  0  0  0
 52  8  1  0  0  0  0
M  END
>  <CHROM.1>
137.02838184,147.50888612,168.62375928,48.46075476,-66.82055535,105.32601499
24.63238967,72.77405154,-122.11846994,-67.07837554,-21.74085585,-174.66418792
116.43258042,-118.45338467,-172.10537519,26.08639214,26.39370648,6.65922431
-0.21657799,-1.36073460,1.22270242

>  <Name>
2be0_lig

>  <RI>
2.57068e+07

>  <Rbt.Current_Directory>
/home/itssahil/PROJECTS/Mol_Feturizer/New_Systems/rnas/2be0

>  <Rbt.Executable>
rbdock ($Id: //depot/dev/client3/rdock/2013.1/src/exe/rbdock.cxx#4 $)

>  <Rbt.Library>
libRbt.so (2013.1, Build901 2013/11/27)

>  <Rbt.Parameter_File>
/export/apps/rDock/src/rDock_2013.1_src/data/scripts/dock_solv.prm

>  <Rbt.Receptor>
prm/blind_docking_60.prm

>  <SCORE>
67.8339

>  <SCORE.INTER>
27.1543

>  <SCORE.INTER.CONST>
1

>  <SCORE.INTER.POLAR>
-1.46099

>  <SCORE.INTER.ROT>
15

>  <SCORE.INTER.SOLV>
33.8544

>  <SCORE.INTER.VDW>
-1.91193

>  <SCORE.INTER.norm>
0.522199

>  <SCORE.INTRA>
22.5836

>  <SCORE.INTRA.DIHEDRAL>
-12.2717

>  <SCORE.INTRA.DIHEDRAL.0>
47.8724

>  <SCORE.INTRA.POLAR>
0

>  <SCORE.INTRA.POLAR.0>
0

>  <SCORE.INTRA.REPUL>
0

>  <SCORE.INTRA.REPUL.0>
0

>  <SCORE.INTRA.SOLV>
7.05465

>  <SCORE.INTRA.SOLV.lig_0>
-115.677

>  <SCORE.INTRA.VDW>
25.1921

>  <SCORE.INTRA.VDW.0>
-7.4833

>  <SCORE.INTRA.norm>
0.4343

>  <SCORE.RESTR>
18.096

>  <SCORE.RESTR.CAVITY>
18.096

>  <SCORE.RESTR.norm>
0.348

>  <SCORE.SYSTEM>
0

>  <SCORE.SYSTEM.CONST>
0

>  <SCORE.SYSTEM.DIHEDRAL>
0

>  <SCORE.SYSTEM.SOLV>
0

>  <SCORE.SYSTEM.norm>
0

>  <SCORE.heavy>
52

>  <SCORE.norm>
1.3045

>  <RMSD>
31.343

$$$$
2be0_lig
 OpenBabel11021811423D
libRbt.so/2013.1/901 2013/11/27
 52 56  0  0  0  0  0  0  0  0999 V2000
   24.3836   29.6752    7.3774 C   0  0  2  0  0  0  0  0  0  0  0  0
   23.3189   28.8312    7.0075 O   0  0  0  0  0  0  0  0  0  0  0  0
   20.3337   28.4662    3.7940 C   0  0  2  0  0  0  0  0  0  0  0  0
   19.5351   28.8119    2.5847 N   0  0  0  0  0  0  0  0  0  0  0  0
   24.7842   26.6901    4.7860 C   0  0  2  0  0  0  0  0  0  0  0  0
   23.9957   25.7750    5.5742 O   0  0  0  0  0  0  0  0  0  0  0  0
   27.1304   25.7260    8.2691 C   0  0  1  0  0  0  0  0  0  0  0  0
   28.3969   23.3220    1.3964 C   0  0  0  0  0  0  0  0  0  0  0  0
   23.9857   30.5973    8.6010 C   0  0  2  0  0  0  0  0  0  0  0  0
   23.5031   29.7698    9.7087 N   0  0  0  0  0  0  0  0  0  0  0  0
   20.1840   29.6351    4.8708 C   0  0  0  0  0  0  0  0  0  0  0  0
   26.0636   26.9768    5.5882 C   0  0  2  0  0  0  0  0  0  0  0  0
   26.9703   25.8470    5.2155 O   0  0  0  0  0  0  0  0  0  0  0  0
   26.1113   24.5311    8.6874 C   0  0  2  0  0  0  0  0  0  0  0  0
   25.4106   24.9187    9.9541 N   0  0  0  0  0  0  0  0  0  0  0  0
   28.4116   23.0360   -0.0082 C   0  0  0  0  0  0  0  0  0  0  0  0
   29.4509   23.5590   -0.8215 N   0  0  0  0  0  0  0  0  0  0  0  0
   22.8941   31.6680    8.1344 C   0  0  1  0  0  0  0  0  0  0  0  0
   22.5459   32.4786    9.2460 O   0  0  0  0  0  0  0  0  0  0  0  0
   21.0584   29.3005    6.2100 C   0  0  2  0  0  0  0  0  0  0  0  0
   20.9304   30.3438    7.1880 N   0  0  0  0  0  0  0  0  0  0  0  0
   25.4493   27.0315    6.9997 C   0  0  2  0  0  0  0  0  0  0  0  0
   26.3435   26.9185    8.0971 O   0  0  0  0  0  0  0  0  0  0  0  0
   26.9522   23.2347    8.8908 C   0  0  1  0  0  0  0  0  0  0  0  0
   27.5766   22.9423    7.5900 O   0  0  0  0  0  0  0  0  0  0  0  0
   30.5022   24.3714   -0.3089 C   0  0  0  0  0  0  0  0  0  0  0  0
   23.4916   32.5087    6.9688 C   0  0  2  0  0  0  0  0  0  0  0  0
   22.5196   33.5206    6.4889 O   0  0  0  0  0  0  0  0  0  0  0  0
   22.5841   29.1192    5.8240 C   0  0  2  0  0  0  0  0  0  0  0  0
   24.3639   25.9295    6.9603 C   0  0  1  0  0  0  0  0  0  0  0  0
   28.0762   23.4754   10.0416 C   0  0  2  0  0  0  0  0  0  0  0  0
   27.4592   23.7687   11.3446 O   0  0  0  0  0  0  0  0  0  0  0  0
   30.5409   24.6866    1.0717 C   0  0  0  0  0  0  0  0  0  0  0  0
   23.8819   31.5732    5.7605 C   0  0  2  0  0  0  0  0  0  0  0  0
   24.8285   30.6062    6.2932 O   0  0  0  0  0  0  0  0  0  0  0  0
   22.6740   27.9710    4.7597 C   0  0  2  0  0  0  0  0  0  0  0  0
   24.0702   27.8885    4.5004 O   0  0  0  0  0  0  0  0  0  0  0  0
   23.0980   26.3311    7.7156 C   0  0  0  0  0  0  0  0  0  0  0  0
   22.0699   25.3698    7.7286 O   0  0  0  0  0  0  0  0  0  0  0  0
   29.0243   24.6879    9.6128 C   0  0  1  0  0  0  0  0  0  0  0  0
   28.1631   25.9122    9.3802 O   0  0  0  0  0  0  0  0  0  0  0  0
   29.4786   24.1657    1.9630 C   0  0  0  0  0  0  0  0  0  0  0  0
   24.4585   32.4184    4.7026 C   0  0  0  0  0  0  0  0  0  0  0  0
   23.5373   33.2922    4.2779 O   0  0  0  0  0  0  0  0  0  0  0  0
   21.8397   28.3421    3.4622 C   0  0  1  0  0  0  0  0  0  0  0  0
   21.9209   27.3112    2.5337 O   0  0  0  0  0  0  0  0  0  0  0  0
   26.6025   24.4703    4.8086 C   0  0  0  0  0  0  0  0  0  0  0  0
   30.0654   24.8777   10.7493 C   0  0  0  0  0  0  0  0  0  0  0  0
   30.7490   26.1390   10.6058 N   0  0  0  0  0  0  0  0  0  0  0  0
   27.9078   23.7029    4.5745 C   0  0  0  0  0  0  0  0  0  0  0  0
   27.6247   22.4713    3.7684 N   0  0  0  0  0  0  0  0  0  0  0  0
   27.2096   22.7159    2.2926 C   0  0  0  0  0  0  0  0  0  0  0  0
  1  2  1  6  0  0  0
  1  9  1  0  0  0  0
  1 35  1  0  0  0  0
  3  4  1  6  0  0  0
  3 11  1  0  0  0  0
  3 45  1  0  0  0  0
  5  6  1  0  0  0  0
  5 12  1  0  0  0  0
  5 37  1  1  0  0  0
  6 30  1  0  0  0  0
  7 14  1  0  0  0  0
  7 41  1  0  0  0  0
  7 23  1  1  0  0  0
  8 16  2  0  0  0  0
  8 42  1  0  0  0  0
  9 10  1  1  0  0  0
  9 18  1  0  0  0  0
 11 20  1  0  0  0  0
 12 13  1  1  0  0  0
 12 22  1  0  0  0  0
 13 47  1  0  0  0  0
 14 15  1  1  0  0  0
 14 24  1  0  0  0  0
 16 17  1  0  0  0  0
 17 26  2  0  0  0  0
 18 19  1  1  0  0  0
 18 27  1  0  0  0  0
 20 21  1  1  0  0  0
 20 29  1  0  0  0  0
 22 23  1  1  0  0  0
 22 30  1  0  0  0  0
 24 25  1  6  0  0  0
 24 31  1  0  0  0  0
 26 33  1  0  0  0  0
 27 28  1  6  0  0  0
 27 34  1  0  0  0  0
 29  2  1  1  0  0  0
 29 36  1  0  0  0  0
 30 38  1  1  0  0  0
 31 32  1  1  0  0  0
 31 40  1  0  0  0  0
 33 42  2  0  0  0  0
 34 35  1  0  0  0  0
 34 43  1  6  0  0  0
 36 37  1  6  0  0  0
 36 45  1  0  0  0  0
 38 39  1  0  0  0  0
 40 41  1  0  0  0  0
 40 48  1  1  0  0  0
 43 44  1  0  0  0  0
 45 46  1  6  0  0  0
 47 50  1  0  0  0  0
 48 49  1  0  0  0  0
 50 51  1  0  0  0  0
 51 52  1  0  0  0  0
 52  8  1  0  0  0  0
M  END
>  <CHROM.1>
105.59104928,-11.67417750,-69.66435932,-28.93232226,-178.45799068,-61.60888626
-122.15992281,64.16905385,-62.32811888,118.10541763,-166.08887319,-162.56153000
68.95716390,67.37515946,151.47334961,25.24278113,27.11118653,6.06509766,-2.87811148
0.81971279,-1.71774028

>  <Name>
2be0_lig

>  <RI>
2.57068e+07

>  <Rbt.Current_Directory>
/home/itssahil/PROJECTS/Mol_Feturizer/New_Systems/rnas/2be0

>  <Rbt.Executable>
rbdock ($Id: //depot/dev/client3/rdock/2013.1/src/exe/rbdock.cxx#4 $)

>  <Rbt.Library>
libRbt.so (2013.1, Build901 2013/11/27)

>  <Rbt.Parameter_File>
/export/apps/rDock/src/rDock_2013.1_src/data/scripts/dock_solv.prm

>  <Rbt.Receptor>
prm/blind_docking_60.prm

>  <SCORE>
46.2535

>  <SCORE.INTER>
16.0564

>  <SCORE.INTER.CONST>
1

>  <SCORE.INTER.POLAR>
-0.376377

>  <SCORE.INTER.ROT>
15

>  <SCORE.INTER.SOLV>
26.7516

>  <SCORE.INTER.VDW>
-10.5583

>  <SCORE.INTER.norm>
0.308778

>  <SCORE.INTRA>
3.55299

>  <SCORE.INTRA.DIHEDRAL>
-13.7671

>  <SCORE.INTRA.DIHEDRAL.0>
47.8724

>  <SCORE.INTRA.POLAR>
0

>  <SCORE.INTRA.POLAR.0>
0

>  <SCORE.INTRA.REPUL>
0

>  <SCORE.INTRA.REPUL.0>
0

>  <SCORE.INTRA.SOLV>
5.71415

>  <SCORE.INTRA.SOLV.lig_0>
-115.677

>  <SCORE.INTRA.VDW>
7.57947

>  <SCORE.INTRA.VDW.0>
-7.4833

>  <SCORE.INTRA.norm>
0.0683267

>  <SCORE.RESTR>
26.6441

>  <SCORE.RESTR.CAVITY>
26.6441

>  <SCORE.RESTR.norm>
0.512387

>  <SCORE.SYSTEM>
0

>  <SCORE.SYSTEM.CONST>
0

>  <SCORE.SYSTEM.DIHEDRAL>
0

>  <SCORE.SYSTEM.SOLV>
0

>  <SCORE.SYSTEM.norm>
0

>  <SCORE.heavy>
52

>  <SCORE.norm>
0.889491

>  <RMSD>
31.373

$$$$
2be0_lig
 OpenBabel11021811423D
libRbt.so/2013.1/901 2013/11/27
 52 56  0  0  0  0  0  0  0  0999 V2000
   24.9623   31.1372    5.1736 C   0  0  2  0  0  0  0  0  0  0  0  0
   25.0281   30.4491    6.4004 O   0  0  0  0  0  0  0  0  0  0  0  0
   22.3169   28.4533    9.2353 C   0  0  2  0  0  0  0  0  0  0  0  0
   21.0471   28.0165    9.8806 N   0  0  0  0  0  0  0  0  0  0  0  0
   24.5702   26.7946    5.4233 C   0  0  2  0  0  0  0  0  0  0  0  0
   24.3711   25.7766    6.4254 O   0  0  0  0  0  0  0  0  0  0  0  0
   28.2494   26.7362    8.5038 C   0  0  1  0  0  0  0  0  0  0  0  0
   28.9957   24.0015    0.5987 C   0  0  0  0  0  0  0  0  0  0  0  0
   24.9970   32.7046    5.3929 C   0  0  2  0  0  0  0  0  0  0  0  0
   26.1721   33.0678    6.1877 N   0  0  0  0  0  0  0  0  0  0  0  0
   22.3528   30.0482    9.1790 C   0  0  0  0  0  0  0  0  0  0  0  0
   26.0865   27.0241    5.3200 C   0  0  2  0  0  0  0  0  0  0  0  0
   26.5353   25.9676    4.3610 O   0  0  0  0  0  0  0  0  0  0  0  0
   29.8679   26.8828    8.4903 C   0  0  2  0  0  0  0  0  0  0  0  0
   30.4504   25.7107    7.7604 N   0  0  0  0  0  0  0  0  0  0  0  0
   29.8994   23.3719    1.5162 C   0  0  0  0  0  0  0  0  0  0  0  0
   31.2999   23.5154    1.3340 N   0  0  0  0  0  0  0  0  0  0  0  0
   23.6365   33.1807    6.0844 C   0  0  1  0  0  0  0  0  0  0  0  0
   23.6909   34.5854    6.2788 O   0  0  0  0  0  0  0  0  0  0  0  0
   23.7266   30.5689    8.4637 C   0  0  2  0  0  0  0  0  0  0  0  0
   23.7722   32.0028    8.4089 N   0  0  0  0  0  0  0  0  0  0  0  0
   26.4451   26.9045    6.8133 C   0  0  2  0  0  0  0  0  0  0  0  0
   27.8124   26.6937    7.1334 O   0  0  0  0  0  0  0  0  0  0  0  0
   30.3574   26.9165    9.9696 C   0  0  1  0  0  0  0  0  0  0  0  0
   29.7413   28.1067   10.5788 O   0  0  0  0  0  0  0  0  0  0  0  0
   31.8700   24.2652    0.2659 C   0  0  0  0  0  0  0  0  0  0  0  0
   22.4458   32.7678    5.1712 C   0  0  2  0  0  0  0  0  0  0  0  0
   21.1510   33.1809    5.7645 O   0  0  0  0  0  0  0  0  0  0  0  0
   23.8258   29.9782    6.9972 C   0  0  2  0  0  0  0  0  0  0  0  0
   25.5038   25.7852    7.3186 C   0  0  1  0  0  0  0  0  0  0  0  0
   29.8988   25.5584   10.7384 C   0  0  2  0  0  0  0  0  0  0  0  0
   30.5105   24.3645   10.1346 O   0  0  0  0  0  0  0  0  0  0  0  0
   31.0265   24.9108   -0.6715 C   0  0  0  0  0  0  0  0  0  0  0  0
   22.4285   31.2043    4.9643 C   0  0  2  0  0  0  0  0  0  0  0  0
   23.7189   30.8632    4.3869 O   0  0  0  0  0  0  0  0  0  0  0  0
   23.7754   28.4148    7.1079 C   0  0  2  0  0  0  0  0  0  0  0  0
   23.8835   27.9979    5.7522 O   0  0  0  0  0  0  0  0  0  0  0  0
   24.9641   26.0660    8.7200 C   0  0  0  0  0  0  0  0  0  0  0  0
   24.5514   24.9343    9.4481 O   0  0  0  0  0  0  0  0  0  0  0  0
   28.3071   25.4297   10.6855 C   0  0  1  0  0  0  0  0  0  0  0  0
   27.8716   25.4484    9.2348 O   0  0  0  0  0  0  0  0  0  0  0  0
   29.5573   24.7908   -0.5258 C   0  0  0  0  0  0  0  0  0  0  0  0
   21.2990   30.8781    4.0790 C   0  0  0  0  0  0  0  0  0  0  0  0
   21.3885   31.6021    2.9563 O   0  0  0  0  0  0  0  0  0  0  0  0
   22.4168   27.9433    7.7782 C   0  0  1  0  0  0  0  0  0  0  0  0
   22.3920   26.5573    7.8784 O   0  0  0  0  0  0  0  0  0  0  0  0
   26.6562   24.5088    4.5924 C   0  0  0  0  0  0  0  0  0  0  0  0
   27.9303   24.1154   11.4218 C   0  0  0  0  0  0  0  0  0  0  0  0
   26.6461   23.6345   10.9764 N   0  0  0  0  0  0  0  0  0  0  0  0
   27.4372   23.9256    3.4104 C   0  0  0  0  0  0  0  0  0  0  0  0
   26.9109   24.5029    2.1312 N   0  0  0  0  0  0  0  0  0  0  0  0
   27.4162   23.8232    0.8301 C   0  0  0  0  0  0  0  0  0  0  0  0
  1  2  1  1  0  0  0
  1  9  1  0  0  0  0
  1 35  1  0  0  0  0
  3  4  1  6  0  0  0
  3 11  1  0  0  0  0
  3 45  1  0  0  0  0
  5  6  1  0  0  0  0
  5 12  1  0  0  0  0
  5 37  1  1  0  0  0
  6 30  1  0  0  0  0
  7 14  1  0  0  0  0
  7 41  1  0  0  0  0
  7 23  1  6  0  0  0
  8 16  2  0  0  0  0
  8 42  1  0  0  0  0
  9 10  1  1  0  0  0
  9 18  1  0  0  0  0
 11 20  1  0  0  0  0
 12 13  1  6  0  0  0
 12 22  1  0  0  0  0
 13 47  1  0  0  0  0
 14 15  1  6  0  0  0
 14 24  1  0  0  0  0
 16 17  1  0  0  0  0
 17 26  2  0  0  0  0
 18 19  1  6  0  0  0
 18 27  1  0  0  0  0
 20 21  1  6  0  0  0
 20 29  1  0  0  0  0
 22 23  1  6  0  0  0
 22 30  1  0  0  0  0
 24 25  1  1  0  0  0
 24 31  1  0  0  0  0
 26 33  1  0  0  0  0
 27 28  1  1  0  0  0
 27 34  1  0  0  0  0
 29  2  1  1  0  0  0
 29 36  1  0  0  0  0
 30 38  1  1  0  0  0
 31 32  1  6  0  0  0
 31 40  1  0  0  0  0
 33 42  2  0  0  0  0
 34 35  1  0  0  0  0
 34 43  1  6  0  0  0
 36 37  1  6  0  0  0
 36 45  1  0  0  0  0
 38 39  1  0  0  0  0
 40 41  1  0  0  0  0
 40 48  1  6  0  0  0
 43 44  1  0  0  0  0
 45 46  1  1  0  0  0
 47 50  1  0  0  0  0
 48 49  1  0  0  0  0
 50 51  1  0  0  0  0
 51 52  1  0  0  0  0
 52  8  1  0  0  0  0
M  END
>  <CHROM.1>
97.87822995,35.62821009,-164.21199440,-73.10753918,-167.93245124,172.33587068
-124.29348077,87.32093404,53.86866669,146.06989017,-156.57599147,-44.77076862
-169.21138928,-65.10471586,66.13090786,25.95297393,27.64441697,6.32326010
2.98167330,-0.81793541,1.65977137

>  <Name>
2be0_lig

>  <RI>
2.57068e+07

>  <Rbt.Current_Directory>
/home/itssahil/PROJECTS/Mol_Feturizer/New_Systems/rnas/2be0

>  <Rbt.Executable>
rbdock ($Id: //depot/dev/client3/rdock/2013.1/src/exe/rbdock.cxx#4 $)

>  <Rbt.Library>
libRbt.so (2013.1, Build901 2013/11/27)

>  <Rbt.Parameter_File>
/export/apps/rDock/src/rDock_2013.1_src/data/scripts/dock_solv.prm

>  <Rbt.Receptor>
prm/blind_docking_60.prm

>  <SCORE>
7.91557

>  <SCORE.INTER>
-7.13451

>  <SCORE.INTER.CONST>
1

>  <SCORE.INTER.POLAR>
-2.66526

>  <SCORE.INTER.ROT>
15

>  <SCORE.INTER.SOLV>
35.7882

>  <SCORE.INTER.VDW>
-21.4015

>  <SCORE.INTER.norm>
-0.137202

>  <SCORE.INTRA>
-3.11092

>  <SCORE.INTRA.DIHEDRAL>
-19.6666

>  <SCORE.INTRA.DIHEDRAL.0>
47.8724

>  <SCORE.INTRA.POLAR>
0

>  <SCORE.INTRA.POLAR.0>
0

>  <SCORE.INTRA.REPUL>
0.0127559

>  <SCORE.INTRA.REPUL.0>
0

>  <SCORE.INTRA.SOLV>
5.54809

>  <SCORE.INTRA.SOLV.lig_0>
-115.677

>  <SCORE.INTRA.VDW>
3.88456

>  <SCORE.INTRA.VDW.0>
-7.4833

>  <SCORE.INTRA.norm>
-0.0598254

>  <SCORE.RESTR>
18.161

>  <SCORE.RESTR.CAVITY>
18.161

>  <SCORE.RESTR.norm>
0.34925

>  <SCORE.SYSTEM>
0

>  <SCORE.SYSTEM.CONST>
0

>  <SCORE.SYSTEM.DIHEDRAL>
0

>  <SCORE.SYSTEM.SOLV>
0

>  <SCORE.SYSTEM.norm>
0

>  <SCORE.heavy>
52

>  <SCORE.norm>
0.152222

>  <RMSD>
31.422

$$$$
2be0_lig
 OpenBabel11021811423D
libRbt.so/2013.1/901 2013/11/27
 52 56  0  0  0  0  0  0  0  0999 V2000
   26.7616   24.6619    6.1499 C   0  0  2  0  0  0  0  0  0  0  0  0
   25.9821   23.6739    6.7816 O   0  0  0  0  0  0  0  0  0  0  0  0
   23.6656   23.9026   10.5169 C   0  0  2  0  0  0  0  0  0  0  0  0
   23.3734   23.9826   11.9756 N   0  0  0  0  0  0  0  0  0  0  0  0
   25.3828   27.4221    8.5879 C   0  0  2  0  0  0  0  0  0  0  0  0
   24.0212   27.8909    8.5072 O   0  0  0  0  0  0  0  0  0  0  0  0
   24.9244   31.2385    6.3857 C   0  0  1  0  0  0  0  0  0  0  0  0
   30.2019   26.1510   10.6249 C   0  0  0  0  0  0  0  0  0  0  0  0
   25.8891   25.5317    5.1559 C   0  0  2  0  0  0  0  0  0  0  0  0
   24.7335   26.0848    5.8652 N   0  0  0  0  0  0  0  0  0  0  0  0
   24.5683   22.6167   10.2345 C   0  0  0  0  0  0  0  0  0  0  0  0
   26.2544   28.4683    7.8748 C   0  0  2  0  0  0  0  0  0  0  0  0
   26.5226   29.4841    8.9395 O   0  0  0  0  0  0  0  0  0  0  0  0
   23.3232   31.0203    6.2130 C   0  0  2  0  0  0  0  0  0  0  0  0
   23.0369   30.6741    4.7833 N   0  0  0  0  0  0  0  0  0  0  0  0
   29.4621   25.4365    9.6264 C   0  0  0  0  0  0  0  0  0  0  0  0
   28.8975   24.1723    9.9396 N   0  0  0  0  0  0  0  0  0  0  0  0
   25.4515   24.6395    3.9035 C   0  0  1  0  0  0  0  0  0  0  0  0
   24.6652   25.4346    3.0296 O   0  0  0  0  0  0  0  0  0  0  0  0
   24.9238   22.5001    8.6439 C   0  0  2  0  0  0  0  0  0  0  0  0
   25.7341   21.3455    8.3761 N   0  0  0  0  0  0  0  0  0  0  0  0
   25.3056   28.8115    6.7109 C   0  0  2  0  0  0  0  0  0  0  0  0
   25.5675   30.0112    5.9976 O   0  0  0  0  0  0  0  0  0  0  0  0
   22.6133   32.3477    6.6171 C   0  0  1  0  0  0  0  0  0  0  0  0
   22.9483   32.5780    8.0321 O   0  0  0  0  0  0  0  0  0  0  0  0
   29.0296   23.5597   11.2184 C   0  0  0  0  0  0  0  0  0  0  0  0
   26.7348   24.1052    3.2036 C   0  0  2  0  0  0  0  0  0  0  0  0
   26.3915   23.2639    2.0316 O   0  0  0  0  0  0  0  0  0  0  0  0
   25.6849   23.8049    8.1665 C   0  0  2  0  0  0  0  0  0  0  0  0
   23.9047   28.7656    7.3662 C   0  0  1  0  0  0  0  0  0  0  0  0
   23.1422   33.5687    5.6815 C   0  0  2  0  0  0  0  0  0  0  0  0
   22.8112   33.3451    4.2656 O   0  0  0  0  0  0  0  0  0  0  0  0
   29.7489   24.2189   12.2455 C   0  0  0  0  0  0  0  0  0  0  0  0
   27.5903   23.2423    4.2091 C   0  0  2  0  0  0  0  0  0  0  0  0
   27.8901   24.1170    5.3316 O   0  0  0  0  0  0  0  0  0  0  0  0
   24.7630   25.0352    8.4754 C   0  0  2  0  0  0  0  0  0  0  0  0
   25.5314   26.1338    8.0000 O   0  0  0  0  0  0  0  0  0  0  0  0
   22.8495   28.1572    6.4440 C   0  0  0  0  0  0  0  0  0  0  0  0
   23.2427   27.9868    5.1032 O   0  0  0  0  0  0  0  0  0  0  0  0
   24.7247   33.7160    5.8449 C   0  0  1  0  0  0  0  0  0  0  0  0
   25.3698   32.3926    5.4883 O   0  0  0  0  0  0  0  0  0  0  0  0
   30.3582   25.5405   11.9687 C   0  0  0  0  0  0  0  0  0  0  0  0
   28.7958   22.7848    3.4996 C   0  0  0  0  0  0  0  0  0  0  0  0
   28.4392   22.0083    2.4688 O   0  0  0  0  0  0  0  0  0  0  0  0
   24.4634   25.1355   10.0302 C   0  0  1  0  0  0  0  0  0  0  0  0
   23.6376   26.2237   10.2861 O   0  0  0  0  0  0  0  0  0  0  0  0
   27.3724   29.3475   10.1459 C   0  0  0  0  0  0  0  0  0  0  0  0
   25.1722   34.8839    4.9244 C   0  0  0  0  0  0  0  0  0  0  0  0
   24.2009   35.1100    3.8831 N   0  0  0  0  0  0  0  0  0  0  0  0
   28.3450   28.1924    9.8867 C   0  0  0  0  0  0  0  0  0  0  0  0
   29.7533   28.6818   10.0415 N   0  0  0  0  0  0  0  0  0  0  0  0
   30.8283   27.5800   10.2429 C   0  0  0  0  0  0  0  0  0  0  0  0
  1  2  1  6  0  0  0
  1  9  1  0  0  0  0
  1 35  1  0  0  0  0
  3  4  1  1  0  0  0
  3 11  1  0  0  0  0
  3 45  1  0  0  0  0
  5  6  1  0  0  0  0
  5 12  1  0  0  0  0
  5 37  1  6  0  0  0
  6 30  1  0  0  0  0
  7 14  1  0  0  0  0
  7 41  1  0  0  0  0
  7 23  1  6  0  0  0
  8 16  2  0  0  0  0
  8 42  1  0  0  0  0
  9 10  1  1  0  0  0
  9 18  1  0  0  0  0
 11 20  1  0  0  0  0
 12 13  1  1  0  0  0
 12 22  1  0  0  0  0
 13 47  1  0  0  0  0
 14 15  1  6  0  0  0
 14 24  1  0  0  0  0
 16 17  1  0  0  0  0
 17 26  2  0  0  0  0
 18 19  1  6  0  0  0
 18 27  1  0  0  0  0
 20 21  1  1  0  0  0
 20 29  1  0  0  0  0
 22 23  1  1  0  0  0
 22 30  1  0  0  0  0
 24 25  1  1  0  0  0
 24 31  1  0  0  0  0
 26 33  1  0  0  0  0
 27 28  1  6  0  0  0
 27 34  1  0  0  0  0
 29  2  1  6  0  0  0
 29 36  1  0  0  0  0
 30 38  1  6  0  0  0
 31 32  1  6  0  0  0
 31 40  1  0  0  0  0
 33 42  2  0  0  0  0
 34 35  1  0  0  0  0
 34 43  1  6  0  0  0
 36 37  1  1  0  0  0
 36 45  1  0  0  0  0
 38 39  1  0  0  0  0
 40 41  1  0  0  0  0
 40 48  1  6  0  0  0
 43 44  1  0  0  0  0
 45 46  1  6  0  0  0
 47 50  1  0  0  0  0
 48 49  1  0  0  0  0
 50 51  1  0  0  0  0
 51 52  1  0  0  0  0
 52  8  1  0  0  0  0
M  END
>  <CHROM.1>
-109.29960756,-57.87163004,-61.71230497,70.08061655,20.58303097,-92.48036810
-174.57723554,-128.03525028,-62.06696381,-151.57455107,-21.88632318,123.28056198
162.02133469,-14.85112596,69.56761697,25.82977628,27.15975988,7.23912696
0.50946236,1.16462580,-2.40035751

>  <Name>
2be0_lig

>  <RI>
0

>  <Rbt.Current_Directory>
/home/itssahil/PROJECTS/Mol_Feturizer/New_Systems/rnas/2be0

>  <Rbt.Executable>
rbdock ($Id: //depot/dev/client3/rdock/2013.1/src/exe/rbdock.cxx#4 $)

>  <Rbt.Library>
libRbt.so (2013.1, Build901 2013/11/27)

>  <Rbt.Parameter_File>
/export/apps/rDock/src/rDock_2013.1_src/data/scripts/dock_solv.prm

>  <Rbt.Receptor>
prm/blind_docking_80.prm

>  <SCORE>
72.7209

>  <SCORE.INTER>
20.5727

>  <SCORE.INTER.CONST>
1

>  <SCORE.INTER.POLAR>
-1.44034

>  <SCORE.INTER.ROT>
15

>  <SCORE.INTER.SOLV>
27.6559

>  <SCORE.INTER.VDW>
-4.30238

>  <SCORE.INTER.norm>
0.395629

>  <SCORE.INTRA>
18.2305

>  <SCORE.INTRA.DIHEDRAL>
-11.2376

>  <SCORE.INTRA.DIHEDRAL.0>
47.8724

>  <SCORE.INTRA.POLAR>
0

>  <SCORE.INTRA.POLAR.0>
0

>  <SCORE.INTRA.REPUL>
0

>  <SCORE.INTRA.REPUL.0>
0

>  <SCORE.INTRA.SOLV>
9.80304

>  <SCORE.INTRA.SOLV.lig_0>
-115.677

>  <SCORE.INTRA.VDW>
18.9478

>  <SCORE.INTRA.VDW.0>
-7.4833

>  <SCORE.INTRA.norm>
0.350587

>  <SCORE.RESTR>
33.9177

>  <SCORE.RESTR.CAVITY>
33.9177

>  <SCORE.RESTR.norm>
0.652263

>  <SCORE.SYSTEM>
0

>  <SCORE.SYSTEM.CONST>
0

>  <SCORE.SYSTEM.DIHEDRAL>
0

>  <SCORE.SYSTEM.SOLV>
0

>  <SCORE.SYSTEM.norm>
0

>  <SCORE.heavy>
52

>  <SCORE.norm>
1.39848

>  <RMSD>
31.631

$$$$
2be0_lig
 OpenBabel11021811423D
libRbt.so/2013.1/901 2013/11/27
 52 56  0  0  0  0  0  0  0  0999 V2000
   26.1863   24.8603    7.9173 C   0  0  2  0  0  0  0  0  0  0  0  0
   25.9275   23.6143    7.3146 O   0  0  0  0  0  0  0  0  0  0  0  0
   26.9217   24.0301    3.0473 C   0  0  2  0  0  0  0  0  0  0  0  0
   26.8100   23.8922    1.5681 N   0  0  0  0  0  0  0  0  0  0  0  0
   24.9413   26.8475    6.4935 C   0  0  2  0  0  0  0  0  0  0  0  0
   23.7432   27.2612    7.1818 O   0  0  0  0  0  0  0  0  0  0  0  0
   23.2221   30.7703    5.1890 C   0  0  1  0  0  0  0  0  0  0  0  0
   29.4859   27.7697    9.6479 C   0  0  0  0  0  0  0  0  0  0  0  0
   27.7404   25.0934    8.1076 C   0  0  2  0  0  0  0  0  0  0  0  0
   28.4271   24.9272    6.8249 N   0  0  0  0  0  0  0  0  0  0  0  0
   26.9122   22.5778    3.7098 C   0  0  0  0  0  0  0  0  0  0  0  0
   25.3186   27.9889    5.5358 C   0  0  2  0  0  0  0  0  0  0  0  0
   26.1132   28.9191    6.3964 O   0  0  0  0  0  0  0  0  0  0  0  0
   22.4557   31.7274    4.1223 C   0  0  2  0  0  0  0  0  0  0  0  0
   23.4402   32.1758    3.0854 N   0  0  0  0  0  0  0  0  0  0  0  0
   29.6782   27.0131    8.4457 C   0  0  0  0  0  0  0  0  0  0  0  0
   30.9255   26.3794    8.2055 N   0  0  0  0  0  0  0  0  0  0  0  0
   28.3015   24.0923    9.2206 C   0  0  1  0  0  0  0  0  0  0  0  0
   29.6956   24.3119    9.3704 O   0  0  0  0  0  0  0  0  0  0  0  0
   27.0190   22.6857    5.3367 C   0  0  2  0  0  0  0  0  0  0  0  0
   27.0137   21.3851    5.9450 N   0  0  0  0  0  0  0  0  0  0  0  0
   23.9034   28.3901    5.0785 C   0  0  2  0  0  0  0  0  0  0  0  0
   23.7626   29.6576    4.4538 O   0  0  0  0  0  0  0  0  0  0  0  0
   21.8761   32.9454    4.9031 C   0  0  1  0  0  0  0  0  0  0  0  0
   20.9178   32.3922    5.8742 O   0  0  0  0  0  0  0  0  0  0  0  0
   32.0215   26.4564    9.1116 C   0  0  0  0  0  0  0  0  0  0  0  0
   27.5294   24.3446   10.5482 C   0  0  2  0  0  0  0  0  0  0  0  0
   28.0051   23.4389   11.6217 O   0  0  0  0  0  0  0  0  0  0  0  0
   25.8089   23.5394    5.8991 C   0  0  2  0  0  0  0  0  0  0  0  0
   23.0533   28.2259    6.3608 C   0  0  1  0  0  0  0  0  0  0  0  0
   23.0761   33.7476    5.6530 C   0  0  2  0  0  0  0  0  0  0  0  0
   24.0380   34.3032    4.6885 O   0  0  0  0  0  0  0  0  0  0  0  0
   31.8901   27.1892   10.3169 C   0  0  0  0  0  0  0  0  0  0  0  0
   25.9842   24.1081   10.3384 C   0  0  2  0  0  0  0  0  0  0  0  0
   25.5811   25.0171    9.2772 O   0  0  0  0  0  0  0  0  0  0  0  0
   25.8578   24.9476    5.2109 C   0  0  2  0  0  0  0  0  0  0  0  0
   24.7492   25.6229    5.7928 O   0  0  0  0  0  0  0  0  0  0  0  0
   21.6663   27.6542    6.0714 C   0  0  0  0  0  0  0  0  0  0  0  0
   21.6447   26.3312    5.5913 O   0  0  0  0  0  0  0  0  0  0  0  0
   23.8320   32.7581    6.6541 C   0  0  1  0  0  0  0  0  0  0  0  0
   24.3370   31.5686    5.8638 O   0  0  0  0  0  0  0  0  0  0  0  0
   30.6084   27.8698   10.6139 C   0  0  0  0  0  0  0  0  0  0  0  0
   25.3076   24.3815   11.6165 C   0  0  0  0  0  0  0  0  0  0  0  0
   24.0029   24.1046   11.4988 O   0  0  0  0  0  0  0  0  0  0  0  0
   25.7210   24.8077    3.6364 C   0  0  1  0  0  0  0  0  0  0  0  0
   25.7765   26.0623    3.0410 O   0  0  0  0  0  0  0  0  0  0  0  0
   25.6300   29.8017    7.4846 C   0  0  0  0  0  0  0  0  0  0  0  0
   24.9687   33.5724    7.3298 C   0  0  0  0  0  0  0  0  0  0  0  0
   26.1425   32.7542    7.5074 N   0  0  0  0  0  0  0  0  0  0  0  0
   25.7923   29.0311    8.7988 C   0  0  0  0  0  0  0  0  0  0  0  0
   27.0495   28.2166    8.7475 N   0  0  0  0  0  0  0  0  0  0  0  0
   28.0638   28.4749    9.8941 C   0  0  0  0  0  0  0  0  0  0  0  0
  1  2  1  1  0  0  0
  1  9  1  0  0  0  0
  1 35  1  0  0  0  0
  3  4  1  6  0  0  0
  3 11  1  0  0  0  0
  3 45  1  0  0  0  0
  5  6  1  0  0  0  0
  5 12  1  0  0  0  0
  5 37  1  6  0  0  0
  6 30  1  0  0  0  0
  7 14  1  0  0  0  0
  7 41  1  0  0  0  0
  7 23  1  6  0  0  0
  8 16  2  0  0  0  0
  8 42  1  0  0  0  0
  9 10  1  6  0  0  0
  9 18  1  0  0  0  0
 11 20  1  0  0  0  0
 12 13  1  1  0  0  0
 12 22  1  0  0  0  0
 13 47  1  0  0  0  0
 14 15  1  6  0  0  0
 14 24  1  0  0  0  0
 16 17  1  0  0  0  0
 17 26  2  0  0  0  0
 18 19  1  1  0  0  0
 18 27  1  0  0  0  0
 20 21  1  1  0  0  0
 20 29  1  0  0  0  0
 22 23  1  1  0  0  0
 22 30  1  0  0  0  0
 24 25  1  1  0  0  0
 24 31  1  0  0  0  0
 26 33  1  0  0  0  0
 27 28  1  1  0  0  0
 27 34  1  0  0  0  0
 29  2  1  1  0  0  0
 29 36  1  0  0  0  0
 30 38  1  6  0  0  0
 31 32  1  6  0  0  0
 31 40  1  0  0  0  0
 33 42  2  0  0  0  0
 34 35  1  0  0  0  0
 34 43  1  1  0  0  0
 36 37  1  1  0  0  0
 36 45  1  0  0  0  0
 38 39  1  0  0  0  0
 40 41  1  0  0  0  0
 40 48  1  6  0  0  0
 43 44  1  0  0  0  0
 45 46  1  6  0  0  0
 47 50  1  0  0  0  0
 48 49  1  0  0  0  0
 50 51  1  0  0  0  0
 51 52  1  0  0  0  0
 52  8  1  0  0  0  0
M  END
>  <CHROM.1>
-92.29568366,-170.93976610,-149.57577490,-71.66474505,94.11614516,-102.48178592
113.75321467,-50.20032597,-175.92409409,122.17592796,-142.55918025,36.87006762
123.97711758,-169.98270533,0.44111665,25.88113601,27.31299728,6.96171104
0.68236507,0.85751003,-2.80051526

>  <Name>
2be0_lig

>  <RI>
0

>  <Rbt.Current_Directory>
/home/itssahil/PROJECTS/Mol_Feturizer/New_Systems/rnas/2be0

>  <Rbt.Executable>
rbdock ($Id: //depot/dev/client3/rdock/2013.1/src/exe/rbdock.cxx#4 $)

>  <Rbt.Library>
libRbt.so (2013.1, Build901 2013/11/27)

>  <Rbt.Parameter_File>
/export/apps/rDock/src/rDock_2013.1_src/data/scripts/dock_solv.prm

>  <Rbt.Receptor>
prm/blind_docking_80.prm

>  <SCORE>
79.3207

>  <SCORE.INTER>
40.7213

>  <SCORE.INTER.CONST>
1

>  <SCORE.INTER.POLAR>
-1.36209

>  <SCORE.INTER.ROT>
15

>  <SCORE.INTER.SOLV>
41.7693

>  <SCORE.INTER.VDW>
4.16473

>  <SCORE.INTER.norm>
0.783102

>  <SCORE.INTRA>
6.17586

>  <SCORE.INTRA.DIHEDRAL>
-6.5479

>  <SCORE.INTRA.DIHEDRAL.0>
47.8724

>  <SCORE.INTRA.POLAR>
0

>  <SCORE.INTRA.POLAR.0>
0

>  <SCORE.INTRA.REPUL>
0.0680305

>  <SCORE.INTRA.REPUL.0>
0

>  <SCORE.INTRA.SOLV>
9.22008

>  <SCORE.INTRA.SOLV.lig_0>
-115.677

>  <SCORE.INTRA.VDW>
4.49962

>  <SCORE.INTRA.VDW.0>
-7.4833

>  <SCORE.INTRA.norm>
0.118767

>  <SCORE.RESTR>
32.4235

>  <SCORE.RESTR.CAVITY>
32.4235

>  <SCORE.RESTR.norm>
0.623529

>  <SCORE.SYSTEM>
0

>  <SCORE.SYSTEM.CONST>
0

>  <SCORE.SYSTEM.DIHEDRAL>
0

>  <SCORE.SYSTEM.SOLV>
0

>  <SCORE.SYSTEM.norm>
0

>  <SCORE.heavy>
52

>  <SCORE.norm>
1.5254

>  <RMSD>
31.749

$$$$
2be0_lig
 OpenBabel11021811423D
libRbt.so/2013.1/901 2013/11/27
 52 56  0  0  0  0  0  0  0  0999 V2000
   21.4406   30.1407    5.9947 C   0  0  2  0  0  0  0  0  0  0  0  0
   21.4917   28.8207    6.4823 O   0  0  0  0  0  0  0  0  0  0  0  0
   22.4954   29.5885   10.6982 C   0  0  2  0  0  0  0  0  0  0  0  0
   22.6264   29.3641   12.1652 N   0  0  0  0  0  0  0  0  0  0  0  0
   25.2870   27.7940    7.5896 C   0  0  2  0  0  0  0  0  0  0  0  0
   25.8654   28.2626    6.3542 O   0  0  0  0  0  0  0  0  0  0  0  0
   26.9499   24.4819    4.6823 C   0  0  1  0  0  0  0  0  0  0  0  0
   27.6177   24.0496   10.2340 C   0  0  0  0  0  0  0  0  0  0  0  0
   21.8615   30.2053    4.4701 C   0  0  2  0  0  0  0  0  0  0  0  0
   21.0404   29.2772    3.6896 N   0  0  0  0  0  0  0  0  0  0  0  0
   20.9650   29.4166   10.2778 C   0  0  0  0  0  0  0  0  0  0  0  0
   25.7946   26.3585    7.7999 C   0  0  2  0  0  0  0  0  0  0  0  0
   27.1173   26.5503    8.4716 O   0  0  0  0  0  0  0  0  0  0  0  0
   25.6559   24.1508    3.7564 C   0  0  2  0  0  0  0  0  0  0  0  0
   24.9726   22.9342    4.3030 N   0  0  0  0  0  0  0  0  0  0  0  0
   27.5981   22.6278   10.4160 C   0  0  0  0  0  0  0  0  0  0  0  0
   26.3610   21.9322   10.3875 N   0  0  0  0  0  0  0  0  0  0  0  0
   23.4218   29.8871    4.3294 C   0  0  1  0  0  0  0  0  0  0  0  0
   23.7767   29.9425    2.9564 O   0  0  0  0  0  0  0  0  0  0  0  0
   20.7802   29.6413    8.6700 C   0  0  2  0  0  0  0  0  0  0  0  0
   19.4069   29.4915    8.2790 N   0  0  0  0  0  0  0  0  0  0  0  0
   25.7413   25.8734    6.3389 C   0  0  2  0  0  0  0  0  0  0  0  0
   26.4727   24.6980    6.0225 O   0  0  0  0  0  0  0  0  0  0  0  0
   26.1593   23.9007    2.3028 C   0  0  1  0  0  0  0  0  0  0  0  0
   26.7929   25.1558    1.8661 O   0  0  0  0  0  0  0  0  0  0  0  0
   25.1103   22.5825   10.1855 C   0  0  0  0  0  0  0  0  0  0  0  0
   24.2169   30.9234    5.1757 C   0  0  2  0  0  0  0  0  0  0  0  0
   25.6764   30.6759    5.0876 O   0  0  0  0  0  0  0  0  0  0  0  0
   21.6744   28.6023    7.8760 C   0  0  2  0  0  0  0  0  0  0  0  0
   26.1784   27.1193    5.5323 C   0  0  1  0  0  0  0  0  0  0  0  0
   27.2217   22.6691    2.2862 C   0  0  2  0  0  0  0  0  0  0  0  0
   26.5955   21.4111    2.7219 O   0  0  0  0  0  0  0  0  0  0  0  0
   25.0671   23.9862    9.9988 C   0  0  0  0  0  0  0  0  0  0  0  0
   23.7836   30.8441    6.6901 C   0  0  2  0  0  0  0  0  0  0  0  0
   22.3505   31.0902    6.7093 O   0  0  0  0  0  0  0  0  0  0  0  0
   23.1609   28.8054    8.3321 C   0  0  2  0  0  0  0  0  0  0  0  0
   23.8644   27.8428    7.5562 O   0  0  0  0  0  0  0  0  0  0  0  0
   25.3924   27.2768    4.2317 C   0  0  0  0  0  0  0  0  0  0  0  0
   23.9914   27.2810    4.3673 O   0  0  0  0  0  0  0  0  0  0  0  0
   28.4517   23.0155    3.2454 C   0  0  1  0  0  0  0  0  0  0  0  0
   27.9140   23.2971    4.6333 O   0  0  0  0  0  0  0  0  0  0  0  0
   26.3311   24.7583   10.0208 C   0  0  0  0  0  0  0  0  0  0  0  0
   24.5502   31.8573    7.4330 C   0  0  0  0  0  0  0  0  0  0  0  0
   24.4954   33.0253    6.7807 O   0  0  0  0  0  0  0  0  0  0  0  0
   23.3094   28.5498    9.8910 C   0  0  1  0  0  0  0  0  0  0  0  0
   24.6292   28.7436   10.2810 O   0  0  0  0  0  0  0  0  0  0  0  0
   28.3244   27.2300    7.9452 C   0  0  0  0  0  0  0  0  0  0  0  0
   29.4230   21.8048    3.1982 C   0  0  0  0  0  0  0  0  0  0  0  0
   29.9661   21.6415    1.8727 N   0  0  0  0  0  0  0  0  0  0  0  0
   29.4544   26.9907    8.9517 C   0  0  0  0  0  0  0  0  0  0  0  0
   28.8947   26.3547   10.1882 N   0  0  0  0  0  0  0  0  0  0  0  0
   29.0319   24.8104   10.2696 C   0  0  0  0  0  0  0  0  0  0  0  0
  1  2  1  1  0  0  0
  1  9  1  0  0  0  0
  1 35  1  0  0  0  0
  3  4  1  1  0  0  0
  3 11  1  0  0  0  0
  3 45  1  0  0  0  0
  5  6  1  0  0  0  0
  5 12  1  0  0  0  0
  5 37  1  6  0  0  0
  6 30  1  0  0  0  0
  7 14  1  0  0  0  0
  7 41  1  0  0  0  0
  7 23  1  1  0  0  0
  8 16  2  0  0  0  0
  8 42  1  0  0  0  0
  9 10  1  6  0  0  0
  9 18  1  0  0  0  0
 11 20  1  0  0  0  0
 12 13  1  6  0  0  0
 12 22  1  0  0  0  0
 13 47  1  0  0  0  0
 14 15  1  1  0  0  0
 14 24  1  0  0  0  0
 16 17  1  0  0  0  0
 17 26  2  0  0  0  0
 18 19  1  6  0  0  0
 18 27  1  0  0  0  0
 20 21  1  6  0  0  0
 20 29  1  0  0  0  0
 22 23  1  1  0  0  0
 22 30  1  0  0  0  0
 24 25  1  1  0  0  0
 24 31  1  0  0  0  0
 26 33  1  0  0  0  0
 27 28  1  1  0  0  0
 27 34  1  0  0  0  0
 29  2  1  6  0  0  0
 29 36  1  0  0  0  0
 30 38  1  6  0  0  0
 31 32  1  1  0  0  0
 31 40  1  0  0  0  0
 33 42  2  0  0  0  0
 34 35  1  0  0  0  0
 34 43  1  1  0  0  0
 36 37  1  6  0  0  0
 36 45  1  0  0  0  0
 38 39  1  0  0  0  0
 40 41  1  0  0  0  0
 40 48  1  1  0  0  0
 43 44  1  0  0  0  0
 45 46  1  1  0  0  0
 47 50  1  0  0  0  0
 48 49  1  0  0  0  0
 50 51  1  0  0  0  0
 51 52  1  0  0  0  0
 52  8  1  0  0  0  0
M  END
>  <CHROM.1>
155.27923796,-108.85557660,-71.34985548,-62.47148269,-172.80998233,-153.78023317
41.81259801,-62.49225934,47.80015109,174.07223090,64.15294606,-8.78245305
97.50864257,-114.34742176,-174.78937368,25.13512735,26.91814306,6.68136578
2.82271477,-0.92935887,1.55065591

>  <Name>
2be0_lig

>  <RI>
2.57068e+07

>  <Rbt.Current_Directory>
/home/itssahil/PROJECTS/Mol_Feturizer/New_Systems/rnas/2be0

>  <Rbt.Executable>
rbdock ($Id: //depot/dev/client3/rdock/2013.1/src/exe/rbdock.cxx#4 $)

>  <Rbt.Library>
libRbt.so (2013.1, Build901 2013/11/27)

>  <Rbt.Parameter_File>
/export/apps/rDock/src/rDock_2013.1_src/data/scripts/dock_solv.prm

>  <Rbt.Receptor>
prm/blind_docking_60.prm

>  <SCORE>
36.9521

>  <SCORE.INTER>
13.5553

>  <SCORE.INTER.CONST>
1

>  <SCORE.INTER.POLAR>
-0.945564

>  <SCORE.INTER.ROT>
15

>  <SCORE.INTER.SOLV>
27.5669

>  <SCORE.INTER.VDW>
-10.6002

>  <SCORE.INTER.norm>
0.260678

>  <SCORE.INTRA>
-3.08664

>  <SCORE.INTRA.DIHEDRAL>
-24.1298

>  <SCORE.INTRA.DIHEDRAL.0>
47.8724

>  <SCORE.INTRA.POLAR>
0

>  <SCORE.INTRA.POLAR.0>
0

>  <SCORE.INTRA.REPUL>
0.173016

>  <SCORE.INTRA.REPUL.0>
0

>  <SCORE.INTRA.SOLV>
2.59143

>  <SCORE.INTRA.SOLV.lig_0>
-115.677

>  <SCORE.INTRA.VDW>
6.81744

>  <SCORE.INTRA.VDW.0>
-7.4833

>  <SCORE.INTRA.norm>
-0.0593584

>  <SCORE.RESTR>
26.4834

>  <SCORE.RESTR.CAVITY>
26.4834

>  <SCORE.RESTR.norm>
0.509297

>  <SCORE.SYSTEM>
0

>  <SCORE.SYSTEM.CONST>
0

>  <SCORE.SYSTEM.DIHEDRAL>
0

>  <SCORE.SYSTEM.SOLV>
0

>  <SCORE.SYSTEM.norm>
0

>  <SCORE.heavy>
52

>  <SCORE.norm>
0.710617

>  <RMSD>
31.766

$$$$
2be0_lig
 OpenBabel11021811423D
libRbt.so/2013.1/901 2013/11/27
 52 56  0  0  0  0  0  0  0  0999 V2000
   22.8079   31.1819    8.3528 C   0  0  2  0  0  0  0  0  0  0  0  0
   21.7647   31.0225    7.4205 O   0  0  0  0  0  0  0  0  0  0  0  0
   21.2491   29.0411    3.5244 C   0  0  2  0  0  0  0  0  0  0  0  0
   21.5584   28.5749    2.1437 N   0  0  0  0  0  0  0  0  0  0  0  0
   23.4044   27.1937    6.8513 C   0  0  2  0  0  0  0  0  0  0  0  0
   23.4878   26.5095    8.1183 O   0  0  0  0  0  0  0  0  0  0  0  0
   27.6690   27.0085    8.8410 C   0  0  1  0  0  0  0  0  0  0  0  0
   28.3538   22.9982    2.3933 C   0  0  0  0  0  0  0  0  0  0  0  0
   23.1637   32.7104    8.5593 C   0  0  2  0  0  0  0  0  0  0  0  0
   21.9563   33.4555    8.9222 N   0  0  0  0  0  0  0  0  0  0  0  0
   21.3821   30.6309    3.5814 C   0  0  0  0  0  0  0  0  0  0  0  0
   24.8357   27.2760    6.2971 C   0  0  2  0  0  0  0  0  0  0  0  0
   25.0155   25.9661    5.5977 O   0  0  0  0  0  0  0  0  0  0  0  0
   29.2574   26.9347    8.5050 C   0  0  2  0  0  0  0  0  0  0  0  0
   29.4778   25.8908    7.4526 N   0  0  0  0  0  0  0  0  0  0  0  0
   27.4877   23.9892    1.8253 C   0  0  0  0  0  0  0  0  0  0  0  0
   27.7637   24.5068    0.5326 N   0  0  0  0  0  0  0  0  0  0  0  0
   23.8467   33.2870    7.2339 C   0  0  1  0  0  0  0  0  0  0  0  0
   24.1505   34.6584    7.4368 O   0  0  0  0  0  0  0  0  0  0  0  0
   21.0639   31.1824    5.0862 C   0  0  2  0  0  0  0  0  0  0  0  0
   21.1780   32.6121    5.1502 N   0  0  0  0  0  0  0  0  0  0  0  0
   25.5836   27.5485    7.6159 C   0  0  2  0  0  0  0  0  0  0  0  0
   26.9877   27.3367    7.6167 O   0  0  0  0  0  0  0  0  0  0  0  0
   30.0078   26.5662    9.8203 C   0  0  1  0  0  0  0  0  0  0  0  0
   29.7359   27.6595   10.7681 O   0  0  0  0  0  0  0  0  0  0  0  0
   28.8788   24.0885   -0.2481 C   0  0  0  0  0  0  0  0  0  0  0  0
   25.1229   32.4497    6.9299 C   0  0  2  0  0  0  0  0  0  0  0  0
   25.8005   32.9369    5.7041 O   0  0  0  0  0  0  0  0  0  0  0  0
   22.0642   30.5232    6.1227 C   0  0  2  0  0  0  0  0  0  0  0  0
   24.8190   26.6834    8.6460 C   0  0  1  0  0  0  0  0  0  0  0  0
   29.4634   25.1439   10.3917 C   0  0  2  0  0  0  0  0  0  0  0  0
   29.7314   24.0463    9.4493 O   0  0  0  0  0  0  0  0  0  0  0  0
   29.7691   23.1109    0.2605 C   0  0  0  0  0  0  0  0  0  0  0  0
   24.7484   30.9310    6.7280 C   0  0  2  0  0  0  0  0  0  0  0  0
   24.0878   30.5156    7.9552 O   0  0  0  0  0  0  0  0  0  0  0  0
   21.9018   28.9669    6.0191 C   0  0  2  0  0  0  0  0  0  0  0  0
   22.8251   28.4871    6.9891 O   0  0  0  0  0  0  0  0  0  0  0  0
   24.6750   27.3788    9.9986 C   0  0  0  0  0  0  0  0  0  0  0  0
   23.7955   28.4775   10.0242 O   0  0  0  0  0  0  0  0  0  0  0  0
   27.8919   25.2463   10.6618 C   0  0  1  0  0  0  0  0  0  0  0  0
   27.2082   25.6516    9.3722 O   0  0  0  0  0  0  0  0  0  0  0  0
   29.5253   22.5401    1.6055 C   0  0  0  0  0  0  0  0  0  0  0  0
   25.9926   30.1897    6.4664 C   0  0  0  0  0  0  0  0  0  0  0  0
   26.2033   30.1236    5.1458 O   0  0  0  0  0  0  0  0  0  0  0  0
   22.2476   28.4629    4.5549 C   0  0  1  0  0  0  0  0  0  0  0  0
   22.0891   27.0844    4.4768 O   0  0  0  0  0  0  0  0  0  0  0  0
   25.9886   24.8899    5.8998 C   0  0  0  0  0  0  0  0  0  0  0  0
   27.4285   23.8626   11.1927 C   0  0  0  0  0  0  0  0  0  0  0  0
   27.5596   22.8563   10.1685 N   0  0  0  0  0  0  0  0  0  0  0  0
   26.6678   24.5096    4.5801 C   0  0  0  0  0  0  0  0  0  0  0  0
   26.7082   23.0167    4.4520 N   0  0  0  0  0  0  0  0  0  0  0  0
   28.0164   22.4294    3.8572 C   0  0  0  0  0  0  0  0  0  0  0  0
  1  2  1  6  0  0  0
  1  9  1  0  0  0  0
  1 35  1  0  0  0  0
  3  4  1  6  0  0  0
  3 11  1  0  0  0  0
  3 45  1  0  0  0  0
  5  6  1  0  0  0  0
  5 12  1  0  0  0  0
  5 37  1  1  0  0  0
  6 30  1  0  0  0  0
  7 14  1  0  0  0  0
  7 41  1  0  0  0  0
  7 23  1  6  0  0  0
  8 16  2  0  0  0  0
  8 42  1  0  0  0  0
  9 10  1  6  0  0  0
  9 18  1  0  0  0  0
 11 20  1  0  0  0  0
 12 13  1  1  0  0  0
 12 22  1  0  0  0  0
 13 47  1  0  0  0  0
 14 15  1  6  0  0  0
 14 24  1  0  0  0  0
 16 17  1  0  0  0  0
 17 26  2  0  0  0  0
 18 19  1  1  0  0  0
 18 27  1  0  0  0  0
 20 21  1  6  0  0  0
 20 29  1  0  0  0  0
 22 23  1  6  0  0  0
 22 30  1  0  0  0  0
 24 25  1  1  0  0  0
 24 31  1  0  0  0  0
 26 33  1  0  0  0  0
 27 28  1  6  0  0  0
 27 34  1  0  0  0  0
 29  2  1  1  0  0  0
 29 36  1  0  0  0  0
 30 38  1  1  0  0  0
 31 32  1  6  0  0  0
 31 40  1  0  0  0  0
 33 42  2  0  0  0  0
 34 35  1  0  0  0  0
 34 43  1  1  0  0  0
 36 37  1  1  0  0  0
 36 45  1  0  0  0  0
 38 39  1  0  0  0  0
 40 41  1  0  0  0  0
 40 48  1  6  0  0  0
 43 44  1  0  0  0  0
 45 46  1  1  0  0  0
 47 50  1  0  0  0  0
 48 49  1  0  0  0  0
 50 51  1  0  0  0  0
 51 52  1  0  0  0  0
 52  8  1  0  0  0  0
M  END
>  <CHROM.1>
106.71703481,-139.50757879,-176.26991787,-117.66081611,-130.82045037,-153.55506989
-147.60372701,-45.85030948,-92.18016904,-153.52524068,-66.42676346,-133.94174612
-140.23266926,-58.07395793,2.49972061,25.44998825,27.73929931,6.54126978
-2.69298000,0.84577734,-1.97476142

>  <Name>
2be0_lig

>  <RI>
2.57068e+07

>  <Rbt.Current_Directory>
/home/itssahil/PROJECTS/Mol_Feturizer/New_Systems/rnas/2be0

>  <Rbt.Executable>
rbdock ($Id: //depot/dev/client3/rdock/2013.1/src/exe/rbdock.cxx#4 $)

>  <Rbt.Library>
libRbt.so (2013.1, Build901 2013/11/27)

>  <Rbt.Parameter_File>
/export/apps/rDock/src/rDock_2013.1_src/data/scripts/dock_solv.prm

>  <Rbt.Receptor>
prm/blind_docking_60.prm

>  <SCORE>
62.5777

>  <SCORE.INTER>
34.9696

>  <SCORE.INTER.CONST>
1

>  <SCORE.INTER.POLAR>
-0.746967

>  <SCORE.INTER.ROT>
15

>  <SCORE.INTER.SOLV>
35.8581

>  <SCORE.INTER.VDW>
0.250242

>  <SCORE.INTER.norm>
0.672492

>  <SCORE.INTRA>
4.3526

>  <SCORE.INTRA.DIHEDRAL>
-2.36381

>  <SCORE.INTRA.DIHEDRAL.0>
47.8724

>  <SCORE.INTRA.POLAR>
0

>  <SCORE.INTRA.POLAR.0>
0

>  <SCORE.INTRA.REPUL>
0

>  <SCORE.INTRA.REPUL.0>
0

>  <SCORE.INTRA.SOLV>
2.90262

>  <SCORE.INTRA.SOLV.lig_0>
-115.677

>  <SCORE.INTRA.VDW>
4.0832

>  <SCORE.INTRA.VDW.0>
-7.4833

>  <SCORE.INTRA.norm>
0.0837039

>  <SCORE.RESTR>
23.2555

>  <SCORE.RESTR.CAVITY>
23.2555

>  <SCORE.RESTR.norm>
0.447222

>  <SCORE.SYSTEM>
0

>  <SCORE.SYSTEM.CONST>
0

>  <SCORE.SYSTEM.DIHEDRAL>
0

>  <SCORE.SYSTEM.SOLV>
0

>  <SCORE.SYSTEM.norm>
0

>  <SCORE.heavy>
52

>  <SCORE.norm>
1.20342

>  <RMSD>
31.809

$$$$
2be0_lig
 OpenBabel11021811423D
libRbt.so/2013.1/901 2013/11/27
 52 56  0  0  0  0  0  0  0  0999 V2000
   27.7125   23.8695    7.9002 C   0  0  2  0  0  0  0  0  0  0  0  0
   26.7515   24.6907    7.2799 O   0  0  0  0  0  0  0  0  0  0  0  0
   26.6074   23.1780    3.1493 C   0  0  2  0  0  0  0  0  0  0  0  0
   26.0425   22.7345    1.8440 N   0  0  0  0  0  0  0  0  0  0  0  0
   25.3254   27.0277    4.7185 C   0  0  2  0  0  0  0  0  0  0  0  0
   25.4713   28.4130    4.3443 O   0  0  0  0  0  0  0  0  0  0  0  0
   22.9618   27.9179    8.3547 C   0  0  1  0  0  0  0  0  0  0  0  0
   23.3239   32.2008    5.7628 C   0  0  0  0  0  0  0  0  0  0  0  0
   27.3559   23.6186    9.4219 C   0  0  2  0  0  0  0  0  0  0  0  0
   25.9959   23.0864    9.5308 N   0  0  0  0  0  0  0  0  0  0  0  0
   25.9558   22.3126    4.3218 C   0  0  0  0  0  0  0  0  0  0  0  0
   24.2710   26.9793    5.8357 C   0  0  2  0  0  0  0  0  0  0  0  0
   22.9746   26.9328    5.0910 O   0  0  0  0  0  0  0  0  0  0  0  0
   22.0536   28.8544    9.3239 C   0  0  2  0  0  0  0  0  0  0  0  0
   22.9600   29.7461   10.1171 N   0  0  0  0  0  0  0  0  0  0  0  0
   22.6848   33.2447    6.5089 C   0  0  0  0  0  0  0  0  0  0  0  0
   23.1566   34.5789    6.3974 N   0  0  0  0  0  0  0  0  0  0  0  0
   27.5348   24.9763   10.2467 C   0  0  1  0  0  0  0  0  0  0  0  0
   27.2033   24.7319   11.6049 O   0  0  0  0  0  0  0  0  0  0  0  0
   26.5398   22.7786    5.7750 C   0  0  2  0  0  0  0  0  0  0  0  0
   25.9629   22.0058    6.8386 N   0  0  0  0  0  0  0  0  0  0  0  0
   24.6725   28.2585    6.5942 C   0  0  2  0  0  0  0  0  0  0  0  0
   23.7224   28.7942    7.5036 O   0  0  0  0  0  0  0  0  0  0  0  0
   21.2334   27.9182   10.2619 C   0  0  1  0  0  0  0  0  0  0  0  0
   20.3745   27.1072    9.3833 O   0  0  0  0  0  0  0  0  0  0  0  0
   24.2550   34.9461    5.5687 C   0  0  0  0  0  0  0  0  0  0  0  0
   29.0046   25.4625   10.0875 C   0  0  2  0  0  0  0  0  0  0  0  0
   29.2315   26.7256   10.8304 O   0  0  0  0  0  0  0  0  0  0  0  0
   26.2341   24.3152    6.0092 C   0  0  2  0  0  0  0  0  0  0  0  0
   25.0752   29.2337    5.4624 C   0  0  1  0  0  0  0  0  0  0  0  0
   22.2396   26.9798   11.1295 C   0  0  2  0  0  0  0  0  0  0  0  0
   23.1016   27.7838   12.0098 O   0  0  0  0  0  0  0  0  0  0  0  0
   24.9253   33.9575    4.8069 C   0  0  0  0  0  0  0  0  0  0  0  0
   29.3409   25.7063    8.5660 C   0  0  2  0  0  0  0  0  0  0  0  0
   29.0964   24.4396    7.8946 O   0  0  0  0  0  0  0  0  0  0  0  0
   26.8844   25.1166    4.8285 C   0  0  2  0  0  0  0  0  0  0  0  0
   26.5618   26.4652    5.1458 O   0  0  0  0  0  0  0  0  0  0  0  0
   26.2828   30.0922    5.8351 C   0  0  0  0  0  0  0  0  0  0  0  0
   26.0071   31.2007    6.6575 O   0  0  0  0  0  0  0  0  0  0  0  0
   23.1454   26.1138   10.1383 C   0  0  1  0  0  0  0  0  0  0  0  0
   23.8872   27.0590    9.2158 O   0  0  0  0  0  0  0  0  0  0  0  0
   24.4718   32.5497    4.8891 C   0  0  0  0  0  0  0  0  0  0  0  0
   30.7439   26.1417    8.4774 C   0  0  0  0  0  0  0  0  0  0  0  0
   31.3398   25.5210    7.4515 O   0  0  0  0  0  0  0  0  0  0  0  0
   26.2730   24.6607    3.4371 C   0  0  1  0  0  0  0  0  0  0  0  0
   26.8664   25.3722    2.4011 O   0  0  0  0  0  0  0  0  0  0  0  0
   21.8249   27.8628    5.1899 C   0  0  0  0  0  0  0  0  0  0  0  0
   24.0890   25.2501   11.0189 C   0  0  0  0  0  0  0  0  0  0  0  0
   23.5208   23.9438   11.2412 N   0  0  0  0  0  0  0  0  0  0  0  0
   22.0393   28.9611    4.1434 C   0  0  0  0  0  0  0  0  0  0  0  0
   21.7917   30.3008    4.7684 N   0  0  0  0  0  0  0  0  0  0  0  0
   22.7680   30.7006    5.9073 C   0  0  0  0  0  0  0  0  0  0  0  0
  1  2  1  1  0  0  0
  1  9  1  0  0  0  0
  1 35  1  0  0  0  0
  3  4  1  6  0  0  0
  3 11  1  0  0  0  0
  3 45  1  0  0  0  0
  5  6  1  0  0  0  0
  5 12  1  0  0  0  0
  5 37  1  1  0  0  0
  6 30  1  0  0  0  0
  7 14  1  0  0  0  0
  7 41  1  0  0  0  0
  7 23  1  6  0  0  0
  8 16  2  0  0  0  0
  8 42  1  0  0  0  0
  9 10  1  6  0  0  0
  9 18  1  0  0  0  0
 11 20  1  0  0  0  0
 12 13  1  6  0  0  0
 12 22  1  0  0  0  0
 13 47  1  0  0  0  0
 14 15  1  1  0  0  0
 14 24  1  0  0  0  0
 16 17  1  0  0  0  0
 17 26  2  0  0  0  0
 18 19  1  1  0  0  0
 18 27  1  0  0  0  0
 20 21  1  1  0  0  0
 20 29  1  0  0  0  0
 22 23  1  6  0  0  0
 22 30  1  0  0  0  0
 24 25  1  6  0  0  0
 24 31  1  0  0  0  0
 26 33  1  0  0  0  0
 27 28  1  1  0  0  0
 27 34  1  0  0  0  0
 29  2  1  1  0  0  0
 29 36  1  0  0  0  0
 30 38  1  1  0  0  0
 31 32  1  6  0  0  0
 31 40  1  0  0  0  0
 33 42  2  0  0  0  0
 34 35  1  0  0  0  0
 34 43  1  1  0  0  0
 36 37  1  1  0  0  0
 36 45  1  0  0  0  0
 38 39  1  0  0  0  0
 40 41  1  0  0  0  0
 40 48  1  1  0  0  0
 43 44  1  0  0  0  0
 45 46  1  6  0  0  0
 47 50  1  0  0  0  0
 48 49  1  0  0  0  0
 50 51  1  0  0  0  0
 51 52  1  0  0  0  0
 52  8  1  0  0  0  0
M  END
>  <CHROM.1>
-133.32258899,-143.30845418,176.37141582,-123.04129283,91.01419988,41.07990459
17.94509693,163.82608531,137.35549437,-86.97271841,94.39848499,-133.34913982
64.02945587,133.45391532,97.20131497,25.21955510,27.13816423,7.16280346,0.50116882
-0.96209392,1.98703777

>  <Name>
2be0_lig

>  <RI>
2.57068e+07

>  <Rbt.Current_Directory>
/home/itssahil/PROJECTS/Mol_Feturizer/New_Systems/rnas/2be0

>  <Rbt.Executable>
rbdock ($Id: //depot/dev/client3/rdock/2013.1/src/exe/rbdock.cxx#4 $)

>  <Rbt.Library>
libRbt.so (2013.1, Build901 2013/11/27)

>  <Rbt.Parameter_File>
/export/apps/rDock/src/rDock_2013.1_src/data/scripts/dock_solv.prm

>  <Rbt.Receptor>
prm/blind_docking_60.prm

>  <SCORE>
50.9116

>  <SCORE.INTER>
12.3839

>  <SCORE.INTER.CONST>
1

>  <SCORE.INTER.POLAR>
-0.127952

>  <SCORE.INTER.ROT>
15

>  <SCORE.INTER.SOLV>
25.1014

>  <SCORE.INTER.VDW>
-13.2847

>  <SCORE.INTER.norm>
0.238152

>  <SCORE.INTRA>
9.88078

>  <SCORE.INTRA.DIHEDRAL>
-0.624094

>  <SCORE.INTRA.DIHEDRAL.0>
47.8724

>  <SCORE.INTRA.POLAR>
0

>  <SCORE.INTRA.POLAR.0>
0

>  <SCORE.INTRA.REPUL>
0.0990523

>  <SCORE.INTRA.REPUL.0>
0

>  <SCORE.INTRA.SOLV>
5.22918

>  <SCORE.INTRA.SOLV.lig_0>
-115.677

>  <SCORE.INTRA.VDW>
7.08298

>  <SCORE.INTRA.VDW.0>
-7.4833

>  <SCORE.INTRA.norm>
0.190015

>  <SCORE.RESTR>
28.6469

>  <SCORE.RESTR.CAVITY>
28.6469

>  <SCORE.RESTR.norm>
0.550902

>  <SCORE.SYSTEM>
0

>  <SCORE.SYSTEM.CONST>
0

>  <SCORE.SYSTEM.DIHEDRAL>
0

>  <SCORE.SYSTEM.SOLV>
0

>  <SCORE.SYSTEM.norm>
0

>  <SCORE.heavy>
52

>  <SCORE.norm>
0.979069

>  <RMSD>
32.023

$$$$
2be0_lig
 OpenBabel11021811423D
libRbt.so/2013.1/901 2013/11/27
 52 56  0  0  0  0  0  0  0  0999 V2000
   30.6092   27.5055   10.5011 C   0  0  2  0  0  0  0  0  0  0  0  0
   30.2772   26.2964    9.8603 O   0  0  0  0  0  0  0  0  0  0  0  0
   27.2630   23.1031   10.1575 C   0  0  2  0  0  0  0  0  0  0  0  0
   26.0919   22.3314   10.6598 N   0  0  0  0  0  0  0  0  0  0  0  0
   27.2663   26.8590    7.3983 C   0  0  2  0  0  0  0  0  0  0  0  0
   26.9978   28.2567    7.1643 O   0  0  0  0  0  0  0  0  0  0  0  0
   22.6520   26.6196    8.4667 C   0  0  1  0  0  0  0  0  0  0  0  0
   23.8262   31.2716    5.3516 C   0  0  0  0  0  0  0  0  0  0  0  0
   32.0374   28.0192   10.0517 C   0  0  2  0  0  0  0  0  0  0  0  0
   32.0929   28.1143    8.5914 N   0  0  0  0  0  0  0  0  0  0  0  0
   28.3038   23.3090   11.3502 C   0  0  0  0  0  0  0  0  0  0  0  0
   25.9457   26.1087    7.1625 C   0  0  2  0  0  0  0  0  0  0  0  0
   25.9343   25.8771    5.6848 O   0  0  0  0  0  0  0  0  0  0  0  0
   22.3919   27.9214    9.4042 C   0  0  2  0  0  0  0  0  0  0  0  0
   23.6961   28.3483   10.0061 N   0  0  0  0  0  0  0  0  0  0  0  0
   25.1075   31.3619    5.9879 C   0  0  0  0  0  0  0  0  0  0  0  0
   25.6671   32.6368    6.2645 N   0  0  0  0  0  0  0  0  0  0  0  0
   33.1654   27.0458   10.6311 C   0  0  1  0  0  0  0  0  0  0  0  0
   34.4359   27.5189   10.2112 O   0  0  0  0  0  0  0  0  0  0  0  0
   29.5996   24.1655   10.8430 C   0  0  2  0  0  0  0  0  0  0  0  0
   30.5451   24.3558   11.9066 N   0  0  0  0  0  0  0  0  0  0  0  0
   24.9782   27.1337    7.7840 C   0  0  2  0  0  0  0  0  0  0  0  0
   23.6026   27.0030    7.4567 O   0  0  0  0  0  0  0  0  0  0  0  0
   21.3733   27.5168   10.5124 C   0  0  1  0  0  0  0  0  0  0  0  0
   20.1356   27.1350    9.8126 O   0  0  0  0  0  0  0  0  0  0  0  0
   25.0130   33.8584    5.9360 C   0  0  0  0  0  0  0  0  0  0  0  0
   33.0429   27.0138   12.1823 C   0  0  2  0  0  0  0  0  0  0  0  0
   34.0650   26.1204   12.7793 O   0  0  0  0  0  0  0  0  0  0  0  0
   29.1301   25.5745   10.2918 C   0  0  2  0  0  0  0  0  0  0  0  0
   25.5916   28.4954    7.3795 C   0  0  1  0  0  0  0  0  0  0  0  0
   21.9628   26.2761   11.3836 C   0  0  2  0  0  0  0  0  0  0  0  0
   23.2003   26.6503   12.0856 O   0  0  0  0  0  0  0  0  0  0  0  0
   23.7439   33.8321    5.3069 C   0  0  0  0  0  0  0  0  0  0  0  0
   31.6143   26.5003   12.6101 C   0  0  2  0  0  0  0  0  0  0  0  0
   30.6615   27.4099   11.9939 O   0  0  0  0  0  0  0  0  0  0  0  0
   28.1046   25.3165    9.1339 C   0  0  2  0  0  0  0  0  0  0  0  0
   27.7656   26.6320    8.7123 O   0  0  0  0  0  0  0  0  0  0  0  0
   25.4815   29.5375    8.4912 C   0  0  0  0  0  0  0  0  0  0  0  0
   24.3024   30.3062    8.4861 O   0  0  0  0  0  0  0  0  0  0  0  0
   22.2491   25.0367   10.4167 C   0  0  1  0  0  0  0  0  0  0  0  0
   23.2042   25.4858    9.3300 O   0  0  0  0  0  0  0  0  0  0  0  0
   23.1173   32.5263    4.9961 C   0  0  0  0  0  0  0  0  0  0  0  0
   31.5513   26.5123   14.0804 C   0  0  0  0  0  0  0  0  0  0  0  0
   32.1011   27.6429   14.5413 O   0  0  0  0  0  0  0  0  0  0  0  0
   26.8467   24.5103    9.6677 C   0  0  1  0  0  0  0  0  0  0  0  0
   25.9529   24.2809    8.6284 O   0  0  0  0  0  0  0  0  0  0  0  0
   25.6463   26.8504    4.6049 C   0  0  0  0  0  0  0  0  0  0  0  0
   22.8180   23.8917   11.2980 C   0  0  0  0  0  0  0  0  0  0  0  0
   24.0535   24.2968   11.9210 N   0  0  0  0  0  0  0  0  0  0  0  0
   25.1719   28.1438    5.2753 C   0  0  0  0  0  0  0  0  0  0  0  0
   24.2280   28.8631    4.3596 N   0  0  0  0  0  0  0  0  0  0  0  0
   23.2166   29.8159    5.0520 C   0  0  0  0  0  0  0  0  0  0  0  0
  1  2  1  6  0  0  0
  1  9  1  0  0  0  0
  1 35  1  0  0  0  0
  3  4  1  1  0  0  0
  3 11  1  0  0  0  0
  3 45  1  0  0  0  0
  5  6  1  0  0  0  0
  5 12  1  0  0  0  0
  5 37  1  1  0  0  0
  6 30  1  0  0  0  0
  7 14  1  0  0  0  0
  7 41  1  0  0  0  0
  7 23  1  6  0  0  0
  8 16  2  0  0  0  0
  8 42  1  0  0  0  0
  9 10  1  6  0  0  0
  9 18  1  0  0  0  0
 11 20  1  0  0  0  0
 12 13  1  6  0  0  0
 12 22  1  0  0  0  0
 13 47  1  0  0  0  0
 14 15  1  1  0  0  0
 14 24  1  0  0  0  0
 16 17  1  0  0  0  0
 17 26  2  0  0  0  0
 18 19  1  1  0  0  0
 18 27  1  0  0  0  0
 20 21  1  1  0  0  0
 20 29  1  0  0  0  0
 22 23  1  6  0  0  0
 22 30  1  0  0  0  0
 24 25  1  6  0  0  0
 24 31  1  0  0  0  0
 26 33  1  0  0  0  0
 27 28  1  1  0  0  0
 27 34  1  0  0  0  0
 29  2  1  6  0  0  0
 29 36  1  0  0  0  0
 30 38  1  1  0  0  0
 31 32  1  6  0  0  0
 31 40  1  0  0  0  0
 33 42  2  0  0  0  0
 34 35  1  0  0  0  0
 34 43  1  1  0  0  0
 36 37  1  1  0  0  0
 36 45  1  0  0  0  0
 38 39  1  0  0  0  0
 40 41  1  0  0  0  0
 40 48  1  1  0  0  0
 43 44  1  0  0  0  0
 45 46  1  6  0  0  0
 47 50  1  0  0  0  0
 48 49  1  0  0  0  0
 50 51  1  0  0  0  0
 51 52  1  0  0  0  0
 52  8  1  0  0  0  0
M  END
>  <CHROM.1>
170.20042836,-179.36865539,75.90747699,-75.84994130,-7.18472419,112.31828330
-117.36734890,154.74971981,43.04384975,156.55712860,-61.31713001,-150.52740124
155.07618440,83.94511484,-48.64657223,26.72266353,27.22188252,9.15552911
-0.55159806,-0.20331977,-0.67852494

>  <Name>
2be0_lig

>  <RI>
0

>  <Rbt.Current_Directory>
/home/itssahil/PROJECTS/Mol_Feturizer/New_Systems/rnas/2be0

>  <Rbt.Executable>
rbdock ($Id: //depot/dev/client3/rdock/2013.1/src/exe/rbdock.cxx#4 $)

>  <Rbt.Library>
libRbt.so (2013.1, Build901 2013/11/27)

>  <Rbt.Parameter_File>
/export/apps/rDock/src/rDock_2013.1_src/data/scripts/dock_solv.prm

>  <Rbt.Receptor>
prm/blind_docking_80.prm

>  <SCORE>
61.7689

>  <SCORE.INTER>
1.84898

>  <SCORE.INTER.CONST>
1

>  <SCORE.INTER.POLAR>
-0.611528

>  <SCORE.INTER.ROT>
15

>  <SCORE.INTER.SOLV>
30.7991

>  <SCORE.INTER.VDW>
-20.5953

>  <SCORE.INTER.norm>
0.0355573

>  <SCORE.INTRA>
29.336

>  <SCORE.INTRA.DIHEDRAL>
-14.113

>  <SCORE.INTRA.DIHEDRAL.0>
47.8724

>  <SCORE.INTRA.POLAR>
0

>  <SCORE.INTRA.POLAR.0>
0

>  <SCORE.INTRA.REPUL>
0

>  <SCORE.INTRA.REPUL.0>
0

>  <SCORE.INTRA.SOLV>
12.8491

>  <SCORE.INTRA.SOLV.lig_0>
-115.677

>  <SCORE.INTRA.VDW>
29.9679

>  <SCORE.INTRA.VDW.0>
-7.4833

>  <SCORE.INTRA.norm>
0.564153

>  <SCORE.RESTR>
30.584

>  <SCORE.RESTR.CAVITY>
30.584

>  <SCORE.RESTR.norm>
0.588153

>  <SCORE.SYSTEM>
0

>  <SCORE.SYSTEM.CONST>
0

>  <SCORE.SYSTEM.DIHEDRAL>
0

>  <SCORE.SYSTEM.SOLV>
0

>  <SCORE.SYSTEM.norm>
0

>  <SCORE.heavy>
52

>  <SCORE.norm>
1.18786

>  <RMSD>
32.087

$$$$
2be0_lig
 OpenBabel11021811423D
libRbt.so/2013.1/901 2013/11/27
 52 56  0  0  0  0  0  0  0  0999 V2000
   29.3788   24.3793    9.9327 C   0  0  2  0  0  0  0  0  0  0  0  0
   28.2241   25.1720    9.7877 O   0  0  0  0  0  0  0  0  0  0  0  0
   25.3642   22.1519    8.3484 C   0  0  2  0  0  0  0  0  0  0  0  0
   24.1160   21.5707    7.7795 N   0  0  0  0  0  0  0  0  0  0  0  0
   27.3544   25.7501    6.5858 C   0  0  2  0  0  0  0  0  0  0  0  0
   28.0694   26.9655    6.8887 O   0  0  0  0  0  0  0  0  0  0  0  0
   24.5514   28.2699    8.6552 C   0  0  1  0  0  0  0  0  0  0  0  0
   23.9874   32.2855    5.3232 C   0  0  0  0  0  0  0  0  0  0  0  0
   29.5600   23.8986   11.4300 C   0  0  2  0  0  0  0  0  0  0  0  0
   28.3433   23.2216   11.8837 N   0  0  0  0  0  0  0  0  0  0  0  0
   24.9954   23.0297    9.6297 C   0  0  0  0  0  0  0  0  0  0  0  0
   25.9628   25.8838    7.2245 C   0  0  2  0  0  0  0  0  0  0  0  0
   25.1743   26.6256    6.1923 O   0  0  0  0  0  0  0  0  0  0  0  0
   23.8850   29.1406    9.8548 C   0  0  2  0  0  0  0  0  0  0  0  0
   23.0422   28.2318   10.6970 N   0  0  0  0  0  0  0  0  0  0  0  0
   22.6764   32.6824    4.9005 C   0  0  0  0  0  0  0  0  0  0  0  0
   22.4280   34.0375    4.5584 N   0  0  0  0  0  0  0  0  0  0  0  0
   29.9289   25.1493   12.3549 C   0  0  1  0  0  0  0  0  0  0  0  0
   30.0793   24.6989   13.6923 O   0  0  0  0  0  0  0  0  0  0  0  0
   26.3387   23.6981   10.2766 C   0  0  2  0  0  0  0  0  0  0  0  0
   26.0206   24.4890   11.4319 N   0  0  0  0  0  0  0  0  0  0  0  0
   26.3702   26.5912    8.5308 C   0  0  2  0  0  0  0  0  0  0  0  0
   25.3380   27.2316    9.2664 O   0  0  0  0  0  0  0  0  0  0  0  0
   23.0180   30.2622    9.2071 C   0  0  1  0  0  0  0  0  0  0  0  0
   23.9443   31.0962    8.4237 O   0  0  0  0  0  0  0  0  0  0  0  0
   23.4303   35.0475    4.6146 C   0  0  0  0  0  0  0  0  0  0  0  0
   31.2349   25.7987   11.8119 C   0  0  2  0  0  0  0  0  0  0  0  0
   31.6270   26.9716   12.6302 O   0  0  0  0  0  0  0  0  0  0  0  0
   27.0619   24.6035    9.1964 C   0  0  2  0  0  0  0  0  0  0  0  0
   27.5038   27.5442    8.0828 C   0  0  1  0  0  0  0  0  0  0  0  0
   21.8742   29.6025    8.2571 C   0  0  2  0  0  0  0  0  0  0  0  0
   20.9448   28.7670    9.0335 O   0  0  0  0  0  0  0  0  0  0  0  0
   24.7451   34.7146    5.0240 C   0  0  0  0  0  0  0  0  0  0  0  0
   31.0349   26.2702   10.3202 C   0  0  2  0  0  0  0  0  0  0  0  0
   30.6502   25.0828    9.5738 O   0  0  0  0  0  0  0  0  0  0  0  0
   27.3916   23.6988    7.9588 C   0  0  2  0  0  0  0  0  0  0  0  0
   28.0410   24.6009    7.0712 O   0  0  0  0  0  0  0  0  0  0  0  0
   28.6302   27.6340    9.1112 C   0  0  0  0  0  0  0  0  0  0  0  0
   29.8281   28.2105    8.6486 O   0  0  0  0  0  0  0  0  0  0  0  0
   22.5706   28.7177    7.1235 C   0  0  1  0  0  0  0  0  0  0  0  0
   23.4383   27.6731    7.7947 O   0  0  0  0  0  0  0  0  0  0  0  0
   25.0553   33.3138    5.3925 C   0  0  0  0  0  0  0  0  0  0  0  0
   32.3041   26.8536    9.8566 C   0  0  0  0  0  0  0  0  0  0  0  0
   32.1910   27.2020    8.5688 O   0  0  0  0  0  0  0  0  0  0  0  0
   26.0637   23.0916    7.3380 C   0  0  1  0  0  0  0  0  0  0  0  0
   26.3734   22.2848    6.2495 O   0  0  0  0  0  0  0  0  0  0  0  0
   25.4626   27.9501    5.5932 C   0  0  0  0  0  0  0  0  0  0  0  0
   21.4346   28.1072    6.2584 C   0  0  0  0  0  0  0  0  0  0  0  0
   20.8898   29.0980    5.3638 N   0  0  0  0  0  0  0  0  0  0  0  0
   24.2424   28.3433    4.7543 C   0  0  0  0  0  0  0  0  0  0  0  0
   24.2902   29.8128    4.4626 N   0  0  0  0  0  0  0  0  0  0  0  0
   24.2400   30.7452    5.7028 C   0  0  0  0  0  0  0  0  0  0  0  0
  1  2  1  1  0  0  0
  1  9  1  0  0  0  0
  1 35  1  0  0  0  0
  3  4  1  6  0  0  0
  3 11  1  0  0  0  0
  3 45  1  0  0  0  0
  5  6  1  0  0  0  0
  5 12  1  0  0  0  0
  5 37  1  1  0  0  0
  6 30  1  0  0  0  0
  7 14  1  0  0  0  0
  7 41  1  0  0  0  0
  7 23  1  1  0  0  0
  8 16  2  0  0  0  0
  8 42  1  0  0  0  0
  9 10  1  1  0  0  0
  9 18  1  0  0  0  0
 11 20  1  0  0  0  0
 12 13  1  6  0  0  0
 12 22  1  0  0  0  0
 13 47  1  0  0  0  0
 14 15  1  1  0  0  0
 14 24  1  0  0  0  0
 16 17  1  0  0  0  0
 17 26  2  0  0  0  0
 18 19  1  1  0  0  0
 18 27  1  0  0  0  0
 20 21  1  1  0  0  0
 20 29  1  0  0  0  0
 22 23  1  6  0  0  0
 22 30  1  0  0  0  0
 24 25  1  6  0  0  0
 24 31  1  0  0  0  0
 26 33  1  0  0  0  0
 27 28  1  1  0  0  0
 27 34  1  0  0  0  0
 29  2  1  1  0  0  0
 29 36  1  0  0  0  0
 30 38  1  1  0  0  0
 31 32  1  1  0  0  0
 31 40  1  0  0  0  0
 33 42  2  0  0  0  0
 34 35  1  0  0  0  0
 34 43  1  6  0  0  0
 36 37  1  6  0  0  0
 36 45  1  0  0  0  0
 38 39  1  0  0  0  0
 40 41  1  0  0  0  0
 40 48  1  1  0  0  0
 43 44  1  0  0  0  0
 45 46  1  6  0  0  0
 47 50  1  0  0  0  0
 48 49  1  0  0  0  0
 50 51  1  0  0  0  0
 51 52  1  0  0  0  0
 52  8  1  0  0  0  0
M  END
>  <CHROM.1>
-103.40931468,123.54401204,-159.39506748,-57.40468555,-171.57121820,-58.56016409
77.95853687,48.95392205,176.80496451,-60.84118252,76.51965284,163.25593454
-61.83284721,-168.03586527,73.63128552,26.22050171,27.23127113,8.27013126
-0.84563983,-0.38726847,-0.26435080

>  <Name>
2be0_lig

>  <RI>
0

>  <Rbt.Current_Directory>
/home/itssahil/PROJECTS/Mol_Feturizer/New_Systems/rnas/2be0

>  <Rbt.Executable>
rbdock ($Id: //depot/dev/client3/rdock/2013.1/src/exe/rbdock.cxx#4 $)

>  <Rbt.Library>
libRbt.so (2013.1, Build901 2013/11/27)

>  <Rbt.Parameter_File>
/export/apps/rDock/src/rDock_2013.1_src/data/scripts/dock_solv.prm

>  <Rbt.Receptor>
prm/blind_docking_80.prm

>  <SCORE>
57.2094

>  <SCORE.INTER>
16.0352

>  <SCORE.INTER.CONST>
1

>  <SCORE.INTER.POLAR>
-1.44188

>  <SCORE.INTER.ROT>
15

>  <SCORE.INTER.SOLV>
31.482

>  <SCORE.INTER.VDW>
-8.59756

>  <SCORE.INTER.norm>
0.30837

>  <SCORE.INTRA>
18.2493

>  <SCORE.INTRA.DIHEDRAL>
-27.3519

>  <SCORE.INTRA.DIHEDRAL.0>
47.8724

>  <SCORE.INTRA.POLAR>
0

>  <SCORE.INTRA.POLAR.0>
0

>  <SCORE.INTRA.REPUL>
0

>  <SCORE.INTRA.REPUL.0>
0

>  <SCORE.INTRA.SOLV>
9.16522

>  <SCORE.INTRA.SOLV.lig_0>
-115.677

>  <SCORE.INTRA.VDW>
27.3426

>  <SCORE.INTRA.VDW.0>
-7.4833

>  <SCORE.INTRA.norm>
0.350948

>  <SCORE.RESTR>
22.9249

>  <SCORE.RESTR.CAVITY>
22.9249

>  <SCORE.RESTR.norm>
0.440863

>  <SCORE.SYSTEM>
0

>  <SCORE.SYSTEM.CONST>
0

>  <SCORE.SYSTEM.DIHEDRAL>
0

>  <SCORE.SYSTEM.SOLV>
0

>  <SCORE.SYSTEM.norm>
0

>  <SCORE.heavy>
52

>  <SCORE.norm>
1.10018

>  <RMSD>
32.088

$$$$
2be0_lig
 OpenBabel11021811423D
libRbt.so/2013.1/901 2013/11/27
 52 56  0  0  0  0  0  0  0  0999 V2000
   25.0721   32.0529    5.5808 C   0  0  2  0  0  0  0  0  0  0  0  0
   24.4545   30.9356    6.1750 O   0  0  0  0  0  0  0  0  0  0  0  0
   22.1233   27.6205    4.4584 C   0  0  2  0  0  0  0  0  0  0  0  0
   21.7587   26.4878    3.5620 N   0  0  0  0  0  0  0  0  0  0  0  0
   25.3198   27.0067    7.3921 C   0  0  2  0  0  0  0  0  0  0  0  0
   25.7503   27.0277    8.7685 O   0  0  0  0  0  0  0  0  0  0  0  0
   29.9661   26.6045    8.1096 C   0  0  1  0  0  0  0  0  0  0  0  0
   28.9845   23.7033   11.6656 C   0  0  0  0  0  0  0  0  0  0  0  0
   25.7148   33.0011    6.6734 C   0  0  2  0  0  0  0  0  0  0  0  0
   26.6256   32.2314    7.5234 N   0  0  0  0  0  0  0  0  0  0  0  0
   22.4065   28.9178    3.5725 C   0  0  0  0  0  0  0  0  0  0  0  0
   26.4673   26.3872    6.5785 C   0  0  2  0  0  0  0  0  0  0  0  0
   26.2241   24.9160    6.6953 O   0  0  0  0  0  0  0  0  0  0  0  0
   29.6786   25.5273    9.2921 C   0  0  2  0  0  0  0  0  0  0  0  0
   28.3194   25.7933    9.8643 N   0  0  0  0  0  0  0  0  0  0  0  0
   28.8168   25.0147   12.2195 C   0  0  0  0  0  0  0  0  0  0  0  0
   29.8118   25.5468   13.0809 N   0  0  0  0  0  0  0  0  0  0  0  0
   24.5572   33.7058    7.5213 C   0  0  1  0  0  0  0  0  0  0  0  0
   25.1536   34.5444    8.4987 O   0  0  0  0  0  0  0  0  0  0  0  0
   22.8246   30.1823    4.5192 C   0  0  2  0  0  0  0  0  0  0  0  0
   23.0800   31.3569    3.7340 N   0  0  0  0  0  0  0  0  0  0  0  0
   27.6552   27.0279    7.3210 C   0  0  2  0  0  0  0  0  0  0  0  0
   28.9328   26.4409    7.1216 O   0  0  0  0  0  0  0  0  0  0  0  0
   30.7834   25.7022   10.3773 C   0  0  1  0  0  0  0  0  0  0  0  0
   32.0626   25.4028    9.7129 O   0  0  0  0  0  0  0  0  0  0  0  0
   30.9927   24.8339   13.4348 C   0  0  0  0  0  0  0  0  0  0  0  0
   23.6477   34.5086    6.5463 C   0  0  2  0  0  0  0  0  0  0  0  0
   22.5484   35.1842    7.2772 O   0  0  0  0  0  0  0  0  0  0  0  0
   24.1143   29.8178    5.3638 C   0  0  2  0  0  0  0  0  0  0  0  0
   27.1924   27.0345    8.7974 C   0  0  1  0  0  0  0  0  0  0  0  0
   30.7619   27.2233   10.9531 C   0  0  2  0  0  0  0  0  0  0  0  0
   29.4860   27.5298   11.6184 O   0  0  0  0  0  0  0  0  0  0  0  0
   31.2137   23.5338   12.9172 C   0  0  0  0  0  0  0  0  0  0  0  0
   23.0176   33.5477    5.4659 C   0  0  2  0  0  0  0  0  0  0  0  0
   24.1396   32.9160    4.7899 O   0  0  0  0  0  0  0  0  0  0  0  0
   23.7874   28.5351    6.2046 C   0  0  2  0  0  0  0  0  0  0  0  0
   24.9948   28.3111    6.9225 O   0  0  0  0  0  0  0  0  0  0  0  0
   27.6175   28.3026    9.5358 C   0  0  0  0  0  0  0  0  0  0  0  0
   26.6763   29.3492    9.5333 O   0  0  0  0  0  0  0  0  0  0  0  0
   30.9996   28.2495    9.7516 C   0  0  1  0  0  0  0  0  0  0  0  0
   29.9346   28.0136    8.7005 O   0  0  0  0  0  0  0  0  0  0  0  0
   30.2045   22.9333   12.0142 C   0  0  0  0  0  0  0  0  0  0  0  0
   22.1891   34.3636    4.5638 C   0  0  0  0  0  0  0  0  0  0  0  0
   22.9778   35.0106    3.6966 O   0  0  0  0  0  0  0  0  0  0  0  0
   23.4159   27.3205    5.2538 C   0  0  1  0  0  0  0  0  0  0  0  0
   23.1191   26.1953    6.0137 O   0  0  0  0  0  0  0  0  0  0  0  0
   27.2156   23.8354    6.9086 C   0  0  0  0  0  0  0  0  0  0  0  0
   30.9577   29.6790   10.3568 C   0  0  0  0  0  0  0  0  0  0  0  0
   29.8082   29.8340   11.2131 N   0  0  0  0  0  0  0  0  0  0  0  0
   26.9255   23.2186    8.2808 C   0  0  0  0  0  0  0  0  0  0  0  0
   28.0799   23.4814    9.2000 N   0  0  0  0  0  0  0  0  0  0  0  0
   27.8433   23.1272   10.6928 C   0  0  0  0  0  0  0  0  0  0  0  0
  1  2  1  1  0  0  0
  1  9  1  0  0  0  0
  1 35  1  0  0  0  0
  3  4  1  6  0  0  0
  3 11  1  0  0  0  0
  3 45  1  0  0  0  0
  5  6  1  0  0  0  0
  5 12  1  0  0  0  0
  5 37  1  6  0  0  0
  6 30  1  0  0  0  0
  7 14  1  0  0  0  0
  7 41  1  0  0  0  0
  7 23  1  6  0  0  0
  8 16  2  0  0  0  0
  8 42  1  0  0  0  0
  9 10  1  1  0  0  0
  9 18  1  0  0  0  0
 11 20  1  0  0  0  0
 12 13  1  1  0  0  0
 12 22  1  0  0  0  0
 13 47  1  0  0  0  0
 14 15  1  1  0  0  0
 14 24  1  0  0  0  0
 16 17  1  0  0  0  0
 17 26  2  0  0  0  0
 18 19  1  1  0  0  0
 18 27  1  0  0  0  0
 20 21  1  6  0  0  0
 20 29  1  0  0  0  0
 22 23  1  1  0  0  0
 22 30  1  0  0  0  0
 24 25  1  6  0  0  0
 24 31  1  0  0  0  0
 26 33  1  0  0  0  0
 27 28  1  1  0  0  0
 27 34  1  0  0  0  0
 29  2  1  1  0  0  0
 29 36  1  0  0  0  0
 30 38  1  6  0  0  0
 31 32  1  6  0  0  0
 31 40  1  0  0  0  0
 33 42  2  0  0  0  0
 34 35  1  0  0  0  0
 34 43  1  6  0  0  0
 36 37  1  6  0  0  0
 36 45  1  0  0  0  0
 38 39  1  0  0  0  0
 40 41  1  0  0  0  0
 40 48  1  1  0  0  0
 43 44  1  0  0  0  0
 45 46  1  1  0  0  0
 47 50  1  0  0  0  0
 48 49  1  0  0  0  0
 50 51  1  0  0  0  0
 51 52  1  0  0  0  0
 52  8  1  0  0  0  0
M  END
>  <CHROM.1>
-164.67989848,-132.91326327,80.46791897,-138.59161459,114.71142012,-156.01691845
-75.61853216,-23.69453713,77.87401540,-155.54336727,-47.90811938,-114.75793722
170.25665427,-168.16489902,89.48812480,26.62980281,28.31029838,7.96906202
-2.47738707,0.74053407,-3.08047506

>  <Name>
2be0_lig

>  <RI>
0

>  <Rbt.Current_Directory>
/home/itssahil/PROJECTS/Mol_Feturizer/New_Systems/rnas/2be0

>  <Rbt.Executable>
rbdock ($Id: //depot/dev/client3/rdock/2013.1/src/exe/rbdock.cxx#4 $)

>  <Rbt.Library>
libRbt.so (2013.1, Build901 2013/11/27)

>  <Rbt.Parameter_File>
/export/apps/rDock/src/rDock_2013.1_src/data/scripts/dock_solv.prm

>  <Rbt.Receptor>
prm/blind_docking_80.prm

>  <SCORE>
120.082

>  <SCORE.INTER>
60.9752

>  <SCORE.INTER.CONST>
1

>  <SCORE.INTER.POLAR>
-0.988451

>  <SCORE.INTER.ROT>
15

>  <SCORE.INTER.SOLV>
39.8442

>  <SCORE.INTER.VDW>
17.0636

>  <SCORE.INTER.norm>
1.1726

>  <SCORE.INTRA>
39.8914

>  <SCORE.INTRA.DIHEDRAL>
-8.42239

>  <SCORE.INTRA.DIHEDRAL.0>
47.8724

>  <SCORE.INTRA.POLAR>
0

>  <SCORE.INTRA.POLAR.0>
0

>  <SCORE.INTRA.REPUL>
0.199281

>  <SCORE.INTRA.REPUL.0>
0

>  <SCORE.INTRA.SOLV>
18.6709

>  <SCORE.INTRA.SOLV.lig_0>
-115.677

>  <SCORE.INTRA.VDW>
33.7708

>  <SCORE.INTRA.VDW.0>
-7.4833

>  <SCORE.INTRA.norm>
0.767143

>  <SCORE.RESTR>
19.2156

>  <SCORE.RESTR.CAVITY>
19.2156

>  <SCORE.RESTR.norm>
0.36953

>  <SCORE.SYSTEM>
0

>  <SCORE.SYSTEM.CONST>
0

>  <SCORE.SYSTEM.DIHEDRAL>
0

>  <SCORE.SYSTEM.SOLV>
0

>  <SCORE.SYSTEM.norm>
0

>  <SCORE.heavy>
52

>  <SCORE.norm>
2.30927

>  <RMSD>
32.122

$$$$
2be0_lig
 OpenBabel11021811423D
libRbt.so/2013.1/901 2013/11/27
 52 56  0  0  0  0  0  0  0  0999 V2000
   27.8659   25.9417    8.6053 C   0  0  2  0  0  0  0  0  0  0  0  0
   28.0798   25.2404    7.4031 O   0  0  0  0  0  0  0  0  0  0  0  0
   25.8386   24.5114    3.6861 C   0  0  2  0  0  0  0  0  0  0  0  0
   24.6883   24.2311    2.7818 N   0  0  0  0  0  0  0  0  0  0  0  0
   25.4580   27.9798    6.2016 C   0  0  2  0  0  0  0  0  0  0  0  0
   25.4867   29.1329    7.0676 O   0  0  0  0  0  0  0  0  0  0  0  0
   23.7502   25.7246   10.0068 C   0  0  1  0  0  0  0  0  0  0  0  0
   22.9472   32.5118    5.3967 C   0  0  0  0  0  0  0  0  0  0  0  0
   29.2355   26.2804    9.3229 C   0  0  2  0  0  0  0  0  0  0  0  0
   30.1173   26.9936    8.3964 N   0  0  0  0  0  0  0  0  0  0  0  0
   25.9396   23.3516    4.7782 C   0  0  0  0  0  0  0  0  0  0  0  0
   24.3604   27.0484    6.7404 C   0  0  2  0  0  0  0  0  0  0  0  0
   23.1122   27.5766    6.1075 O   0  0  0  0  0  0  0  0  0  0  0  0
   22.6129   24.6229    9.6406 C   0  0  2  0  0  0  0  0  0  0  0  0
   21.2629   25.2464    9.8258 N   0  0  0  0  0  0  0  0  0  0  0  0
   22.6857   33.9175    5.2954 C   0  0  0  0  0  0  0  0  0  0  0  0
   23.3892   34.8256    6.1295 N   0  0  0  0  0  0  0  0  0  0  0  0
   29.9038   24.9344    9.8683 C   0  0  1  0  0  0  0  0  0  0  0  0
   31.1323   25.2586   10.5005 O   0  0  0  0  0  0  0  0  0  0  0  0
   27.1832   23.6296    5.8010 C   0  0  2  0  0  0  0  0  0  0  0  0
   27.2863   22.5916    6.7875 N   0  0  0  0  0  0  0  0  0  0  0  0
   24.5987   27.2513    8.2486 C   0  0  2  0  0  0  0  0  0  0  0  0
   23.5582   26.8464    9.1262 O   0  0  0  0  0  0  0  0  0  0  0  0
   22.8001   23.4064   10.5967 C   0  0  1  0  0  0  0  0  0  0  0  0
   24.1418   22.8682   10.3183 O   0  0  0  0  0  0  0  0  0  0  0  0
   24.3604   34.4086    7.0839 C   0  0  0  0  0  0  0  0  0  0  0  0
   28.9092   24.2506   10.8510 C   0  0  2  0  0  0  0  0  0  0  0  0
   29.4741   22.9895   11.3891 O   0  0  0  0  0  0  0  0  0  0  0  0
   26.9854   25.0273    6.5199 C   0  0  2  0  0  0  0  0  0  0  0  0
   24.9592   28.7522    8.3550 C   0  0  1  0  0  0  0  0  0  0  0  0
   22.6702   23.8901   12.1443 C   0  0  2  0  0  0  0  0  0  0  0  0
   21.3317   24.4297   12.4299 O   0  0  0  0  0  0  0  0  0  0  0  0
   24.6618   33.0319    7.2282 C   0  0  0  0  0  0  0  0  0  0  0  0
   27.5518   23.9217   10.1184 C   0  0  2  0  0  0  0  0  0  0  0  0
   27.0528   25.1906    9.6127 O   0  0  0  0  0  0  0  0  0  0  0  0
   26.8816   26.1264    5.4063 C   0  0  2  0  0  0  0  0  0  0  0  0
   26.7210   27.3237    6.1573 O   0  0  0  0  0  0  0  0  0  0  0  0
   26.0583   29.0162    9.3829 C   0  0  0  0  0  0  0  0  0  0  0  0
   26.5445   30.3365    9.4241 O   0  0  0  0  0  0  0  0  0  0  0  0
   23.7733   25.0058   12.4466 C   0  0  1  0  0  0  0  0  0  0  0  0
   23.5850   26.1454   11.4667 O   0  0  0  0  0  0  0  0  0  0  0  0
   23.9542   32.0436    6.3815 C   0  0  0  0  0  0  0  0  0  0  0  0
   26.6483   23.2991   11.0992 C   0  0  0  0  0  0  0  0  0  0  0  0
   26.1140   24.2477   11.8787 O   0  0  0  0  0  0  0  0  0  0  0  0
   25.6470   25.8425    4.4510 C   0  0  1  0  0  0  0  0  0  0  0  0
   25.5749   26.8186    3.4643 O   0  0  0  0  0  0  0  0  0  0  0  0
   22.7471   28.9866    5.8340 C   0  0  0  0  0  0  0  0  0  0  0  0
   23.5945   25.4353   13.9282 C   0  0  0  0  0  0  0  0  0  0  0  0
   24.6253   24.8551   14.7526 N   0  0  0  0  0  0  0  0  0  0  0  0
   23.7485   29.5228    4.8059 C   0  0  0  0  0  0  0  0  0  0  0  0
   23.0331   30.3994    3.8228 N   0  0  0  0  0  0  0  0  0  0  0  0
   22.1375   31.5076    4.4395 C   0  0  0  0  0  0  0  0  0  0  0  0
  1  2  1  6  0  0  0
  1  9  1  0  0  0  0
  1 35  1  0  0  0  0
  3  4  1  6  0  0  0
  3 11  1  0  0  0  0
  3 45  1  0  0  0  0
  5  6  1  0  0  0  0
  5 12  1  0  0  0  0
  5 37  1  1  0  0  0
  6 30  1  0  0  0  0
  7 14  1  0  0  0  0
  7 41  1  0  0  0  0
  7 23  1  6  0  0  0
  8 16  2  0  0  0  0
  8 42  1  0  0  0  0
  9 10  1  6  0  0  0
  9 18  1  0  0  0  0
 11 20  1  0  0  0  0
 12 13  1  6  0  0  0
 12 22  1  0  0  0  0
 13 47  1  0  0  0  0
 14 15  1  1  0  0  0
 14 24  1  0  0  0  0
 16 17  1  0  0  0  0
 17 26  2  0  0  0  0
 18 19  1  1  0  0  0
 18 27  1  0  0  0  0
 20 21  1  1  0  0  0
 20 29  1  0  0  0  0
 22 23  1  1  0  0  0
 22 30  1  0  0  0  0
 24 25  1  1  0  0  0
 24 31  1  0  0  0  0
 26 33  1  0  0  0  0
 27 28  1  6  0  0  0
 27 34  1  0  0  0  0
 29  2  1  1  0  0  0
 29 36  1  0  0  0  0
 30 38  1  1  0  0  0
 31 32  1  6  0  0  0
 31 40  1  0  0  0  0
 33 42  2  0  0  0  0
 34 35  1  0  0  0  0
 34 43  1  1  0  0  0
 36 37  1  1  0  0  0
 36 45  1  0  0  0  0
 38 39  1  0  0  0  0
 40 41  1  0  0  0  0
 40 48  1  1  0  0  0
 43 44  1  0  0  0  0
 45 46  1  6  0  0  0
 47 50  1  0  0  0  0
 48 49  1  0  0  0  0
 50 51  1  0  0  0  0
 51 52  1  0  0  0  0
 52  8  1  0  0  0  0
M  END
>  <CHROM.1>
-170.54958893,177.06245018,-120.37633746,-36.93051610,64.63318754,112.03060577
-146.57279326,56.75842659,78.62151518,-107.08506277,104.05320290,140.65905090
50.78153484,58.34613404,136.86843151,25.34341140,26.77513995,8.18848804,-1.16749837
0.79989282,-0.93963896

>  <Name>
2be0_lig

>  <RI>
0

>  <Rbt.Current_Directory>
/home/itssahil/PROJECTS/Mol_Feturizer/New_Systems/rnas/2be0

>  <Rbt.Executable>
rbdock ($Id: //depot/dev/client3/rdock/2013.1/src/exe/rbdock.cxx#4 $)

>  <Rbt.Library>
libRbt.so (2013.1, Build901 2013/11/27)

>  <Rbt.Parameter_File>
/export/apps/rDock/src/rDock_2013.1_src/data/scripts/dock_solv.prm

>  <Rbt.Receptor>
prm/blind_docking_80.prm

>  <SCORE>
70.2807

>  <SCORE.INTER>
34.7859

>  <SCORE.INTER.CONST>
1

>  <SCORE.INTER.POLAR>
-0.935694

>  <SCORE.INTER.ROT>
15

>  <SCORE.INTER.SOLV>
32.4039

>  <SCORE.INTER.VDW>
1.90833

>  <SCORE.INTER.norm>
0.66896

>  <SCORE.INTRA>
4.36704

>  <SCORE.INTRA.DIHEDRAL>
-9.60174

>  <SCORE.INTRA.DIHEDRAL.0>
47.8724

>  <SCORE.INTRA.POLAR>
0

>  <SCORE.INTRA.POLAR.0>
0

>  <SCORE.INTRA.REPUL>
0.000924439

>  <SCORE.INTRA.REPUL.0>
0

>  <SCORE.INTRA.SOLV>
0.410239

>  <SCORE.INTRA.SOLV.lig_0>
-115.677

>  <SCORE.INTRA.VDW>
8.95817

>  <SCORE.INTRA.VDW.0>
-7.4833

>  <SCORE.INTRA.norm>
0.0839815

>  <SCORE.RESTR>
31.1278

>  <SCORE.RESTR.CAVITY>
31.1278

>  <SCORE.RESTR.norm>
0.598611

>  <SCORE.SYSTEM>
0

>  <SCORE.SYSTEM.CONST>
0

>  <SCORE.SYSTEM.DIHEDRAL>
0

>  <SCORE.SYSTEM.SOLV>
0

>  <SCORE.SYSTEM.norm>
0

>  <SCORE.heavy>
52

>  <SCORE.norm>
1.35155

>  <RMSD>
32.168

$$$$
2be0_lig
 OpenBabel11021811423D
libRbt.so/2013.1/901 2013/11/27
 52 56  0  0  0  0  0  0  0  0999 V2000
   23.7468   27.3718    9.2733 C   0  0  2  0  0  0  0  0  0  0  0  0
   23.3234   28.6608    9.6503 O   0  0  0  0  0  0  0  0  0  0  0  0
   24.2750   31.6837    6.5962 C   0  0  2  0  0  0  0  0  0  0  0  0
   24.8572   32.9073    5.9771 N   0  0  0  0  0  0  0  0  0  0  0  0
   26.7132   27.9824    7.3884 C   0  0  2  0  0  0  0  0  0  0  0  0
   26.2527   27.9322    6.0225 O   0  0  0  0  0  0  0  0  0  0  0  0
   26.3737   23.5509    7.9945 C   0  0  1  0  0  0  0  0  0  0  0  0
   31.7644   26.8769   11.4833 C   0  0  0  0  0  0  0  0  0  0  0  0
   22.7099   26.6931    8.2884 C   0  0  2  0  0  0  0  0  0  0  0  0
   22.4675   27.5714    7.1419 N   0  0  0  0  0  0  0  0  0  0  0  0
   23.4069   32.1040    7.8682 C   0  0  0  0  0  0  0  0  0  0  0  0
   27.0719   26.5422    7.7882 C   0  0  2  0  0  0  0  0  0  0  0  0
   28.4775   26.3842    7.3017 O   0  0  0  0  0  0  0  0  0  0  0  0
   24.9752   23.2777    8.7761 C   0  0  2  0  0  0  0  0  0  0  0  0
   24.4087   24.5920    9.2207 N   0  0  0  0  0  0  0  0  0  0  0  0
   32.1006   25.4979   11.6840 C   0  0  0  0  0  0  0  0  0  0  0  0
   31.6148   24.8151   12.8298 N   0  0  0  0  0  0  0  0  0  0  0  0
   21.3617   26.3539    9.0778 C   0  0  1  0  0  0  0  0  0  0  0  0
   20.4441   25.7540    8.1767 O   0  0  0  0  0  0  0  0  0  0  0  0
   22.7608   30.7860    8.5861 C   0  0  2  0  0  0  0  0  0  0  0  0
   21.9752   31.1509    9.7311 N   0  0  0  0  0  0  0  0  0  0  0  0
   25.9257   25.8058    7.0692 C   0  0  2  0  0  0  0  0  0  0  0  0
   26.0785   24.4072    6.8764 O   0  0  0  0  0  0  0  0  0  0  0  0
   25.2819   22.3616    9.9991 C   0  0  1  0  0  0  0  0  0  0  0  0
   25.8131   21.1044    9.4471 O   0  0  0  0  0  0  0  0  0  0  0  0
   30.7953   25.4379   13.8139 C   0  0  0  0  0  0  0  0  0  0  0  0
   21.7077   25.4104   10.2662 C   0  0  2  0  0  0  0  0  0  0  0  0
   20.4924   25.0625   11.0416 O   0  0  0  0  0  0  0  0  0  0  0  0
   23.9149   29.7951    9.0283 C   0  0  2  0  0  0  0  0  0  0  0  0
   25.7565   26.6044    5.7548 C   0  0  1  0  0  0  0  0  0  0  0  0
   26.3672   23.0804   10.9744 C   0  0  2  0  0  0  0  0  0  0  0  0
   25.8431   24.3380   11.5296 O   0  0  0  0  0  0  0  0  0  0  0  0
   30.4292   26.7987   13.6687 C   0  0  0  0  0  0  0  0  0  0  0  0
   22.7414   26.1034   11.2350 C   0  0  2  0  0  0  0  0  0  0  0  0
   23.9024   26.4218   10.4193 O   0  0  0  0  0  0  0  0  0  0  0  0
   24.7412   29.4232    7.7485 C   0  0  2  0  0  0  0  0  0  0  0  0
   25.7273   28.5325    8.2561 O   0  0  0  0  0  0  0  0  0  0  0  0
   24.2918   26.7500    5.3458 C   0  0  0  0  0  0  0  0  0  0  0  0
   23.6395   25.5535    4.9933 O   0  0  0  0  0  0  0  0  0  0  0  0
   27.7063   23.3739   10.1539 C   0  0  1  0  0  0  0  0  0  0  0  0
   27.3559   24.2258    8.9513 O   0  0  0  0  0  0  0  0  0  0  0  0
   30.9114   27.5560   12.4904 C   0  0  0  0  0  0  0  0  0  0  0  0
   23.0450   25.1590   12.3223 C   0  0  0  0  0  0  0  0  0  0  0  0
   23.9613   25.6965   13.1372 O   0  0  0  0  0  0  0  0  0  0  0  0
   25.3785   30.7211    7.0953 C   0  0  1  0  0  0  0  0  0  0  0  0
   26.0983   30.3763    5.9575 O   0  0  0  0  0  0  0  0  0  0  0  0
   29.6610   25.9047    8.0538 C   0  0  0  0  0  0  0  0  0  0  0  0
   28.6966   24.0673   11.1286 C   0  0  0  0  0  0  0  0  0  0  0  0
   29.5781   23.0981   11.7308 N   0  0  0  0  0  0  0  0  0  0  0  0
   30.1274   27.0580    8.9480 C   0  0  0  0  0  0  0  0  0  0  0  0
   31.6194   27.1786    8.8691 N   0  0  0  0  0  0  0  0  0  0  0  0
   32.3269   27.6238   10.1772 C   0  0  0  0  0  0  0  0  0  0  0  0
  1  2  1  1  0  0  0
  1  9  1  0  0  0  0
  1 35  1  0  0  0  0
  3  4  1  1  0  0  0
  3 11  1  0  0  0  0
  3 45  1  0  0  0  0
  5  6  1  0  0  0  0
  5 12  1  0  0  0  0
  5 37  1  1  0  0  0
  6 30  1  0  0  0  0
  7 14  1  0  0  0  0
  7 41  1  0  0  0  0
  7 23  1  6  0  0  0
  8 16  2  0  0  0  0
  8 42  1  0  0  0  0
  9 10  1  6  0  0  0
  9 18  1  0  0  0  0
 11 20  1  0  0  0  0
 12 13  1  6  0  0  0
 12 22  1  0  0  0  0
 13 47  1  0  0  0  0
 14 15  1  1  0  0  0
 14 24  1  0  0  0  0
 16 17  1  0  0  0  0
 17 26  2  0  0  0  0
 18 19  1  6  0  0  0
 18 27  1  0  0  0  0
 20 21  1  1  0  0  0
 20 29  1  0  0  0  0
 22 23  1  6  0  0  0
 22 30  1  0  0  0  0
 24 25  1  6  0  0  0
 24 31  1  0  0  0  0
 26 33  1  0  0  0  0
 27 28  1  1  0  0  0
 27 34  1  0  0  0  0
 29  2  1  6  0  0  0
 29 36  1  0  0  0  0
 30 38  1  1  0  0  0
 31 32  1  6  0  0  0
 31 40  1  0  0  0  0
 33 42  2  0  0  0  0
 34 35  1  0  0  0  0
 34 43  1  1  0  0  0
 36 37  1  1  0  0  0
 36 45  1  0  0  0  0
 38 39  1  0  0  0  0
 40 41  1  0  0  0  0
 40 48  1  1  0  0  0
 43 44  1  0  0  0  0
 45 46  1  6  0  0  0
 47 50  1  0  0  0  0
 48 49  1  0  0  0  0
 50 51  1  0  0  0  0
 51 52  1  0  0  0  0
 52  8  1  0  0  0  0
M  END
>  <CHROM.1>
-101.74264609,-25.55031317,80.11310037,128.65304267,-77.16676315,53.40767409
132.74987714,177.75220822,177.62218503,-178.61527654,94.54612245,-135.61102466
-145.71653109,43.83551219,72.79110044,25.92587870,26.58319254,9.15001662
2.56257770,-0.16266892,-0.51629540

>  <Name>
2be0_lig

>  <RI>
0

>  <Rbt.Current_Directory>
/home/itssahil/PROJECTS/Mol_Feturizer/New_Systems/rnas/2be0

>  <Rbt.Executable>
rbdock ($Id: //depot/dev/client3/rdock/2013.1/src/exe/rbdock.cxx#4 $)

>  <Rbt.Library>
libRbt.so (2013.1, Build901 2013/11/27)

>  <Rbt.Parameter_File>
/export/apps/rDock/src/rDock_2013.1_src/data/scripts/dock_solv.prm

>  <Rbt.Receptor>
prm/blind_docking_80.prm

>  <SCORE>
35.272

>  <SCORE.INTER>
-7.60147

>  <SCORE.INTER.CONST>
1

>  <SCORE.INTER.POLAR>
-0.890299

>  <SCORE.INTER.ROT>
15

>  <SCORE.INTER.SOLV>
26.5708

>  <SCORE.INTER.VDW>
-24.5569

>  <SCORE.INTER.norm>
-0.146182

>  <SCORE.INTRA>
8.83967

>  <SCORE.INTRA.DIHEDRAL>
-11.8044

>  <SCORE.INTRA.DIHEDRAL.0>
47.8724

>  <SCORE.INTRA.POLAR>
0

>  <SCORE.INTRA.POLAR.0>
0

>  <SCORE.INTRA.REPUL>
0.407154

>  <SCORE.INTRA.REPUL.0>
0

>  <SCORE.INTRA.SOLV>
12.4705

>  <SCORE.INTRA.SOLV.lig_0>
-115.677

>  <SCORE.INTRA.VDW>
6.47086

>  <SCORE.INTRA.VDW.0>
-7.4833

>  <SCORE.INTRA.norm>
0.169994

>  <SCORE.RESTR>
34.0338

>  <SCORE.RESTR.CAVITY>
34.0338

>  <SCORE.RESTR.norm>
0.654496

>  <SCORE.SYSTEM>
0

>  <SCORE.SYSTEM.CONST>
0

>  <SCORE.SYSTEM.DIHEDRAL>
0

>  <SCORE.SYSTEM.SOLV>
0

>  <SCORE.SYSTEM.norm>
0

>  <SCORE.heavy>
52

>  <SCORE.norm>
0.678308

>  <RMSD>
32.184

$$$$
2be0_lig
 OpenBabel11021811423D
libRbt.so/2013.1/901 2013/11/27
 52 56  0  0  0  0  0  0  0  0999 V2000
   29.0410   24.9670    9.2193 C   0  0  2  0  0  0  0  0  0  0  0  0
   27.6661   25.2530    9.3231 O   0  0  0  0  0  0  0  0  0  0  0  0
   26.5368   25.0974    5.0721 C   0  0  2  0  0  0  0  0  0  0  0  0
   25.6791   24.9901    3.8586 N   0  0  0  0  0  0  0  0  0  0  0  0
   25.4407   27.6457    8.5908 C   0  0  2  0  0  0  0  0  0  0  0  0
   24.4193   27.4384    7.5938 O   0  0  0  0  0  0  0  0  0  0  0  0
   23.6797   31.7627    6.9100 C   0  0  1  0  0  0  0  0  0  0  0  0
   23.7613   24.0756   10.2739 C   0  0  0  0  0  0  0  0  0  0  0  0
   29.6362   24.5008   10.6100 C   0  0  2  0  0  0  0  0  0  0  0  0
   28.8575   23.3746   11.1297 N   0  0  0  0  0  0  0  0  0  0  0  0
   26.3077   23.8111    5.9893 C   0  0  0  0  0  0  0  0  0  0  0  0
   25.1966   29.0391    9.1920 C   0  0  2  0  0  0  0  0  0  0  0  0
   24.1807   28.7858   10.2602 O   0  0  0  0  0  0  0  0  0  0  0  0
   24.8202   31.5941    5.7644 C   0  0  2  0  0  0  0  0  0  0  0  0
   26.1170   32.1249    6.2957 N   0  0  0  0  0  0  0  0  0  0  0  0
   24.7739   24.7594   11.0236 C   0  0  0  0  0  0  0  0  0  0  0  0
   26.0129   24.1164   11.2812 N   0  0  0  0  0  0  0  0  0  0  0  0
   29.6558   25.7343   11.6268 C   0  0  1  0  0  0  0  0  0  0  0  0
   30.1850   25.2941   12.8679 O   0  0  0  0  0  0  0  0  0  0  0  0
   27.2218   23.8968    7.3409 C   0  0  2  0  0  0  0  0  0  0  0  0
   27.0265   22.7439    8.1740 N   0  0  0  0  0  0  0  0  0  0  0  0
   24.7864   29.7818    7.9063 C   0  0  2  0  0  0  0  0  0  0  0  0
   24.1215   31.0265    8.0647 O   0  0  0  0  0  0  0  0  0  0  0  0
   24.3613   32.3985    4.5108 C   0  0  1  0  0  0  0  0  0  0  0  0
   23.0982   31.7847    4.0690 O   0  0  0  0  0  0  0  0  0  0  0  0
   26.3123   22.8000   10.8279 C   0  0  0  0  0  0  0  0  0  0  0  0
   30.5114   26.8756   11.0043 C   0  0  2  0  0  0  0  0  0  0  0  0
   30.5637   28.0536   11.9036 O   0  0  0  0  0  0  0  0  0  0  0  0
   26.8575   25.2068    8.1538 C   0  0  2  0  0  0  0  0  0  0  0  0
   23.9631   28.7260    7.1307 C   0  0  1  0  0  0  0  0  0  0  0  0
   24.1497   33.9634    4.9007 C   0  0  2  0  0  0  0  0  0  0  0  0
   25.4082   34.5834    5.3436 O   0  0  0  0  0  0  0  0  0  0  0  0
   25.3508   22.0754   10.0812 C   0  0  0  0  0  0  0  0  0  0  0  0
   29.9034   27.3258    9.6204 C   0  0  2  0  0  0  0  0  0  0  0  0
   29.8753   26.1328    8.7891 O   0  0  0  0  0  0  0  0  0  0  0  0
   27.0888   26.4355    7.2074 C   0  0  2  0  0  0  0  0  0  0  0  0
   26.7475   27.5410    8.0349 O   0  0  0  0  0  0  0  0  0  0  0  0
   24.2216   28.7757    5.6258 C   0  0  0  0  0  0  0  0  0  0  0  0
   23.2085   29.3786    4.8568 O   0  0  0  0  0  0  0  0  0  0  0  0
   23.0581   34.0787    6.0616 C   0  0  1  0  0  0  0  0  0  0  0  0
   23.5201   33.2464    7.2399 O   0  0  0  0  0  0  0  0  0  0  0  0
   24.0413   22.7020    9.7864 C   0  0  0  0  0  0  0  0  0  0  0  0
   30.7635   28.3871    9.0727 C   0  0  0  0  0  0  0  0  0  0  0  0
   31.9737   27.8838    8.7991 O   0  0  0  0  0  0  0  0  0  0  0  0
   26.1643   26.3354    5.9218 C   0  0  1  0  0  0  0  0  0  0  0  0
   26.3883   27.4253    5.0890 O   0  0  0  0  0  0  0  0  0  0  0  0
   23.4425   27.5331   10.5469 C   0  0  0  0  0  0  0  0  0  0  0  0
   22.9069   35.5872    6.3984 C   0  0  0  0  0  0  0  0  0  0  0  0
   22.0622   36.2410    5.4301 N   0  0  0  0  0  0  0  0  0  0  0  0
   22.4146   27.3463    9.4263 C   0  0  0  0  0  0  0  0  0  0  0  0
   22.4822   25.9382    8.9170 N   0  0  0  0  0  0  0  0  0  0  0  0
   22.3695   24.8280    9.9963 C   0  0  0  0  0  0  0  0  0  0  0  0
  1  2  1  1  0  0  0
  1  9  1  0  0  0  0
  1 35  1  0  0  0  0
  3  4  1  6  0  0  0
  3 11  1  0  0  0  0
  3 45  1  0  0  0  0
  5  6  1  0  0  0  0
  5 12  1  0  0  0  0
  5 37  1  6  0  0  0
  6 30  1  0  0  0  0
  7 14  1  0  0  0  0
  7 41  1  0  0  0  0
  7 23  1  1  0  0  0
  8 16  2  0  0  0  0
  8 42  1  0  0  0  0
  9 10  1  1  0  0  0
  9 18  1  0  0  0  0
 11 20  1  0  0  0  0
 12 13  1  1  0  0  0
 12 22  1  0  0  0  0
 13 47  1  0  0  0  0
 14 15  1  1  0  0  0
 14 24  1  0  0  0  0
 16 17  1  0  0  0  0
 17 26  2  0  0  0  0
 18 19  1  1  0  0  0
 18 27  1  0  0  0  0
 20 21  1  1  0  0  0
 20 29  1  0  0  0  0
 22 23  1  1  0  0  0
 22 30  1  0  0  0  0
 24 25  1  1  0  0  0
 24 31  1  0  0  0  0
 26 33  1  0  0  0  0
 27 28  1  1  0  0  0
 27 34  1  0  0  0  0
 29  2  1  1  0  0  0
 29 36  1  0  0  0  0
 30 38  1  6  0  0  0
 31 32  1  1  0  0  0
 31 40  1  0  0  0  0
 33 42  2  0  0  0  0
 34 35  1  0  0  0  0
 34 43  1  6  0  0  0
 36 37  1  1  0  0  0
 36 45  1  0  0  0  0
 38 39  1  0  0  0  0
 40 41  1  0  0  0  0
 40 48  1  1  0  0  0
 43 44  1  0  0  0  0
 45 46  1  6  0  0  0
 47 50  1  0  0  0  0
 48 49  1  0  0  0  0
 50 51  1  0  0  0  0
 51 52  1  0  0  0  0
 52  8  1  0  0  0  0
M  END
>  <CHROM.1>
-157.13496853,-48.62914379,-38.32632450,-7.72150167,-72.19032838,-178.52773933
44.98173144,139.83761930,65.03573665,-59.63017449,79.79755412,132.39862895
52.60218367,-107.60335315,74.43697202,25.94953262,27.78548860,8.12462027
-1.11823142,-0.35340486,-0.30094270

>  <Name>
2be0_lig

>  <RI>
0

>  <Rbt.Current_Directory>
/home/itssahil/PROJECTS/Mol_Feturizer/New_Systems/rnas/2be0

>  <Rbt.Executable>
rbdock ($Id: //depot/dev/client3/rdock/2013.1/src/exe/rbdock.cxx#4 $)

>  <Rbt.Library>
libRbt.so (2013.1, Build901 2013/11/27)

>  <Rbt.Parameter_File>
/export/apps/rDock/src/rDock_2013.1_src/data/scripts/dock_solv.prm

>  <Rbt.Receptor>
prm/blind_docking_80.prm

>  <SCORE>
24.9341

>  <SCORE.INTER>
1.30159

>  <SCORE.INTER.CONST>
1

>  <SCORE.INTER.POLAR>
-0.336164

>  <SCORE.INTER.ROT>
15

>  <SCORE.INTER.SOLV>
30.5352

>  <SCORE.INTER.VDW>
-21.7901

>  <SCORE.INTER.norm>
0.0250306

>  <SCORE.INTRA>
5.05943

>  <SCORE.INTRA.DIHEDRAL>
-22.422

>  <SCORE.INTRA.DIHEDRAL.0>
47.8724

>  <SCORE.INTRA.POLAR>
0

>  <SCORE.INTRA.POLAR.0>
0

>  <SCORE.INTRA.REPUL>
0

>  <SCORE.INTRA.REPUL.0>
0

>  <SCORE.INTRA.SOLV>
10.8463

>  <SCORE.INTRA.SOLV.lig_0>
-115.677

>  <SCORE.INTRA.VDW>
10.8473

>  <SCORE.INTRA.VDW.0>
-7.4833

>  <SCORE.INTRA.norm>
0.0972967

>  <SCORE.RESTR>
18.5731

>  <SCORE.RESTR.CAVITY>
18.5731

>  <SCORE.RESTR.norm>
0.357175

>  <SCORE.SYSTEM>
0

>  <SCORE.SYSTEM.CONST>
0

>  <SCORE.SYSTEM.DIHEDRAL>
0

>  <SCORE.SYSTEM.SOLV>
0

>  <SCORE.SYSTEM.norm>
0

>  <SCORE.heavy>
52

>  <SCORE.norm>
0.479502

>  <RMSD>
32.194

$$$$
2be0_lig
 OpenBabel11021811423D
libRbt.so/2013.1/901 2013/11/27
 52 56  0  0  0  0  0  0  0  0999 V2000
   27.0997   23.5148    8.3354 C   0  0  2  0  0  0  0  0  0  0  0  0
   26.6363   24.6781    7.6913 O   0  0  0  0  0  0  0  0  0  0  0  0
   25.1924   25.2965    3.5799 C   0  0  2  0  0  0  0  0  0  0  0  0
   24.3865   25.1111    2.3407 N   0  0  0  0  0  0  0  0  0  0  0  0
   24.9860   26.8751    8.3489 C   0  0  2  0  0  0  0  0  0  0  0  0
   23.9952   27.4529    9.2235 O   0  0  0  0  0  0  0  0  0  0  0  0
   24.7159   31.4509    6.8991 C   0  0  1  0  0  0  0  0  0  0  0  0
   31.5537   27.3067   11.5382 C   0  0  0  0  0  0  0  0  0  0  0  0
   26.2318   23.1850    9.6175 C   0  0  2  0  0  0  0  0  0  0  0  0
   24.8161   23.1080    9.2511 N   0  0  0  0  0  0  0  0  0  0  0  0
   25.8855   23.9110    3.9649 C   0  0  0  0  0  0  0  0  0  0  0  0
   25.9234   28.0174    7.9258 C   0  0  2  0  0  0  0  0  0  0  0  0
   26.9195   28.0828    9.0397 O   0  0  0  0  0  0  0  0  0  0  0  0
   25.8589   32.5032    6.4223 C   0  0  2  0  0  0  0  0  0  0  0  0
   26.4723   33.1296    7.6377 N   0  0  0  0  0  0  0  0  0  0  0  0
   30.9840   25.9971   11.6622 C   0  0  0  0  0  0  0  0  0  0  0  0
   30.9374   25.3681   12.9339 N   0  0  0  0  0  0  0  0  0  0  0  0
   26.4989   24.2864   10.7451 C   0  0  1  0  0  0  0  0  0  0  0  0
   25.7069   23.9773   11.8814 O   0  0  0  0  0  0  0  0  0  0  0  0
   26.7697   24.0685    5.3299 C   0  0  2  0  0  0  0  0  0  0  0  0
   27.4006   22.8289    5.6860 N   0  0  0  0  0  0  0  0  0  0  0  0
   24.8760   29.1359    7.7689 C   0  0  2  0  0  0  0  0  0  0  0  0
   25.3584   30.4710    7.7344 O   0  0  0  0  0  0  0  0  0  0  0  0
   25.1744   33.5796    5.5268 C   0  0  1  0  0  0  0  0  0  0  0  0
   24.6262   32.8593    4.3657 O   0  0  0  0  0  0  0  0  0  0  0  0
   31.4377   25.9781   14.1195 C   0  0  0  0  0  0  0  0  0  0  0  0
   28.0183   24.2920   11.0819 C   0  0  2  0  0  0  0  0  0  0  0  0
   28.3295   25.3008   12.1234 O   0  0  0  0  0  0  0  0  0  0  0  0
   25.8410   24.5520    6.5187 C   0  0  2  0  0  0  0  0  0  0  0  0
   23.8817   28.8588    8.9216 C   0  0  1  0  0  0  0  0  0  0  0  0
   23.9978   34.3313    6.3614 C   0  0  2  0  0  0  0  0  0  0  0  0
   24.5384   35.0531    7.5237 O   0  0  0  0  0  0  0  0  0  0  0  0
   32.0111   27.2721   14.0590 C   0  0  0  0  0  0  0  0  0  0  0  0
   28.8655   24.6217    9.7931 C   0  0  2  0  0  0  0  0  0  0  0  0
   28.5150   23.6055    8.8136 O   0  0  0  0  0  0  0  0  0  0  0  0
   25.1785   25.9060    6.0866 C   0  0  2  0  0  0  0  0  0  0  0  0
   24.3884   26.2475    7.2191 O   0  0  0  0  0  0  0  0  0  0  0  0
   22.4312   29.1114    8.5135 C   0  0  0  0  0  0  0  0  0  0  0  0
   22.1412   30.4211    8.0873 O   0  0  0  0  0  0  0  0  0  0  0  0
   22.9234   33.2550    6.8514 C   0  0  1  0  0  0  0  0  0  0  0  0
   23.6376   32.2046    7.6768 O   0  0  0  0  0  0  0  0  0  0  0  0
   32.0842   27.9709   12.7549 C   0  0  0  0  0  0  0  0  0  0  0  0
   30.2885   24.5915   10.1678 C   0  0  0  0  0  0  0  0  0  0  0  0
   31.0317   24.9969    9.1305 O   0  0  0  0  0  0  0  0  0  0  0  0
   24.3042   25.7101    4.7771 C   0  0  1  0  0  0  0  0  0  0  0  0
   23.7327   26.9200    4.4016 O   0  0  0  0  0  0  0  0  0  0  0  0
   28.3505   28.4620    8.9707 C   0  0  0  0  0  0  0  0  0  0  0  0
   21.8356   34.0255    7.6480 C   0  0  0  0  0  0  0  0  0  0  0  0
   21.3613   35.1588    6.8933 N   0  0  0  0  0  0  0  0  0  0  0  0
   29.1548   27.3086    9.5790 C   0  0  0  0  0  0  0  0  0  0  0  0
   30.5713   27.3776    9.0936 N   0  0  0  0  0  0  0  0  0  0  0  0
   31.5919   27.9949   10.0873 C   0  0  0  0  0  0  0  0  0  0  0  0
  1  2  1  1  0  0  0
  1  9  1  0  0  0  0
  1 35  1  0  0  0  0
  3  4  1  6  0  0  0
  3 11  1  0  0  0  0
  3 45  1  0  0  0  0
  5  6  1  0  0  0  0
  5 12  1  0  0  0  0
  5 37  1  6  0  0  0
  6 30  1  0  0  0  0
  7 14  1  0  0  0  0
  7 41  1  0  0  0  0
  7 23  1  1  0  0  0
  8 16  2  0  0  0  0
  8 42  1  0  0  0  0
  9 10  1  6  0  0  0
  9 18  1  0  0  0  0
 11 20  1  0  0  0  0
 12 13  1  1  0  0  0
 12 22  1  0  0  0  0
 13 47  1  0  0  0  0
 14 15  1  1  0  0  0
 14 24  1  0  0  0  0
 16 17  1  0  0  0  0
 17 26  2  0  0  0  0
 18 19  1  1  0  0  0
 18 27  1  0  0  0  0
 20 21  1  1  0  0  0
 20 29  1  0  0  0  0
 22 23  1  1  0  0  0
 22 30  1  0  0  0  0
 24 25  1  6  0  0  0
 24 31  1  0  0  0  0
 26 33  1  0  0  0  0
 27 28  1  1  0  0  0
 27 34  1  0  0  0  0
 29  2  1  1  0  0  0
 29 36  1  0  0  0  0
 30 38  1  6  0  0  0
 31 32  1  1  0  0  0
 31 40  1  0  0  0  0
 33 42  2  0  0  0  0
 34 35  1  0  0  0  0
 34 43  1  1  0  0  0
 36 37  1  1  0  0  0
 36 45  1  0  0  0  0
 38 39  1  0  0  0  0
 40 41  1  0  0  0  0
 40 48  1  1  0  0  0
 43 44  1  0  0  0  0
 45 46  1  6  0  0  0
 47 50  1  0  0  0  0
 48 49  1  0  0  0  0
 50 51  1  0  0  0  0
 51 52  1  0  0  0  0
 52  8  1  0  0  0  0
M  END
>  <CHROM.1>
-101.77383689,164.74781701,-148.72623301,147.97984965,-124.90507676,144.73886163
-71.91599427,-175.72660422,-173.90238467,81.28265955,50.23085560,158.98465122
100.57561154,52.55814655,20.37718711,26.47835662,27.67074050,8.30534348,0.63914316
0.78217601,-2.89100468

>  <Name>
2be0_lig

>  <RI>
0

>  <Rbt.Current_Directory>
/home/itssahil/PROJECTS/Mol_Feturizer/New_Systems/rnas/2be0

>  <Rbt.Executable>
rbdock ($Id: //depot/dev/client3/rdock/2013.1/src/exe/rbdock.cxx#4 $)

>  <Rbt.Library>
libRbt.so (2013.1, Build901 2013/11/27)

>  <Rbt.Parameter_File>
/export/apps/rDock/src/rDock_2013.1_src/data/scripts/dock_solv.prm

>  <Rbt.Receptor>
prm/blind_docking_80.prm

>  <SCORE>
80.4094

>  <SCORE.INTER>
39.8244

>  <SCORE.INTER.CONST>
1

>  <SCORE.INTER.POLAR>
-0.383494

>  <SCORE.INTER.ROT>
15

>  <SCORE.INTER.SOLV>
32.604

>  <SCORE.INTER.VDW>
3.35989

>  <SCORE.INTER.norm>
0.765853

>  <SCORE.INTRA>
16.2642

>  <SCORE.INTRA.DIHEDRAL>
-15.1884

>  <SCORE.INTRA.DIHEDRAL.0>
47.8724

>  <SCORE.INTRA.POLAR>
0

>  <SCORE.INTRA.POLAR.0>
0

>  <SCORE.INTRA.REPUL>
0

>  <SCORE.INTRA.REPUL.0>
0

>  <SCORE.INTRA.SOLV>
4.41094

>  <SCORE.INTRA.SOLV.lig_0>
-115.677

>  <SCORE.INTRA.VDW>
21.6529

>  <SCORE.INTRA.VDW.0>
-7.4833

>  <SCORE.INTRA.norm>
0.312773

>  <SCORE.RESTR>
24.3208

>  <SCORE.RESTR.CAVITY>
24.3208

>  <SCORE.RESTR.norm>
0.467707

>  <SCORE.SYSTEM>
0

>  <SCORE.SYSTEM.CONST>
0

>  <SCORE.SYSTEM.DIHEDRAL>
0

>  <SCORE.SYSTEM.SOLV>
0

>  <SCORE.SYSTEM.norm>
0

>  <SCORE.heavy>
52

>  <SCORE.norm>
1.54633

>  <RMSD>
32.200

$$$$
2be0_lig
 OpenBabel11021811423D
libRbt.so/2013.1/901 2013/11/27
 52 56  0  0  0  0  0  0  0  0999 V2000
   23.4595   22.8791    8.2610 C   0  0  2  0  0  0  0  0  0  0  0  0
   23.6486   23.9150    7.3262 O   0  0  0  0  0  0  0  0  0  0  0  0
   28.0391   24.2004    7.4386 C   0  0  2  0  0  0  0  0  0  0  0  0
   29.4221   24.6021    7.0572 N   0  0  0  0  0  0  0  0  0  0  0  0
   25.3976   27.1838    9.2992 C   0  0  2  0  0  0  0  0  0  0  0  0
   24.3489   27.9288    9.9515 O   0  0  0  0  0  0  0  0  0  0  0  0
   24.1537   31.1857    7.0485 C   0  0  1  0  0  0  0  0  0  0  0  0
   31.0385   26.1726   10.6502 C   0  0  0  0  0  0  0  0  0  0  0  0
   22.6268   23.3796    9.5107 C   0  0  2  0  0  0  0  0  0  0  0  0
   21.3681   23.9774    9.0602 N   0  0  0  0  0  0  0  0  0  0  0  0
   27.3328   23.5055    6.1870 C   0  0  0  0  0  0  0  0  0  0  0  0
   26.1472   28.1742    8.3938 C   0  0  2  0  0  0  0  0  0  0  0  0
   27.1435   28.8043    9.3144 O   0  0  0  0  0  0  0  0  0  0  0  0
   23.5328   30.8215    5.5914 C   0  0  2  0  0  0  0  0  0  0  0  0
   24.6193   30.9319    4.5651 N   0  0  0  0  0  0  0  0  0  0  0  0
   30.5991   24.8178   10.4872 C   0  0  0  0  0  0  0  0  0  0  0  0
   30.1040   24.0996   11.6070 N   0  0  0  0  0  0  0  0  0  0  0  0
   23.5048   24.4067   10.3651 C   0  0  1  0  0  0  0  0  0  0  0  0
   22.7386   24.8487   11.4749 O   0  0  0  0  0  0  0  0  0  0  0  0
   25.8052   23.0616    6.5605 C   0  0  2  0  0  0  0  0  0  0  0  0
   25.1592   22.4329    5.4430 N   0  0  0  0  0  0  0  0  0  0  0  0
   24.9427   28.9934    7.8929 C   0  0  2  0  0  0  0  0  0  0  0  0
   25.2211   30.2549    7.3033 O   0  0  0  0  0  0  0  0  0  0  0  0
   22.3830   31.8312    5.2955 C   0  0  1  0  0  0  0  0  0  0  0  0
   21.3741   31.6241    6.3474 O   0  0  0  0  0  0  0  0  0  0  0  0
   30.0191   24.6616   12.9128 C   0  0  0  0  0  0  0  0  0  0  0  0
   24.8114   23.6889   10.8122 C   0  0  2  0  0  0  0  0  0  0  0  0
   25.6723   24.5964   11.6085 O   0  0  0  0  0  0  0  0  0  0  0  0
   24.9714   24.3314    7.0099 C   0  0  2  0  0  0  0  0  0  0  0  0
   24.0225   29.0717    9.1343 C   0  0  1  0  0  0  0  0  0  0  0  0
   22.9578   33.3527    5.3236 C   0  0  2  0  0  0  0  0  0  0  0  0
   23.9672   33.5670    4.2750 O   0  0  0  0  0  0  0  0  0  0  0  0
   30.4376   25.9967   13.1347 C   0  0  0  0  0  0  0  0  0  0  0  0
   25.6262   23.1975    9.5543 C   0  0  2  0  0  0  0  0  0  0  0  0
   24.7318   22.3197    8.8166 O   0  0  0  0  0  0  0  0  0  0  0  0
   25.7113   24.9806    8.2306 C   0  0  2  0  0  0  0  0  0  0  0  0
   24.8785   26.0877    8.5532 O   0  0  0  0  0  0  0  0  0  0  0  0
   22.5431   28.9524    8.7717 C   0  0  0  0  0  0  0  0  0  0  0  0
   22.2113   27.8761    7.9276 O   0  0  0  0  0  0  0  0  0  0  0  0
   23.6010   33.6512    6.7554 C   0  0  1  0  0  0  0  0  0  0  0  0
   24.6788   32.6207    7.0222 O   0  0  0  0  0  0  0  0  0  0  0  0
   30.9631   26.7886   11.9984 C   0  0  0  0  0  0  0  0  0  0  0  0
   26.8344   22.5107   10.0387 C   0  0  0  0  0  0  0  0  0  0  0  0
   27.7761   23.4167   10.3301 O   0  0  0  0  0  0  0  0  0  0  0  0
   27.1788   25.4268    7.8247 C   0  0  1  0  0  0  0  0  0  0  0  0
   27.8242   25.9903    8.9190 O   0  0  0  0  0  0  0  0  0  0  0  0
   28.3931   28.2188    9.8547 C   0  0  0  0  0  0  0  0  0  0  0  0
   24.1403   35.1070    6.7193 C   0  0  0  0  0  0  0  0  0  0  0  0
   24.3847   35.5908    8.0554 N   0  0  0  0  0  0  0  0  0  0  0  0
   29.2662   27.8300    8.6572 C   0  0  0  0  0  0  0  0  0  0  0  0
   30.6974   28.1615    8.9548 N   0  0  0  0  0  0  0  0  0  0  0  0
   31.5927   26.9615    9.3654 C   0  0  0  0  0  0  0  0  0  0  0  0
  1  2  1  6  0  0  0
  1  9  1  0  0  0  0
  1 35  1  0  0  0  0
  3  4  1  6  0  0  0
  3 11  1  0  0  0  0
  3 45  1  0  0  0  0
  5  6  1  0  0  0  0
  5 12  1  0  0  0  0
  5 37  1  6  0  0  0
  6 30  1  0  0  0  0
  7 14  1  0  0  0  0
  7 41  1  0  0  0  0
  7 23  1  6  0  0  0
  8 16  2  0  0  0  0
  8 42  1  0  0  0  0
  9 10  1  6  0  0  0
  9 18  1  0  0  0  0
 11 20  1  0  0  0  0
 12 13  1  1  0  0  0
 12 22  1  0  0  0  0
 13 47  1  0  0  0  0
 14 15  1  6  0  0  0
 14 24  1  0  0  0  0
 16 17  1  0  0  0  0
 17 26  2  0  0  0  0
 18 19  1  1  0  0  0
 18 27  1  0  0  0  0
 20 21  1  6  0  0  0
 20 29  1  0  0  0  0
 22 23  1  1  0  0  0
 22 30  1  0  0  0  0
 24 25  1  1  0  0  0
 24 31  1  0  0  0  0
 26 33  1  0  0  0  0
 27 28  1  6  0  0  0
 27 34  1  0  0  0  0
 29  2  1  1  0  0  0
 29 36  1  0  0  0  0
 30 38  1  6  0  0  0
 31 32  1  6  0  0  0
 31 40  1  0  0  0  0
 33 42  2  0  0  0  0
 34 35  1  0  0  0  0
 34 43  1  1  0  0  0
 36 37  1  6  0  0  0
 36 45  1  0  0  0  0
 38 39  1  0  0  0  0
 40 41  1  0  0  0  0
 40 48  1  6  0  0  0
 43 44  1  0  0  0  0
 45 46  1  1  0  0  0
 47 50  1  0  0  0  0
 48 49  1  0  0  0  0
 50 51  1  0  0  0  0
 51 52  1  0  0  0  0
 52  8  1  0  0  0  0
M  END
>  <CHROM.1>
119.08640128,-157.99405795,-86.45489510,74.57966869,58.50781145,-167.99308981
54.06111788,-66.92931397,-82.09815414,-159.08869300,163.50337997,140.16298902
101.82007939,-57.24500840,114.57220622,25.79453402,27.12042596,8.50909521
1.12644587,0.35994878,2.91751015

>  <Name>
2be0_lig

>  <RI>
0

>  <Rbt.Current_Directory>
/home/itssahil/PROJECTS/Mol_Feturizer/New_Systems/rnas/2be0

>  <Rbt.Executable>
rbdock ($Id: //depot/dev/client3/rdock/2013.1/src/exe/rbdock.cxx#4 $)

>  <Rbt.Library>
libRbt.so (2013.1, Build901 2013/11/27)

>  <Rbt.Parameter_File>
/export/apps/rDock/src/rDock_2013.1_src/data/scripts/dock_solv.prm

>  <Rbt.Receptor>
prm/blind_docking_80.prm

>  <SCORE>
85.8086

>  <SCORE.INTER>
41.6529

>  <SCORE.INTER.CONST>
1

>  <SCORE.INTER.POLAR>
-0.652615

>  <SCORE.INTER.ROT>
15

>  <SCORE.INTER.SOLV>
29.2351

>  <SCORE.INTER.VDW>
6.59898

>  <SCORE.INTER.norm>
0.801018

>  <SCORE.INTRA>
18.6444

>  <SCORE.INTRA.DIHEDRAL>
-22.9573

>  <SCORE.INTRA.DIHEDRAL.0>
47.8724

>  <SCORE.INTRA.POLAR>
0

>  <SCORE.INTRA.POLAR.0>
0

>  <SCORE.INTRA.REPUL>
0.147019

>  <SCORE.INTRA.REPUL.0>
0

>  <SCORE.INTRA.SOLV>
5.02388

>  <SCORE.INTRA.SOLV.lig_0>
-115.677

>  <SCORE.INTRA.VDW>
26.876

>  <SCORE.INTRA.VDW.0>
-7.4833

>  <SCORE.INTRA.norm>
0.358547

>  <SCORE.RESTR>
25.5112

>  <SCORE.RESTR.CAVITY>
25.5112

>  <SCORE.RESTR.norm>
0.4906

>  <SCORE.SYSTEM>
0

>  <SCORE.SYSTEM.CONST>
0

>  <SCORE.SYSTEM.DIHEDRAL>
0

>  <SCORE.SYSTEM.SOLV>
0

>  <SCORE.SYSTEM.norm>
0

>  <SCORE.heavy>
52

>  <SCORE.norm>
1.65017

>  <RMSD>
32.216

$$$$
2be0_lig
 OpenBabel11021811423D
libRbt.so/2013.1/901 2013/11/27
 52 56  0  0  0  0  0  0  0  0999 V2000
   21.7095   28.5507    7.6843 C   0  0  2  0  0  0  0  0  0  0  0  0
   23.0589   28.6034    8.0831 O   0  0  0  0  0  0  0  0  0  0  0  0
   24.1553   32.5370    6.4413 C   0  0  2  0  0  0  0  0  0  0  0  0
   24.9880   33.7241    6.0995 N   0  0  0  0  0  0  0  0  0  0  0  0
   25.6697   28.4127    5.8093 C   0  0  2  0  0  0  0  0  0  0  0  0
   26.2175   27.7437    4.6549 O   0  0  0  0  0  0  0  0  0  0  0  0
   26.1278   24.9104    8.3230 C   0  0  1  0  0  0  0  0  0  0  0  0
   31.2542   26.4707   10.7901 C   0  0  0  0  0  0  0  0  0  0  0  0
   21.4409   27.3151    6.7320 C   0  0  2  0  0  0  0  0  0  0  0  0
   21.8919   26.0822    7.3809 N   0  0  0  0  0  0  0  0  0  0  0  0
   24.1886   32.3126    8.0214 C   0  0  0  0  0  0  0  0  0  0  0  0
   25.8139   27.4431    6.9932 C   0  0  2  0  0  0  0  0  0  0  0  0
   27.2039   27.6958    7.4846 O   0  0  0  0  0  0  0  0  0  0  0  0
   27.2252   23.7438    8.5987 C   0  0  2  0  0  0  0  0  0  0  0  0
   26.6622   22.4350    8.1340 N   0  0  0  0  0  0  0  0  0  0  0  0
   31.4420   27.6105   11.6387 C   0  0  0  0  0  0  0  0  0  0  0  0
   31.0561   27.5427   13.0031 N   0  0  0  0  0  0  0  0  0  0  0  0
   22.1665   27.5517    5.3272 C   0  0  1  0  0  0  0  0  0  0  0  0
   21.9201   26.4310    4.4921 O   0  0  0  0  0  0  0  0  0  0  0  0
   23.2966   31.0083    8.4373 C   0  0  2  0  0  0  0  0  0  0  0  0
   23.3165   30.7968    9.8572 N   0  0  0  0  0  0  0  0  0  0  0  0
   25.4883   26.1274    6.2611 C   0  0  2  0  0  0  0  0  0  0  0  0
   25.8596   24.9197    6.9092 O   0  0  0  0  0  0  0  0  0  0  0  0
   27.5157   23.7127   10.1296 C   0  0  1  0  0  0  0  0  0  0  0  0
   28.0755   25.0316   10.4680 O   0  0  0  0  0  0  0  0  0  0  0  0
   30.4782   26.3802   13.5885 C   0  0  0  0  0  0  0  0  0  0  0  0
   21.6215   28.8696    4.7041 C   0  0  2  0  0  0  0  0  0  0  0  0
   22.2630   29.1456    3.3958 O   0  0  0  0  0  0  0  0  0  0  0  0
   23.8523   29.7204    7.7011 C   0  0  2  0  0  0  0  0  0  0  0  0
   26.1424   26.3197    4.8722 C   0  0  1  0  0  0  0  0  0  0  0  0
   26.1408   23.4292   10.9511 C   0  0  2  0  0  0  0  0  0  0  0  0
   25.5753   22.1126   10.6175 O   0  0  0  0  0  0  0  0  0  0  0  0
   30.2694   25.2224   12.7992 C   0  0  0  0  0  0  0  0  0  0  0  0
   21.8978   30.0879    5.6668 C   0  0  2  0  0  0  0  0  0  0  0  0
   21.2504   29.7569    6.9263 O   0  0  0  0  0  0  0  0  0  0  0  0
   23.8083   29.9964    6.1580 C   0  0  2  0  0  0  0  0  0  0  0  0
   24.3107   28.7858    5.6055 O   0  0  0  0  0  0  0  0  0  0  0  0
   25.2925   25.7406    3.7424 C   0  0  0  0  0  0  0  0  0  0  0  0
   24.0342   25.2401    4.1265 O   0  0  0  0  0  0  0  0  0  0  0  0
   25.0753   24.5709   10.6136 C   0  0  1  0  0  0  0  0  0  0  0  0
   24.8584   24.5978    9.1147 O   0  0  0  0  0  0  0  0  0  0  0  0
   30.6546   25.2425   11.3690 C   0  0  0  0  0  0  0  0  0  0  0  0
   21.3434   31.2968    5.0365 C   0  0  0  0  0  0  0  0  0  0  0  0
   22.0890   31.6285    3.9751 O   0  0  0  0  0  0  0  0  0  0  0  0
   24.7082   31.2492    5.7862 C   0  0  1  0  0  0  0  0  0  0  0  0
   24.6505   31.4868    4.4181 O   0  0  0  0  0  0  0  0  0  0  0  0
   28.0617   26.8112    8.3081 C   0  0  0  0  0  0  0  0  0  0  0  0
   23.7854   24.2430   11.4138 C   0  0  0  0  0  0  0  0  0  0  0  0
   23.6142   25.1719   12.5032 N   0  0  0  0  0  0  0  0  0  0  0  0
   29.4317   27.4874    8.4228 C   0  0  0  0  0  0  0  0  0  0  0  0
   30.5105   26.4594    8.2616 N   0  0  0  0  0  0  0  0  0  0  0  0
   31.7014   26.5754    9.2508 C   0  0  0  0  0  0  0  0  0  0  0  0
  1  2  1  6  0  0  0
  1  9  1  0  0  0  0
  1 35  1  0  0  0  0
  3  4  1  1  0  0  0
  3 11  1  0  0  0  0
  3 45  1  0  0  0  0
  5  6  1  0  0  0  0
  5 12  1  0  0  0  0
  5 37  1  6  0  0  0
  6 30  1  0  0  0  0
  7 14  1  0  0  0  0
  7 41  1  0  0  0  0
  7 23  1  6  0  0  0
  8 16  2  0  0  0  0
  8 42  1  0  0  0  0
  9 10  1  1  0  0  0
  9 18  1  0  0  0  0
 11 20  1  0  0  0  0
 12 13  1  6  0  0  0
 12 22  1  0  0  0  0
 13 47  1  0  0  0  0
 14 15  1  1  0  0  0
 14 24  1  0  0  0  0
 16 17  1  0  0  0  0
 17 26  2  0  0  0  0
 18 19  1  6  0  0  0
 18 27  1  0  0  0  0
 20 21  1  1  0  0  0
 20 29  1  0  0  0  0
 22 23  1  1  0  0  0
 22 30  1  0  0  0  0
 24 25  1  1  0  0  0
 24 31  1  0  0  0  0
 26 33  1  0  0  0  0
 27 28  1  6  0  0  0
 27 34  1  0  0  0  0
 29  2  1  6  0  0  0
 29 36  1  0  0  0  0
 30 38  1  6  0  0  0
 31 32  1  6  0  0  0
 31 40  1  0  0  0  0
 33 42  2  0  0  0  0
 34 35  1  0  0  0  0
 34 43  1  6  0  0  0
 36 37  1  6  0  0  0
 36 45  1  0  0  0  0
 38 39  1  0  0  0  0
 40 41  1  0  0  0  0
 40 48  1  1  0  0  0
 43 44  1  0  0  0  0
 45 46  1  6  0  0  0
 47 50  1  0  0  0  0
 48 49  1  0  0  0  0
 50 51  1  0  0  0  0
 51 52  1  0  0  0  0
 52  8  1  0  0  0  0
M  END
>  <CHROM.1>
116.99819558,-144.52807080,-150.03625732,-159.32288543,174.91727199,18.80938524
66.55535350,-111.26323982,-70.64975737,-67.21680045,108.00159240,-137.83928677
-137.08632961,58.91764827,-115.63123257,25.42562481,27.43120938,7.75895120
2.45437405,-0.56505010,-0.27279442

>  <Name>
2be0_lig

>  <RI>
0

>  <Rbt.Current_Directory>
/home/itssahil/PROJECTS/Mol_Feturizer/New_Systems/rnas/2be0

>  <Rbt.Executable>
rbdock ($Id: //depot/dev/client3/rdock/2013.1/src/exe/rbdock.cxx#4 $)

>  <Rbt.Library>
libRbt.so (2013.1, Build901 2013/11/27)

>  <Rbt.Parameter_File>
/export/apps/rDock/src/rDock_2013.1_src/data/scripts/dock_solv.prm

>  <Rbt.Receptor>
prm/blind_docking_80.prm

>  <SCORE>
62.5659

>  <SCORE.INTER>
4.37703

>  <SCORE.INTER.CONST>
1

>  <SCORE.INTER.POLAR>
-0.346924

>  <SCORE.INTER.ROT>
15

>  <SCORE.INTER.SOLV>
31.0628

>  <SCORE.INTER.VDW>
-19.8798

>  <SCORE.INTER.norm>
0.0841737

>  <SCORE.INTRA>
25.3192

>  <SCORE.INTRA.DIHEDRAL>
-7.94151

>  <SCORE.INTRA.DIHEDRAL.0>
47.8724

>  <SCORE.INTRA.POLAR>
0

>  <SCORE.INTRA.POLAR.0>
0

>  <SCORE.INTRA.REPUL>
0.526977

>  <SCORE.INTRA.REPUL.0>
0

>  <SCORE.INTRA.SOLV>
3.8401

>  <SCORE.INTRA.SOLV.lig_0>
-115.677

>  <SCORE.INTRA.VDW>
24.735

>  <SCORE.INTRA.VDW.0>
-7.4833

>  <SCORE.INTRA.norm>
0.486907

>  <SCORE.RESTR>
32.8697

>  <SCORE.RESTR.CAVITY>
32.8697

>  <SCORE.RESTR.norm>
0.632109

>  <SCORE.SYSTEM>
0

>  <SCORE.SYSTEM.CONST>
0

>  <SCORE.SYSTEM.DIHEDRAL>
0

>  <SCORE.SYSTEM.SOLV>
0

>  <SCORE.SYSTEM.norm>
0

>  <SCORE.heavy>
52

>  <SCORE.norm>
1.20319

>  <RMSD>
32.242

$$$$
2be0_lig
 OpenBabel11021811423D
libRbt.so/2013.1/901 2013/11/27
 52 56  0  0  0  0  0  0  0  0999 V2000
   24.3561   31.1705    7.8152 C   0  0  2  0  0  0  0  0  0  0  0  0
   23.4500   30.1395    7.5005 O   0  0  0  0  0  0  0  0  0  0  0  0
   21.8225   28.1256    3.9415 C   0  0  2  0  0  0  0  0  0  0  0  0
   21.5873   27.8005    2.5068 N   0  0  0  0  0  0  0  0  0  0  0  0
   25.3183   26.9627    6.9747 C   0  0  2  0  0  0  0  0  0  0  0  0
   25.3413   27.2017    8.3969 O   0  0  0  0  0  0  0  0  0  0  0  0
   29.4824   27.3277    9.0134 C   0  0  1  0  0  0  0  0  0  0  0  0
   25.2784   23.4712   10.1673 C   0  0  0  0  0  0  0  0  0  0  0  0
   23.6548   32.3126    8.6576 C   0  0  2  0  0  0  0  0  0  0  0  0
   23.0164   31.7339    9.8417 N   0  0  0  0  0  0  0  0  0  0  0  0
   21.4859   29.6661    4.1904 C   0  0  0  0  0  0  0  0  0  0  0  0
   26.7406   26.5401    6.5735 C   0  0  2  0  0  0  0  0  0  0  0  0
   26.7558   25.0681    6.8383 O   0  0  0  0  0  0  0  0  0  0  0  0
   31.0939   27.4199    8.8241 C   0  0  2  0  0  0  0  0  0  0  0  0
   31.5700   26.1720    8.1446 N   0  0  0  0  0  0  0  0  0  0  0  0
   25.8264   24.2687   11.2249 C   0  0  0  0  0  0  0  0  0  0  0  0
   24.9684   24.7947   12.2260 N   0  0  0  0  0  0  0  0  0  0  0  0
   22.6087   33.0949    7.7360 C   0  0  1  0  0  0  0  0  0  0  0  0
   21.9864   34.1079    8.5111 O   0  0  0  0  0  0  0  0  0  0  0  0
   21.7452   30.0676    5.7529 C   0  0  2  0  0  0  0  0  0  0  0  0
   21.4437   31.4510    5.9906 N   0  0  0  0  0  0  0  0  0  0  0  0
   27.5357   27.4906    7.4885 C   0  0  2  0  0  0  0  0  0  0  0  0
   28.9055   27.1836    7.7030 O   0  0  0  0  0  0  0  0  0  0  0  0
   31.7342   27.5628   10.2378 C   0  0  1  0  0  0  0  0  0  0  0  0
   31.2126   28.8197   10.7995 O   0  0  0  0  0  0  0  0  0  0  0  0
   23.5621   24.5710   12.2376 C   0  0  0  0  0  0  0  0  0  0  0  0
   23.3702   33.6858    6.5141 C   0  0  2  0  0  0  0  0  0  0  0  0
   22.4477   34.4227    5.6168 O   0  0  0  0  0  0  0  0  0  0  0  0
   23.2545   29.7795    6.1384 C   0  0  2  0  0  0  0  0  0  0  0  0
   26.6918   27.5281    8.7848 C   0  0  1  0  0  0  0  0  0  0  0  0
   31.3253   26.2902   11.1649 C   0  0  2  0  0  0  0  0  0  0  0  0
   31.8430   25.0302   10.6093 O   0  0  0  0  0  0  0  0  0  0  0  0
   22.9637   23.7897   11.2186 C   0  0  0  0  0  0  0  0  0  0  0  0
   24.0619   32.5337    5.6883 C   0  0  2  0  0  0  0  0  0  0  0  0
   24.9457   31.8500    6.6190 O   0  0  0  0  0  0  0  0  0  0  0  0
   23.5351   28.2609    5.8660 C   0  0  2  0  0  0  0  0  0  0  0  0
   24.8959   28.1159    6.2542 O   0  0  0  0  0  0  0  0  0  0  0  0
   26.6508   28.9199    9.4136 C   0  0  0  0  0  0  0  0  0  0  0  0
   26.2440   29.9599    8.5568 O   0  0  0  0  0  0  0  0  0  0  0  0
   29.7340   26.2094   11.2841 C   0  0  1  0  0  0  0  0  0  0  0  0
   29.1516   26.1193    9.8886 O   0  0  0  0  0  0  0  0  0  0  0  0
   23.8159   23.2186   10.1500 C   0  0  0  0  0  0  0  0  0  0  0  0
   24.7808   33.1531    4.5634 C   0  0  0  0  0  0  0  0  0  0  0  0
   25.6180   34.0883    5.0295 O   0  0  0  0  0  0  0  0  0  0  0  0
   23.3034   27.9131    4.3354 C   0  0  1  0  0  0  0  0  0  0  0  0
   23.5460   26.5629    4.1125 O   0  0  0  0  0  0  0  0  0  0  0  0
   27.2105   23.9785    5.9425 C   0  0  0  0  0  0  0  0  0  0  0  0
   29.4042   24.9750   12.1668 C   0  0  0  0  0  0  0  0  0  0  0  0
   29.7342   23.7538   11.4750 N   0  0  0  0  0  0  0  0  0  0  0  0
   26.6514   22.6672    6.5040 C   0  0  0  0  0  0  0  0  0  0  0  0
   25.6891   22.9693    7.6127 N   0  0  0  0  0  0  0  0  0  0  0  0
   26.2730   22.8878    9.0489 C   0  0  0  0  0  0  0  0  0  0  0  0
  1  2  1  6  0  0  0
  1  9  1  0  0  0  0
  1 35  1  0  0  0  0
  3  4  1  6  0  0  0
  3 11  1  0  0  0  0
  3 45  1  0  0  0  0
  5  6  1  0  0  0  0
  5 12  1  0  0  0  0
  5 37  1  6  0  0  0
  6 30  1  0  0  0  0
  7 14  1  0  0  0  0
  7 41  1  0  0  0  0
  7 23  1  6  0  0  0
  8 16  2  0  0  0  0
  8 42  1  0  0  0  0
  9 10  1  1  0  0  0
  9 18  1  0  0  0  0
 11 20  1  0  0  0  0
 12 13  1  1  0  0  0
 12 22  1  0  0  0  0
 13 47  1  0  0  0  0
 14 15  1  1  0  0  0
 14 24  1  0  0  0  0
 16 17  1  0  0  0  0
 17 26  2  0  0  0  0
 18 19  1  1  0  0  0
 18 27  1  0  0  0  0
 20 21  1  6  0  0  0
 20 29  1  0  0  0  0
 22 23  1  1  0  0  0
 22 30  1  0  0  0  0
 24 25  1  1  0  0  0
 24 31  1  0  0  0  0
 26 33  1  0  0  0  0
 27 28  1  6  0  0  0
 27 34  1  0  0  0  0
 29  2  1  1  0  0  0
 29 36  1  0  0  0  0
 30 38  1  6  0  0  0
 31 32  1  6  0  0  0
 31 40  1  0  0  0  0
 33 42  2  0  0  0  0
 34 35  1  0  0  0  0
 34 43  1  6  0  0  0
 36 37  1  6  0  0  0
 36 45  1  0  0  0  0
 38 39  1  0  0  0  0
 40 41  1  0  0  0  0
 40 48  1  1  0  0  0
 43 44  1  0  0  0  0
 45 46  1  1  0  0  0
 47 50  1  0  0  0  0
 48 49  1  0  0  0  0
 50 51  1  0  0  0  0
 51 52  1  0  0  0  0
 52  8  1  0  0  0  0
M  END
>  <CHROM.1>
123.97495216,-95.80166241,-160.32065176,130.83326028,-163.86619062,-139.01176227
-117.26449106,-62.95186068,54.53913518,139.20575805,-68.74220941,8.56989475
-96.94693411,169.72729284,-138.98196498,25.78557827,28.00078616,7.93283061
-2.31934482,0.50687160,3.01076718

>  <Name>
2be0_lig

>  <RI>
0

>  <Rbt.Current_Directory>
/home/itssahil/PROJECTS/Mol_Feturizer/New_Systems/rnas/2be0

>  <Rbt.Executable>
rbdock ($Id: //depot/dev/client3/rdock/2013.1/src/exe/rbdock.cxx#4 $)

>  <Rbt.Library>
libRbt.so (2013.1, Build901 2013/11/27)

>  <Rbt.Parameter_File>
/export/apps/rDock/src/rDock_2013.1_src/data/scripts/dock_solv.prm

>  <Rbt.Receptor>
prm/blind_docking_80.prm

>  <SCORE>
77.1203

>  <SCORE.INTER>
41.3819

>  <SCORE.INTER.CONST>
1

>  <SCORE.INTER.POLAR>
-0.0539479

>  <SCORE.INTER.ROT>
15

>  <SCORE.INTER.SOLV>
37.0485

>  <SCORE.INTER.VDW>
1.81826

>  <SCORE.INTER.norm>
0.795806

>  <SCORE.INTRA>
9.38422

>  <SCORE.INTRA.DIHEDRAL>
-1.2476

>  <SCORE.INTRA.DIHEDRAL.0>
47.8724

>  <SCORE.INTRA.POLAR>
0

>  <SCORE.INTRA.POLAR.0>
0

>  <SCORE.INTRA.REPUL>
0

>  <SCORE.INTRA.REPUL.0>
0

>  <SCORE.INTRA.SOLV>
6.52043

>  <SCORE.INTRA.SOLV.lig_0>
-115.677

>  <SCORE.INTRA.VDW>
6.7478

>  <SCORE.INTRA.VDW.0>
-7.4833

>  <SCORE.INTRA.norm>
0.180466

>  <SCORE.RESTR>
26.3542

>  <SCORE.RESTR.CAVITY>
26.3542

>  <SCORE.RESTR.norm>
0.506811

>  <SCORE.SYSTEM>
0

>  <SCORE.SYSTEM.CONST>
0

>  <SCORE.SYSTEM.DIHEDRAL>
0

>  <SCORE.SYSTEM.SOLV>
0

>  <SCORE.SYSTEM.norm>
0

>  <SCORE.heavy>
52

>  <SCORE.norm>
1.48308

>  <RMSD>
32.317

$$$$
2be0_lig
 OpenBabel11021811423D
libRbt.so/2013.1/901 2013/11/27
 52 56  0  0  0  0  0  0  0  0999 V2000
   28.8359   26.8185    9.0161 C   0  0  2  0  0  0  0  0  0  0  0  0
   28.6586   25.7375    9.9009 O   0  0  0  0  0  0  0  0  0  0  0  0
   26.0422   22.2727    9.1790 C   0  0  2  0  0  0  0  0  0  0  0  0
   24.8070   21.4408    9.1382 N   0  0  0  0  0  0  0  0  0  0  0  0
   25.8841   26.3086    7.5239 C   0  0  2  0  0  0  0  0  0  0  0  0
   24.9349   25.6432    6.6656 O   0  0  0  0  0  0  0  0  0  0  0  0
   24.4806   28.9047    4.2706 C   0  0  1  0  0  0  0  0  0  0  0  0
   25.1181   33.1107    6.6476 C   0  0  0  0  0  0  0  0  0  0  0  0
   30.1898   26.6813    8.2075 C   0  0  2  0  0  0  0  0  0  0  0  0
   30.2359   25.3812    7.5352 N   0  0  0  0  0  0  0  0  0  0  0  0
   26.2911   22.7657   10.6768 C   0  0  0  0  0  0  0  0  0  0  0  0
   26.0741   27.7256    6.9596 C   0  0  2  0  0  0  0  0  0  0  0  0
   24.9506   28.4996    7.5730 O   0  0  0  0  0  0  0  0  0  0  0  0
   24.2050   30.2320    5.1671 C   0  0  2  0  0  0  0  0  0  0  0  0
   24.3718   29.8777    6.6136 N   0  0  0  0  0  0  0  0  0  0  0  0
   25.3011   33.5502    5.2955 C   0  0  0  0  0  0  0  0  0  0  0  0
   24.2489   34.2309    4.6288 N   0  0  0  0  0  0  0  0  0  0  0  0
   31.4293   26.8880    9.1959 C   0  0  1  0  0  0  0  0  0  0  0  0
   32.6316   26.7538    8.4539 O   0  0  0  0  0  0  0  0  0  0  0  0
   27.6320   23.6954   10.7623 C   0  0  2  0  0  0  0  0  0  0  0  0
   27.8684   24.1437   12.1056 N   0  0  0  0  0  0  0  0  0  0  0  0
   26.0399   27.3875    5.4572 C   0  0  2  0  0  0  0  0  0  0  0  0
   25.8201   28.4647    4.5584 O   0  0  0  0  0  0  0  0  0  0  0  0
   22.7514   30.7126    4.8757 C   0  0  1  0  0  0  0  0  0  0  0  0
   22.7088   31.0459    3.4424 O   0  0  0  0  0  0  0  0  0  0  0  0
   22.9930   34.5061    5.2413 C   0  0  0  0  0  0  0  0  0  0  0  0
   31.3086   28.2929    9.8545 C   0  0  2  0  0  0  0  0  0  0  0  0
   32.4329   28.5418   10.7889 O   0  0  0  0  0  0  0  0  0  0  0  0
   27.4796   24.9476    9.8040 C   0  0  2  0  0  0  0  0  0  0  0  0
   24.9747   26.2689    5.3666 C   0  0  1  0  0  0  0  0  0  0  0  0
   21.6922   29.5319    5.2365 C   0  0  2  0  0  0  0  0  0  0  0  0
   21.7295   29.1933    6.6676 O   0  0  0  0  0  0  0  0  0  0  0  0
   22.7545   34.0968    6.5764 C   0  0  0  0  0  0  0  0  0  0  0  0
   29.9543   28.4103   10.6543 C   0  0  2  0  0  0  0  0  0  0  0  0
   28.8968   28.1537    9.6896 O   0  0  0  0  0  0  0  0  0  0  0  0
   27.2270   24.4101    8.3527 C   0  0  2  0  0  0  0  0  0  0  0  0
   27.1200   25.6042    7.5871 O   0  0  0  0  0  0  0  0  0  0  0  0
   25.3537   25.1833    4.3605 C   0  0  0  0  0  0  0  0  0  0  0  0
   26.0260   25.6332    3.2086 O   0  0  0  0  0  0  0  0  0  0  0  0
   22.0293   28.2328    4.3696 C   0  0  1  0  0  0  0  0  0  0  0  0
   23.4626   27.8287    4.6470 O   0  0  0  0  0  0  0  0  0  0  0  0
   23.8207   33.3819    7.3155 C   0  0  0  0  0  0  0  0  0  0  0  0
   29.8874   29.7614   11.2340 C   0  0  0  0  0  0  0  0  0  0  0  0
   28.6140   30.0626   11.5178 O   0  0  0  0  0  0  0  0  0  0  0  0
   25.9026   23.5380    8.2998 C   0  0  1  0  0  0  0  0  0  0  0  0
   25.6985   23.0610    7.0105 O   0  0  0  0  0  0  0  0  0  0  0  0
   24.9083   29.1632    8.8974 C   0  0  0  0  0  0  0  0  0  0  0  0
   20.9975   27.1409    4.7628 C   0  0  0  0  0  0  0  0  0  0  0  0
   19.7203   27.4047    4.1479 N   0  0  0  0  0  0  0  0  0  0  0  0
   25.9611   30.2761    8.8805 C   0  0  0  0  0  0  0  0  0  0  0  0
   26.0977   30.8125    7.4876 N   0  0  0  0  0  0  0  0  0  0  0  0
   26.3263   32.3441    7.3777 C   0  0  0  0  0  0  0  0  0  0  0  0
  1  2  1  1  0  0  0
  1  9  1  0  0  0  0
  1 35  1  0  0  0  0
  3  4  1  1  0  0  0
  3 11  1  0  0  0  0
  3 45  1  0  0  0  0
  5  6  1  0  0  0  0
  5 12  1  0  0  0  0
  5 37  1  6  0  0  0
  6 30  1  0  0  0  0
  7 14  1  0  0  0  0
  7 41  1  0  0  0  0
  7 23  1  1  0  0  0
  8 16  2  0  0  0  0
  8 42  1  0  0  0  0
  9 10  1  1  0  0  0
  9 18  1  0  0  0  0
 11 20  1  0  0  0  0
 12 13  1  6  0  0  0
 12 22  1  0  0  0  0
 13 47  1  0  0  0  0
 14 15  1  1  0  0  0
 14 24  1  0  0  0  0
 16 17  1  0  0  0  0
 17 26  2  0  0  0  0
 18 19  1  6  0  0  0
 18 27  1  0  0  0  0
 20 21  1  1  0  0  0
 20 29  1  0  0  0  0
 22 23  1  6  0  0  0
 22 30  1  0  0  0  0
 24 25  1  6  0  0  0
 24 31  1  0  0  0  0
 26 33  1  0  0  0  0
 27 28  1  1  0  0  0
 27 34  1  0  0  0  0
 29  2  1  6  0  0  0
 29 36  1  0  0  0  0
 30 38  1  6  0  0  0
 31 32  1  1  0  0  0
 31 40  1  0  0  0  0
 33 42  2  0  0  0  0
 34 35  1  0  0  0  0
 34 43  1  6  0  0  0
 36 37  1  6  0  0  0
 36 45  1  0  0  0  0
 38 39  1  0  0  0  0
 40 41  1  0  0  0  0
 40 48  1  1  0  0  0
 43 44  1  0  0  0  0
 45 46  1  6  0  0  0
 47 50  1  0  0  0  0
 48 49  1  0  0  0  0
 50 51  1  0  0  0  0
 51 52  1  0  0  0  0
 52  8  1  0  0  0  0
M  END
>  <CHROM.1>
-123.52472880,-75.28237839,100.27716818,85.22179743,64.05152434,-84.06163962
172.05153472,-152.13278102,159.14595474,-83.11225589,76.57044662,31.10415538
142.51595109,-115.34744392,-104.35699683,26.08251101,27.92387592,7.37049357
-0.67761403,-0.60666425,-0.07810778

>  <Name>
2be0_lig

>  <RI>
0

>  <Rbt.Current_Directory>
/home/itssahil/PROJECTS/Mol_Feturizer/New_Systems/rnas/2be0

>  <Rbt.Executable>
rbdock ($Id: //depot/dev/client3/rdock/2013.1/src/exe/rbdock.cxx#4 $)

>  <Rbt.Library>
libRbt.so (2013.1, Build901 2013/11/27)

>  <Rbt.Parameter_File>
/export/apps/rDock/src/rDock_2013.1_src/data/scripts/dock_solv.prm

>  <Rbt.Receptor>
prm/blind_docking_80.prm

>  <SCORE>
90.3468

>  <SCORE.INTER>
31.0663

>  <SCORE.INTER.CONST>
1

>  <SCORE.INTER.POLAR>
-1.91322

>  <SCORE.INTER.ROT>
15

>  <SCORE.INTER.SOLV>
38.9569

>  <SCORE.INTER.VDW>
0.502655

>  <SCORE.INTER.norm>
0.59743

>  <SCORE.INTRA>
31.0077

>  <SCORE.INTRA.DIHEDRAL>
-16.0732

>  <SCORE.INTRA.DIHEDRAL.0>
47.8724

>  <SCORE.INTRA.POLAR>
0

>  <SCORE.INTRA.POLAR.0>
0

>  <SCORE.INTRA.REPUL>
0.183505

>  <SCORE.INTRA.REPUL.0>
0

>  <SCORE.INTRA.SOLV>
9.46254

>  <SCORE.INTRA.SOLV.lig_0>
-115.677

>  <SCORE.INTRA.VDW>
33.3955

>  <SCORE.INTRA.VDW.0>
-7.4833

>  <SCORE.INTRA.norm>
0.596302

>  <SCORE.RESTR>
28.2728

>  <SCORE.RESTR.CAVITY>
28.2728

>  <SCORE.RESTR.norm>
0.543707

>  <SCORE.SYSTEM>
0

>  <SCORE.SYSTEM.CONST>
0

>  <SCORE.SYSTEM.DIHEDRAL>
0

>  <SCORE.SYSTEM.SOLV>
0

>  <SCORE.SYSTEM.norm>
0

>  <SCORE.heavy>
52

>  <SCORE.norm>
1.73744

>  <RMSD>
32.328

$$$$
2be0_lig
 OpenBabel11021811423D
libRbt.so/2013.1/901 2013/11/27
 52 56  0  0  0  0  0  0  0  0999 V2000
   29.9578   28.3918    9.8207 C   0  0  2  0  0  0  0  0  0  0  0  0
   29.7750   27.5746    8.6887 O   0  0  0  0  0  0  0  0  0  0  0  0
   27.4268   24.0520    7.4852 C   0  0  2  0  0  0  0  0  0  0  0  0
   26.4736   22.9110    7.5798 N   0  0  0  0  0  0  0  0  0  0  0  0
   25.7267   27.9555    8.0717 C   0  0  2  0  0  0  0  0  0  0  0  0
   25.0046   27.9278    6.8234 O   0  0  0  0  0  0  0  0  0  0  0  0
   24.4281   32.2937    6.5611 C   0  0  1  0  0  0  0  0  0  0  0  0
   24.2821   24.1047   10.9410 C   0  0  0  0  0  0  0  0  0  0  0  0
   31.4289   28.9737    9.8761 C   0  0  2  0  0  0  0  0  0  0  0  0
   31.7372   29.6617    8.6206 N   0  0  0  0  0  0  0  0  0  0  0  0
   28.5388   23.8995    8.6202 C   0  0  0  0  0  0  0  0  0  0  0  0
   25.3423   29.2661    8.7768 C   0  0  2  0  0  0  0  0  0  0  0  0
   24.0777   28.9182    9.4959 O   0  0  0  0  0  0  0  0  0  0  0  0
   24.6402   33.8213    7.0737 C   0  0  2  0  0  0  0  0  0  0  0  0
   23.6460   34.1066    8.1581 N   0  0  0  0  0  0  0  0  0  0  0  0
   24.0524   22.8629   10.2626 C   0  0  0  0  0  0  0  0  0  0  0  0
   25.1472   22.0074    9.9720 N   0  0  0  0  0  0  0  0  0  0  0  0
   32.4627   27.7928   10.1806 C   0  0  1  0  0  0  0  0  0  0  0  0
   33.7744   28.3334   10.2185 O   0  0  0  0  0  0  0  0  0  0  0  0
   29.5984   25.1419    8.5596 C   0  0  2  0  0  0  0  0  0  0  0  0
   30.6058   25.0153    9.5747 N   0  0  0  0  0  0  0  0  0  0  0  0
   25.2932   30.1904    7.5455 C   0  0  2  0  0  0  0  0  0  0  0  0
   24.6193   31.4311    7.6969 O   0  0  0  0  0  0  0  0  0  0  0  0
   24.4225   34.7690    5.8557 C   0  0  1  0  0  0  0  0  0  0  0  0
   25.4552   34.4128    4.8687 O   0  0  0  0  0  0  0  0  0  0  0  0
   26.4911   22.3215   10.3229 C   0  0  0  0  0  0  0  0  0  0  0  0
   32.0708   27.1278   11.5320 C   0  0  2  0  0  0  0  0  0  0  0  0
   32.9952   26.0178   11.8675 O   0  0  0  0  0  0  0  0  0  0  0  0
   28.8286   26.5141    8.7440 C   0  0  2  0  0  0  0  0  0  0  0  0
   24.6970   29.2844    6.4419 C   0  0  1  0  0  0  0  0  0  0  0  0
   22.9292   34.5577    5.2463 C   0  0  2  0  0  0  0  0  0  0  0  0
   21.8916   34.9115    6.2275 O   0  0  0  0  0  0  0  0  0  0  0  0
   26.7793   23.5344   10.9957 C   0  0  0  0  0  0  0  0  0  0  0  0
   30.6031   26.5552   11.4573 C   0  0  2  0  0  0  0  0  0  0  0  0
   29.7500   27.6845   11.1232 O   0  0  0  0  0  0  0  0  0  0  0  0
   27.7446   26.6088    7.6149 C   0  0  2  0  0  0  0  0  0  0  0  0
   27.1332   27.8680    7.8678 O   0  0  0  0  0  0  0  0  0  0  0  0
   25.3457   29.5221    5.0792 C   0  0  0  0  0  0  0  0  0  0  0  0
   24.8529   28.7276    4.0270 O   0  0  0  0  0  0  0  0  0  0  0  0
   22.7479   33.0341    4.8007 C   0  0  1  0  0  0  0  0  0  0  0  0
   23.0140   32.1479    6.0001 O   0  0  0  0  0  0  0  0  0  0  0  0
   25.6715   24.4623   11.3212 C   0  0  0  0  0  0  0  0  0  0  0  0
   30.2829   25.9607   12.7650 C   0  0  0  0  0  0  0  0  0  0  0  0
   29.2310   25.1421   12.6375 O   0  0  0  0  0  0  0  0  0  0  0  0
   26.7160   25.4055    7.7221 C   0  0  1  0  0  0  0  0  0  0  0  0
   25.7688   25.4979    6.7093 O   0  0  0  0  0  0  0  0  0  0  0  0
   23.5546   27.5739    9.8358 C   0  0  0  0  0  0  0  0  0  0  0  0
   21.3069   32.8905    4.2401 C   0  0  0  0  0  0  0  0  0  0  0  0
   21.1228   33.7405    3.0901 N   0  0  0  0  0  0  0  0  0  0  0  0
   23.0556   27.6344   11.2831 C   0  0  0  0  0  0  0  0  0  0  0  0
   23.4192   26.3635   11.9897 N   0  0  0  0  0  0  0  0  0  0  0  0
   23.0244   25.0523   11.2581 C   0  0  0  0  0  0  0  0  0  0  0  0
  1  2  1  6  0  0  0
  1  9  1  0  0  0  0
  1 35  1  0  0  0  0
  3  4  1  1  0  0  0
  3 11  1  0  0  0  0
  3 45  1  0  0  0  0
  5  6  1  0  0  0  0
  5 12  1  0  0  0  0
  5 37  1  6  0  0  0
  6 30  1  0  0  0  0
  7 14  1  0  0  0  0
  7 41  1  0  0  0  0
  7 23  1  1  0  0  0
  8 16  2  0  0  0  0
  8 42  1  0  0  0  0
  9 10  1  6  0  0  0
  9 18  1  0  0  0  0
 11 20  1  0  0  0  0
 12 13  1  6  0  0  0
 12 22  1  0  0  0  0
 13 47  1  0  0  0  0
 14 15  1  1  0  0  0
 14 24  1  0  0  0  0
 16 17  1  0  0  0  0
 17 26  2  0  0  0  0
 18 19  1  1  0  0  0
 18 27  1  0  0  0  0
 20 21  1  1  0  0  0
 20 29  1  0  0  0  0
 22 23  1  1  0  0  0
 22 30  1  0  0  0  0
 24 25  1  6  0  0  0
 24 31  1  0  0  0  0
 26 33  1  0  0  0  0
 27 28  1  6  0  0  0
 27 34  1  0  0  0  0
 29  2  1  6  0  0  0
 29 36  1  0  0  0  0
 30 38  1  6  0  0  0
 31 32  1  1  0  0  0
 31 40  1  0  0  0  0
 33 42  2  0  0  0  0
 34 35  1  0  0  0  0
 34 43  1  1  0  0  0
 36 37  1  1  0  0  0
 36 45  1  0  0  0  0
 38 39  1  0  0  0  0
 40 41  1  0  0  0  0
 40 48  1  1  0  0  0
 43 44  1  0  0  0  0
 45 46  1  6  0  0  0
 47 50  1  0  0  0  0
 48 49  1  0  0  0  0
 50 51  1  0  0  0  0
 51 52  1  0  0  0  0
 52  8  1  0  0  0  0
M  END
>  <CHROM.1>
151.38646529,-79.79743399,-141.23405214,18.25420710,135.75239420,-174.43895975
-117.18682364,63.59132639,-162.38186541,-124.03821551,61.35740067,-140.31001976
-50.62108468,121.02473307,-179.78447798,26.52686614,28.16306493,8.50871916
-0.95981895,-0.24581046,-0.39619958

>  <Name>
2be0_lig

>  <RI>
0

>  <Rbt.Current_Directory>
/home/itssahil/PROJECTS/Mol_Feturizer/New_Systems/rnas/2be0

>  <Rbt.Executable>
rbdock ($Id: //depot/dev/client3/rdock/2013.1/src/exe/rbdock.cxx#4 $)

>  <Rbt.Library>
libRbt.so (2013.1, Build901 2013/11/27)

>  <Rbt.Parameter_File>
/export/apps/rDock/src/rDock_2013.1_src/data/scripts/dock_solv.prm

>  <Rbt.Receptor>
prm/blind_docking_80.prm

>  <SCORE>
30.8524

>  <SCORE.INTER>
2.47632

>  <SCORE.INTER.CONST>
1

>  <SCORE.INTER.POLAR>
-0.0111357

>  <SCORE.INTER.ROT>
15

>  <SCORE.INTER.SOLV>
38.0213

>  <SCORE.INTER.VDW>
-24.5858

>  <SCORE.INTER.norm>
0.0476215

>  <SCORE.INTRA>
8.70798

>  <SCORE.INTRA.DIHEDRAL>
-4.43399

>  <SCORE.INTRA.DIHEDRAL.0>
47.8724

>  <SCORE.INTRA.POLAR>
0

>  <SCORE.INTRA.POLAR.0>
0

>  <SCORE.INTRA.REPUL>
0

>  <SCORE.INTRA.REPUL.0>
0

>  <SCORE.INTRA.SOLV>
6.21203

>  <SCORE.INTRA.SOLV.lig_0>
-115.677

>  <SCORE.INTRA.VDW>
7.81896

>  <SCORE.INTRA.VDW.0>
-7.4833

>  <SCORE.INTRA.norm>
0.167461

>  <SCORE.RESTR>
19.6681

>  <SCORE.RESTR.CAVITY>
19.6681

>  <SCORE.RESTR.norm>
0.378233

>  <SCORE.SYSTEM>
0

>  <SCORE.SYSTEM.CONST>
0

>  <SCORE.SYSTEM.DIHEDRAL>
0

>  <SCORE.SYSTEM.SOLV>
0

>  <SCORE.SYSTEM.norm>
0

>  <SCORE.heavy>
52

>  <SCORE.norm>
0.593315

>  <RMSD>
32.349

$$$$
2be0_lig
 OpenBabel11021811423D
libRbt.so/2013.1/901 2013/11/27
 52 56  0  0  0  0  0  0  0  0999 V2000
   24.1723   25.8937    4.3278 C   0  0  2  0  0  0  0  0  0  0  0  0
   23.9923   25.4226    5.6426 O   0  0  0  0  0  0  0  0  0  0  0  0
   26.6553   23.4408    8.5325 C   0  0  2  0  0  0  0  0  0  0  0  0
   27.8808   23.1451    9.3265 N   0  0  0  0  0  0  0  0  0  0  0  0
   25.0474   27.4005    8.9793 C   0  0  2  0  0  0  0  0  0  0  0  0
   24.1893   28.3800    9.5994 O   0  0  0  0  0  0  0  0  0  0  0  0
   24.8929   31.4717    6.4632 C   0  0  1  0  0  0  0  0  0  0  0  0
   31.0688   26.6188   10.7211 C   0  0  0  0  0  0  0  0  0  0  0  0
   25.3341   26.9665    4.2573 C   0  0  2  0  0  0  0  0  0  0  0  0
   26.5587   26.4095    4.8358 N   0  0  0  0  0  0  0  0  0  0  0  0
   27.0158   23.3945    6.9781 C   0  0  0  0  0  0  0  0  0  0  0  0
   26.0528   28.1768    8.1139 C   0  0  2  0  0  0  0  0  0  0  0  0
   27.1364   28.5409    9.0786 O   0  0  0  0  0  0  0  0  0  0  0  0
   25.8829   32.6955    6.0590 C   0  0  2  0  0  0  0  0  0  0  0  0
   26.6125   33.1489    7.2869 N   0  0  0  0  0  0  0  0  0  0  0  0
   30.8189   25.2100   10.6330 C   0  0  0  0  0  0  0  0  0  0  0  0
   30.3817   24.5002   11.7819 N   0  0  0  0  0  0  0  0  0  0  0  0
   24.8757   28.3048    5.0021 C   0  0  1  0  0  0  0  0  0  0  0  0
   25.9325   29.2496    4.9342 O   0  0  0  0  0  0  0  0  0  0  0  0
   25.6986   23.7282    6.0707 C   0  0  2  0  0  0  0  0  0  0  0  0
   26.0092   23.6875    4.6696 N   0  0  0  0  0  0  0  0  0  0  0  0
   25.1078   29.2682    7.5767 C   0  0  2  0  0  0  0  0  0  0  0  0
   25.7112   30.4230    7.0120 O   0  0  0  0  0  0  0  0  0  0  0  0
   25.0080   33.8455    5.4750 C   0  0  1  0  0  0  0  0  0  0  0  0
   24.3569   33.2966    4.2741 O   0  0  0  0  0  0  0  0  0  0  0  0
   30.1746   25.1229   13.0458 C   0  0  0  0  0  0  0  0  0  0  0  0
   23.5812   28.8334    4.3186 C   0  0  2  0  0  0  0  0  0  0  0  0
   23.1035   30.0764    4.9712 O   0  0  0  0  0  0  0  0  0  0  0  0
   25.1349   25.1598    6.4480 C   0  0  2  0  0  0  0  0  0  0  0  0
   24.1868   29.5692    8.7830 C   0  0  1  0  0  0  0  0  0  0  0  0
   23.9079   34.3211    6.5748 C   0  0  2  0  0  0  0  0  0  0  0  0
   24.5516   34.8706    7.7781 O   0  0  0  0  0  0  0  0  0  0  0  0
   30.4042   26.5131   13.1932 C   0  0  0  0  0  0  0  0  0  0  0  0
   22.4366   27.7513    4.3986 C   0  0  2  0  0  0  0  0  0  0  0  0
   22.9647   26.5621    3.7491 O   0  0  0  0  0  0  0  0  0  0  0  0
   24.8079   25.1551    7.9817 C   0  0  2  0  0  0  0  0  0  0  0  0
   24.3044   26.4670    8.2020 O   0  0  0  0  0  0  0  0  0  0  0  0
   22.7392   29.8184    8.3631 C   0  0  0  0  0  0  0  0  0  0  0  0
   22.0684   28.7096    7.8138 O   0  0  0  0  0  0  0  0  0  0  0  0
   22.9891   33.0780    6.9790 C   0  0  1  0  0  0  0  0  0  0  0  0
   23.8819   31.9687    7.4960 O   0  0  0  0  0  0  0  0  0  0  0  0
   30.8623   27.2988   12.0241 C   0  0  0  0  0  0  0  0  0  0  0  0
   21.2503   28.2973    3.7200 C   0  0  0  0  0  0  0  0  0  0  0  0
   21.5325   28.5077    2.4281 O   0  0  0  0  0  0  0  0  0  0  0  0
   26.1137   24.8584    8.8329 C   0  0  1  0  0  0  0  0  0  0  0  0
   25.8055   24.8474   10.1880 O   0  0  0  0  0  0  0  0  0  0  0  0
   28.1864   27.6669    9.6529 C   0  0  0  0  0  0  0  0  0  0  0  0
   21.9702   33.5871    8.0345 C   0  0  0  0  0  0  0  0  0  0  0  0
   20.8804   32.6543    8.1789 N   0  0  0  0  0  0  0  0  0  0  0  0
   29.1400   27.2950    8.5128 C   0  0  0  0  0  0  0  0  0  0  0  0
   30.4033   28.0917    8.6392 N   0  0  0  0  0  0  0  0  0  0  0  0
   31.5613   27.3966    9.4047 C   0  0  0  0  0  0  0  0  0  0  0  0
  1  2  1  1  0  0  0
  1  9  1  0  0  0  0
  1 35  1  0  0  0  0
  3  4  1  1  0  0  0
  3 11  1  0  0  0  0
  3 45  1  0  0  0  0
  5  6  1  0  0  0  0
  5 12  1  0  0  0  0
  5 37  1  6  0  0  0
  6 30  1  0  0  0  0
  7 14  1  0  0  0  0
  7 41  1  0  0  0  0
  7 23  1  1  0  0  0
  8 16  2  0  0  0  0
  8 42  1  0  0  0  0
  9 10  1  1  0  0  0
  9 18  1  0  0  0  0
 11 20  1  0  0  0  0
 12 13  1  1  0  0  0
 12 22  1  0  0  0  0
 13 47  1  0  0  0  0
 14 15  1  1  0  0  0
 14 24  1  0  0  0  0
 16 17  1  0  0  0  0
 17 26  2  0  0  0  0
 18 19  1  6  0  0  0
 18 27  1  0  0  0  0
 20 21  1  6  0  0  0
 20 29  1  0  0  0  0
 22 23  1  1  0  0  0
 22 30  1  0  0  0  0
 24 25  1  6  0  0  0
 24 31  1  0  0  0  0
 26 33  1  0  0  0  0
 27 28  1  1  0  0  0
 27 34  1  0  0  0  0
 29  2  1  6  0  0  0
 29 36  1  0  0  0  0
 30 38  1  6  0  0  0
 31 32  1  1  0  0  0
 31 40  1  0  0  0  0
 33 42  2  0  0  0  0
 34 35  1  0  0  0  0
 34 43  1  6  0  0  0
 36 37  1  1  0  0  0
 36 45  1  0  0  0  0
 38 39  1  0  0  0  0
 40 41  1  0  0  0  0
 40 48  1  1  0  0  0
 43 44  1  0  0  0  0
 45 46  1  1  0  0  0
 47 50  1  0  0  0  0
 48 49  1  0  0  0  0
 50 51  1  0  0  0  0
 51 52  1  0  0  0  0
 52  8  1  0  0  0  0
M  END
>  <CHROM.1>
-40.82536055,-153.36380053,173.88930656,75.01047896,68.77645415,178.64242462
-81.61862683,-50.15293030,62.66256649,-111.67049239,163.97810757,104.00004922
94.18828651,-42.02127874,96.53269230,25.60571234,28.25789663,7.40606553,2.57501268
-0.76153715,0.21923989

>  <Name>
2be0_lig

>  <RI>
0

>  <Rbt.Current_Directory>
/home/itssahil/PROJECTS/Mol_Feturizer/New_Systems/rnas/2be0

>  <Rbt.Executable>
rbdock ($Id: //depot/dev/client3/rdock/2013.1/src/exe/rbdock.cxx#4 $)

>  <Rbt.Library>
libRbt.so (2013.1, Build901 2013/11/27)

>  <Rbt.Parameter_File>
/export/apps/rDock/src/rDock_2013.1_src/data/scripts/dock_solv.prm

>  <Rbt.Receptor>
prm/blind_docking_80.prm

>  <SCORE>
44.7797

>  <SCORE.INTER>
18.9703

>  <SCORE.INTER.CONST>
1

>  <SCORE.INTER.POLAR>
-0.576926

>  <SCORE.INTER.ROT>
15

>  <SCORE.INTER.SOLV>
34.7269

>  <SCORE.INTER.VDW>
-10.6057

>  <SCORE.INTER.norm>
0.364814

>  <SCORE.INTRA>
-0.545458

>  <SCORE.INTRA.DIHEDRAL>
-24.7736

>  <SCORE.INTRA.DIHEDRAL.0>
47.8724

>  <SCORE.INTRA.POLAR>
0

>  <SCORE.INTRA.POLAR.0>
0

>  <SCORE.INTRA.REPUL>
0.0366628

>  <SCORE.INTRA.REPUL.0>
0

>  <SCORE.INTRA.SOLV>
8.70771

>  <SCORE.INTRA.SOLV.lig_0>
-115.677

>  <SCORE.INTRA.VDW>
7.30417

>  <SCORE.INTRA.VDW.0>
-7.4833

>  <SCORE.INTRA.norm>
-0.0104896

>  <SCORE.RESTR>
26.3549

>  <SCORE.RESTR.CAVITY>
26.3549

>  <SCORE.RESTR.norm>
0.506825

>  <SCORE.SYSTEM>
0

>  <SCORE.SYSTEM.CONST>
0

>  <SCORE.SYSTEM.DIHEDRAL>
0

>  <SCORE.SYSTEM.SOLV>
0

>  <SCORE.SYSTEM.norm>
0

>  <SCORE.heavy>
52

>  <SCORE.norm>
0.861149

>  <RMSD>
32.402

$$$$
2be0_lig
 OpenBabel11021811423D
libRbt.so/2013.1/901 2013/11/27
 52 56  0  0  0  0  0  0  0  0999 V2000
   28.5953   24.3614    7.8342 C   0  0  2  0  0  0  0  0  0  0  0  0
   28.4819   25.7092    7.4423 O   0  0  0  0  0  0  0  0  0  0  0  0
   30.6809   27.8750   10.5800 C   0  0  2  0  0  0  0  0  0  0  0  0
   31.5910   28.8699   11.2134 N   0  0  0  0  0  0  0  0  0  0  0  0
   26.1835   27.5022    8.4698 C   0  0  2  0  0  0  0  0  0  0  0  0
   25.7610   27.1263    7.1430 O   0  0  0  0  0  0  0  0  0  0  0  0
   23.4930   31.0815    6.7137 C   0  0  1  0  0  0  0  0  0  0  0  0
   22.1236   24.5245   12.1535 C   0  0  0  0  0  0  0  0  0  0  0  0
   27.2532   23.5690    7.5571 C   0  0  2  0  0  0  0  0  0  0  0  0
   26.8674   23.7237    6.1529 N   0  0  0  0  0  0  0  0  0  0  0  0
   31.4948   27.0438    9.4868 C   0  0  0  0  0  0  0  0  0  0  0  0
   25.1244   28.4747    9.0130 C   0  0  2  0  0  0  0  0  0  0  0  0
   24.0787   27.5699    9.5834 O   0  0  0  0  0  0  0  0  0  0  0  0
   24.9820   31.6281    6.3597 C   0  0  2  0  0  0  0  0  0  0  0  0
   25.6250   32.1211    7.6203 N   0  0  0  0  0  0  0  0  0  0  0  0
   22.3282   23.4150   13.0378 C   0  0  0  0  0  0  0  0  0  0  0  0
   23.1669   23.5660   14.1731 N   0  0  0  0  0  0  0  0  0  0  0  0
   26.1112   24.0821    8.5513 C   0  0  1  0  0  0  0  0  0  0  0  0
   24.9161   23.3656    8.2818 O   0  0  0  0  0  0  0  0  0  0  0  0
   30.5265   25.9486    8.7569 C   0  0  2  0  0  0  0  0  0  0  0  0
   31.2476   25.1923    7.7723 N   0  0  0  0  0  0  0  0  0  0  0  0
   24.8361   29.2566    7.7175 C   0  0  2  0  0  0  0  0  0  0  0  0
   23.6434   30.0265    7.6807 O   0  0  0  0  0  0  0  0  0  0  0  0
   24.8339   32.7818    5.3224 C   0  0  1  0  0  0  0  0  0  0  0  0
   24.2118   32.1838    4.1295 O   0  0  0  0  0  0  0  0  0  0  0  0
   23.8325   24.7847   14.4887 C   0  0  0  0  0  0  0  0  0  0  0  0
   26.5965   23.8698   10.0147 C   0  0  2  0  0  0  0  0  0  0  0  0
   25.5767   24.3326   10.9868 O   0  0  0  0  0  0  0  0  0  0  0  0
   29.3043   26.6857    8.0695 C   0  0  2  0  0  0  0  0  0  0  0  0
   24.9141   28.1697    6.6190 C   0  0  1  0  0  0  0  0  0  0  0  0
   23.9057   33.9674    5.9377 C   0  0  2  0  0  0  0  0  0  0  0  0
   24.5212   34.5696    7.1306 O   0  0  0  0  0  0  0  0  0  0  0  0
   23.6673   25.9159   13.6520 C   0  0  0  0  0  0  0  0  0  0  0  0
   27.9337   24.6659   10.2710 C   0  0  2  0  0  0  0  0  0  0  0  0
   28.8870   24.1724    9.2900 O   0  0  0  0  0  0  0  0  0  0  0  0
   28.5476   27.4930    9.1806 C   0  0  2  0  0  0  0  0  0  0  0  0
   27.4781   28.0950    8.4615 O   0  0  0  0  0  0  0  0  0  0  0  0
   25.5753   28.6803    5.3399 C   0  0  0  0  0  0  0  0  0  0  0  0
   24.7901   29.5468    4.5564 O   0  0  0  0  0  0  0  0  0  0  0  0
   22.4704   33.3763    6.3160 C   0  0  1  0  0  0  0  0  0  0  0  0
   22.6636   32.2299    7.2872 O   0  0  0  0  0  0  0  0  0  0  0  0
   22.8027   25.8096   12.4538 C   0  0  0  0  0  0  0  0  0  0  0  0
   28.3530   24.4101   11.6584 C   0  0  0  0  0  0  0  0  0  0  0  0
   29.3385   25.2540   11.9894 O   0  0  0  0  0  0  0  0  0  0  0  0
   29.5076   28.5667    9.8463 C   0  0  1  0  0  0  0  0  0  0  0  0
   28.8258   29.2661   10.8349 O   0  0  0  0  0  0  0  0  0  0  0  0
   23.1928   26.6232    8.8655 C   0  0  0  0  0  0  0  0  0  0  0  0
   21.6358   34.5455    6.9059 C   0  0  0  0  0  0  0  0  0  0  0  0
   21.2287   35.4547    5.8636 N   0  0  0  0  0  0  0  0  0  0  0  0
   23.2151   25.3033    9.6431 C   0  0  0  0  0  0  0  0  0  0  0  0
   21.8776   24.6361    9.5317 N   0  0  0  0  0  0  0  0  0  0  0  0
   21.1685   24.3253   10.8774 C   0  0  0  0  0  0  0  0  0  0  0  0
  1  2  1  1  0  0  0
  1  9  1  0  0  0  0
  1 35  1  0  0  0  0
  3  4  1  6  0  0  0
  3 11  1  0  0  0  0
  3 45  1  0  0  0  0
  5  6  1  0  0  0  0
  5 12  1  0  0  0  0
  5 37  1  6  0  0  0
  6 30  1  0  0  0  0
  7 14  1  0  0  0  0
  7 41  1  0  0  0  0
  7 23  1  1  0  0  0
  8 16  2  0  0  0  0
  8 42  1  0  0  0  0
  9 10  1  6  0  0  0
  9 18  1  0  0  0  0
 11 20  1  0  0  0  0
 12 13  1  6  0  0  0
 12 22  1  0  0  0  0
 13 47  1  0  0  0  0
 14 15  1  1  0  0  0
 14 24  1  0  0  0  0
 16 17  1  0  0  0  0
 17 26  2  0  0  0  0
 18 19  1  1  0  0  0
 18 27  1  0  0  0  0
 20 21  1  6  0  0  0
 20 29  1  0  0  0  0
 22 23  1  1  0  0  0
 22 30  1  0  0  0  0
 24 25  1  6  0  0  0
 24 31  1  0  0  0  0
 26 33  1  0  0  0  0
 27 28  1  1  0  0  0
 27 34  1  0  0  0  0
 29  2  1  1  0  0  0
 29 36  1  0  0  0  0
 30 38  1  6  0  0  0
 31 32  1  1  0  0  0
 31 40  1  0  0  0  0
 33 42  2  0  0  0  0
 34 35  1  0  0  0  0
 34 43  1  1  0  0  0
 36 37  1  6  0  0  0
 36 45  1  0  0  0  0
 38 39  1  0  0  0  0
 40 41  1  0  0  0  0
 40 48  1  1  0  0  0
 43 44  1  0  0  0  0
 45 46  1  1  0  0  0
 47 50  1  0  0  0  0
 48 49  1  0  0  0  0
 50 51  1  0  0  0  0
 51 52  1  0  0  0  0
 52  8  1  0  0  0  0
M  END
>  <CHROM.1>
154.48961277,-118.96805580,-27.68928391,-66.17863353,134.03913727,161.07924722
18.83537872,169.71265572,-168.72265418,97.94007334,73.48568366,146.98488317
-122.89661229,-10.96764990,-122.72777081,25.77720263,27.64006390,8.78542177
-1.21779672,0.17969984,-0.56151599

>  <Name>
2be0_lig

>  <RI>
0

>  <Rbt.Current_Directory>
/home/itssahil/PROJECTS/Mol_Feturizer/New_Systems/rnas/2be0

>  <Rbt.Executable>
rbdock ($Id: //depot/dev/client3/rdock/2013.1/src/exe/rbdock.cxx#4 $)

>  <Rbt.Library>
libRbt.so (2013.1, Build901 2013/11/27)

>  <Rbt.Parameter_File>
/export/apps/rDock/src/rDock_2013.1_src/data/scripts/dock_solv.prm

>  <Rbt.Receptor>
prm/blind_docking_80.prm

>  <SCORE>
33.6189

>  <SCORE.INTER>
0.756968

>  <SCORE.INTER.CONST>
1

>  <SCORE.INTER.POLAR>
-1.0045

>  <SCORE.INTER.ROT>
15

>  <SCORE.INTER.SOLV>
33.5596

>  <SCORE.INTER.VDW>
-20.9336

>  <SCORE.INTER.norm>
0.0145571

>  <SCORE.INTRA>
5.70002

>  <SCORE.INTRA.DIHEDRAL>
-7.074

>  <SCORE.INTRA.DIHEDRAL.0>
47.8724

>  <SCORE.INTRA.POLAR>
0

>  <SCORE.INTRA.POLAR.0>
0

>  <SCORE.INTRA.REPUL>
0.0948013

>  <SCORE.INTRA.REPUL.0>
0

>  <SCORE.INTRA.SOLV>
3.65543

>  <SCORE.INTRA.SOLV.lig_0>
-115.677

>  <SCORE.INTRA.VDW>
6.9353

>  <SCORE.INTRA.VDW.0>
-7.4833

>  <SCORE.INTRA.norm>
0.109616

>  <SCORE.RESTR>
27.162

>  <SCORE.RESTR.CAVITY>
27.162

>  <SCORE.RESTR.norm>
0.522345

>  <SCORE.SYSTEM>
0

>  <SCORE.SYSTEM.CONST>
0

>  <SCORE.SYSTEM.DIHEDRAL>
0

>  <SCORE.SYSTEM.SOLV>
0

>  <SCORE.SYSTEM.norm>
0

>  <SCORE.heavy>
52

>  <SCORE.norm>
0.646518

>  <RMSD>
32.427

$$$$
2be0_lig
 OpenBabel11021811423D
libRbt.so/2013.1/901 2013/11/27
 52 56  0  0  0  0  0  0  0  0999 V2000
   25.7653   22.9833    7.3886 C   0  0  2  0  0  0  0  0  0  0  0  0
   24.5948   23.5992    7.8718 O   0  0  0  0  0  0  0  0  0  0  0  0
   23.1251   24.3028   11.9603 C   0  0  2  0  0  0  0  0  0  0  0  0
   23.1199   24.7293   13.3877 N   0  0  0  0  0  0  0  0  0  0  0  0
   24.5881   27.0923    8.9162 C   0  0  2  0  0  0  0  0  0  0  0  0
   24.0270   28.1454    9.7265 O   0  0  0  0  0  0  0  0  0  0  0  0
   23.4162   30.9761    6.4017 C   0  0  1  0  0  0  0  0  0  0  0  0
   30.2484   26.1386   10.3413 C   0  0  0  0  0  0  0  0  0  0  0  0
   27.0563   23.7986    7.8063 C   0  0  2  0  0  0  0  0  0  0  0  0
   27.0718   23.9924    9.2578 N   0  0  0  0  0  0  0  0  0  0  0  0
   24.3230   23.2740   11.7265 C   0  0  0  0  0  0  0  0  0  0  0  0
   25.1485   27.7588    7.6496 C   0  0  2  0  0  0  0  0  0  0  0  0
   26.5185   28.1956    8.0615 O   0  0  0  0  0  0  0  0  0  0  0  0
   23.5079   31.4719    4.8567 C   0  0  2  0  0  0  0  0  0  0  0  0
   24.9144   31.9049    4.5737 N   0  0  0  0  0  0  0  0  0  0  0  0
   31.4589   25.8663   11.0592 C   0  0  0  0  0  0  0  0  0  0  0  0
   31.4055   25.1405   12.2780 N   0  0  0  0  0  0  0  0  0  0  0  0
   27.0931   25.1882    7.0167 C   0  0  1  0  0  0  0  0  0  0  0  0
   28.2523   25.9060    7.4105 O   0  0  0  0  0  0  0  0  0  0  0  0
   24.3723   22.7916   10.1661 C   0  0  2  0  0  0  0  0  0  0  0  0
   25.4448   21.8635    9.9430 N   0  0  0  0  0  0  0  0  0  0  0  0
   24.0443   28.8097    7.4282 C   0  0  2  0  0  0  0  0  0  0  0  0
   24.3476   29.8905    6.5585 O   0  0  0  0  0  0  0  0  0  0  0  0
   22.5132   32.6579    4.6752 C   0  0  1  0  0  0  0  0  0  0  0  0
   21.1737   32.1175    4.9602 O   0  0  0  0  0  0  0  0  0  0  0  0
   30.1893   24.6586   12.8408 C   0  0  0  0  0  0  0  0  0  0  0  0
   27.0872   24.8902    5.4892 C   0  0  2  0  0  0  0  0  0  0  0  0
   27.1165   26.1461    4.7012 O   0  0  0  0  0  0  0  0  0  0  0  0
   24.5537   24.0495    9.2204 C   0  0  2  0  0  0  0  0  0  0  0  0
   23.6737   29.2472    8.8653 C   0  0  1  0  0  0  0  0  0  0  0  0
   22.8913   33.8630    5.7003 C   0  0  2  0  0  0  0  0  0  0  0  0
   24.2291   34.4078    5.4216 O   0  0  0  0  0  0  0  0  0  0  0  0
   28.9613   24.8964   12.1756 C   0  0  0  0  0  0  0  0  0  0  0  0
   25.7948   24.0776    5.0930 C   0  0  2  0  0  0  0  0  0  0  0  0
   25.8217   22.8665    5.8975 O   0  0  0  0  0  0  0  0  0  0  0  0
   23.3614   25.0300    9.4965 C   0  0  2  0  0  0  0  0  0  0  0  0
   23.6174   26.1010    8.5960 O   0  0  0  0  0  0  0  0  0  0  0  0
   22.1736   29.4820    9.0345 C   0  0  0  0  0  0  0  0  0  0  0  0
   21.3567   28.3551    8.8242 O   0  0  0  0  0  0  0  0  0  0  0  0
   22.8361   33.3199    7.2019 C   0  0  1  0  0  0  0  0  0  0  0  0
   23.7800   32.1412    7.3215 O   0  0  0  0  0  0  0  0  0  0  0  0
   28.9632   25.6501   10.9003 C   0  0  0  0  0  0  0  0  0  0  0  0
   25.8559   23.8082    3.6474 C   0  0  0  0  0  0  0  0  0  0  0  0
   26.0599   24.9554    2.9879 O   0  0  0  0  0  0  0  0  0  0  0  0
   23.3620   25.5016   11.0114 C   0  0  1  0  0  0  0  0  0  0  0  0
   22.2944   26.3610   11.2423 O   0  0  0  0  0  0  0  0  0  0  0  0
   26.9337   28.8433    9.3282 C   0  0  0  0  0  0  0  0  0  0  0  0
   23.2151   34.5054    8.1306 C   0  0  0  0  0  0  0  0  0  0  0  0
   24.2648   35.2976    7.5395 N   0  0  0  0  0  0  0  0  0  0  0  0
   28.1943   28.1210    9.8145 C   0  0  0  0  0  0  0  0  0  0  0  0
   29.0387   27.7426    8.6353 N   0  0  0  0  0  0  0  0  0  0  0  0
   30.3390   26.9608    8.9642 C   0  0  0  0  0  0  0  0  0  0  0  0
  1  2  1  6  0  0  0
  1  9  1  0  0  0  0
  1 35  1  0  0  0  0
  3  4  1  1  0  0  0
  3 11  1  0  0  0  0
  3 45  1  0  0  0  0
  5  6  1  0  0  0  0
  5 12  1  0  0  0  0
  5 37  1  6  0  0  0
  6 30  1  0  0  0  0
  7 14  1  0  0  0  0
  7 41  1  0  0  0  0
  7 23  1  6  0  0  0
  8 16  2  0  0  0  0
  8 42  1  0  0  0  0
  9 10  1  1  0  0  0
  9 18  1  0  0  0  0
 11 20  1  0  0  0  0
 12 13  1  1  0  0  0
 12 22  1  0  0  0  0
 13 47  1  0  0  0  0
 14 15  1  1  0  0  0
 14 24  1  0  0  0  0
 16 17  1  0  0  0  0
 17 26  2  0  0  0  0
 18 19  1  1  0  0  0
 18 27  1  0  0  0  0
 20 21  1  1  0  0  0
 20 29  1  0  0  0  0
 22 23  1  6  0  0  0
 22 30  1  0  0  0  0
 24 25  1  1  0  0  0
 24 31  1  0  0  0  0
 26 33  1  0  0  0  0
 27 28  1  6  0  0  0
 27 34  1  0  0  0  0
 29  2  1  6  0  0  0
 29 36  1  0  0  0  0
 30 38  1  6  0  0  0
 31 32  1  6  0  0  0
 31 40  1  0  0  0  0
 33 42  2  0  0  0  0
 34 35  1  0  0  0  0
 34 43  1  6  0  0  0
 36 37  1  6  0  0  0
 36 45  1  0  0  0  0
 38 39  1  0  0  0  0
 40 41  1  0  0  0  0
 40 48  1  1  0  0  0
 43 44  1  0  0  0  0
 45 46  1  6  0  0  0
 47 50  1  0  0  0  0
 48 49  1  0  0  0  0
 50 51  1  0  0  0  0
 51 52  1  0  0  0  0
 52  8  1  0  0  0  0
M  END
>  <CHROM.1>
-45.89832373,-85.54386844,-145.11306311,-43.07806300,133.91093497,-174.07802530
-75.84325673,-54.14515115,-52.60882337,-79.34509595,-38.43814921,36.58526533
-178.24802847,25.85244161,-153.26864608,25.40525641,27.33972628,8.20582150
0.98209456,0.76022926,-3.11017946

>  <Name>
2be0_lig

>  <RI>
0

>  <Rbt.Current_Directory>
/home/itssahil/PROJECTS/Mol_Feturizer/New_Systems/rnas/2be0

>  <Rbt.Executable>
rbdock ($Id: //depot/dev/client3/rdock/2013.1/src/exe/rbdock.cxx#4 $)

>  <Rbt.Library>
libRbt.so (2013.1, Build901 2013/11/27)

>  <Rbt.Parameter_File>
/export/apps/rDock/src/rDock_2013.1_src/data/scripts/dock_solv.prm

>  <Rbt.Receptor>
prm/blind_docking_80.prm

>  <SCORE>
85.6477

>  <SCORE.INTER>
49.2483

>  <SCORE.INTER.CONST>
1

>  <SCORE.INTER.POLAR>
-0.805038

>  <SCORE.INTER.ROT>
15

>  <SCORE.INTER.SOLV>
27.9595

>  <SCORE.INTER.VDW>
12.5958

>  <SCORE.INTER.norm>
0.947082

>  <SCORE.INTRA>
5.50663

>  <SCORE.INTRA.DIHEDRAL>
-23.578

>  <SCORE.INTRA.DIHEDRAL.0>
47.8724

>  <SCORE.INTRA.POLAR>
0

>  <SCORE.INTRA.POLAR.0>
0

>  <SCORE.INTRA.REPUL>
0.00674605

>  <SCORE.INTRA.REPUL.0>
0

>  <SCORE.INTRA.SOLV>
10.1544

>  <SCORE.INTRA.SOLV.lig_0>
-115.677

>  <SCORE.INTRA.VDW>
12.1847

>  <SCORE.INTRA.VDW.0>
-7.4833

>  <SCORE.INTRA.norm>
0.105897

>  <SCORE.RESTR>
30.8928

>  <SCORE.RESTR.CAVITY>
30.8928

>  <SCORE.RESTR.norm>
0.594093

>  <SCORE.SYSTEM>
0

>  <SCORE.SYSTEM.CONST>
0

>  <SCORE.SYSTEM.DIHEDRAL>
0

>  <SCORE.SYSTEM.SOLV>
0

>  <SCORE.SYSTEM.norm>
0

>  <SCORE.heavy>
52

>  <SCORE.norm>
1.64707

>  <RMSD>
32.448

$$$$
2be0_lig
 OpenBabel11021811423D
libRbt.so/2013.1/901 2013/11/27
 52 56  0  0  0  0  0  0  0  0999 V2000
   30.1479   28.5475   10.0504 C   0  0  2  0  0  0  0  0  0  0  0  0
   29.5474   27.9601    8.9203 O   0  0  0  0  0  0  0  0  0  0  0  0
   27.1750   24.3920    7.9147 C   0  0  2  0  0  0  0  0  0  0  0  0
   26.4066   23.1291    8.0992 N   0  0  0  0  0  0  0  0  0  0  0  0
   26.0461   29.0149    8.4482 C   0  0  2  0  0  0  0  0  0  0  0  0
   24.9552   29.5308    9.2382 O   0  0  0  0  0  0  0  0  0  0  0  0
   23.4043   26.9088    5.5757 C   0  0  1  0  0  0  0  0  0  0  0  0
   23.9848   34.7613    6.1505 C   0  0  0  0  0  0  0  0  0  0  0  0
   31.7201   28.6304    9.8861 C   0  0  2  0  0  0  0  0  0  0  0  0
   32.0521   29.3234    8.6395 N   0  0  0  0  0  0  0  0  0  0  0  0
   28.6348   24.2108    8.5347 C   0  0  0  0  0  0  0  0  0  0  0  0
   25.4315   28.4594    7.1535 C   0  0  2  0  0  0  0  0  0  0  0  0
   25.3357   29.6612    6.2682 O   0  0  0  0  0  0  0  0  0  0  0  0
   22.3585   25.6800    5.3817 C   0  0  2  0  0  0  0  0  0  0  0  0
   22.5256   24.7224    6.5221 N   0  0  0  0  0  0  0  0  0  0  0  0
   24.0081   36.0356    6.8065 C   0  0  0  0  0  0  0  0  0  0  0  0
   24.4522   37.1830    6.0986 N   0  0  0  0  0  0  0  0  0  0  0  0
   32.3442   27.1595    9.9373 C   0  0  1  0  0  0  0  0  0  0  0  0
   33.7515   27.2553    9.7808 O   0  0  0  0  0  0  0  0  0  0  0  0
   29.5073   25.5819    8.3650 C   0  0  2  0  0  0  0  0  0  0  0  0
   30.8241   25.4313    8.9170 N   0  0  0  0  0  0  0  0  0  0  0  0
   24.1511   27.8417    7.7467 C   0  0  2  0  0  0  0  0  0  0  0  0
   23.1048   27.5300    6.8387 O   0  0  0  0  0  0  0  0  0  0  0  0
   22.6800   24.9885    4.0225 C   0  0  1  0  0  0  0  0  0  0  0  0
   22.4685   26.0089    2.9826 O   0  0  0  0  0  0  0  0  0  0  0  0
   24.8873   37.1376    4.7433 C   0  0  0  0  0  0  0  0  0  0  0  0
   31.9554   26.5035   11.2941 C   0  0  2  0  0  0  0  0  0  0  0  0
   32.5048   25.1301   11.3988 O   0  0  0  0  0  0  0  0  0  0  0  0
   28.7651   26.7833    9.0830 C   0  0  2  0  0  0  0  0  0  0  0  0
   23.7450   28.8497    8.8481 C   0  0  1  0  0  0  0  0  0  0  0  0
   24.2169   24.4555    4.0192 C   0  0  2  0  0  0  0  0  0  0  0  0
   24.4358   23.4355    5.0565 O   0  0  0  0  0  0  0  0  0  0  0  0
   24.8854   35.9063    4.0428 C   0  0  0  0  0  0  0  0  0  0  0  0
   30.3866   26.4303   11.4394 C   0  0  2  0  0  0  0  0  0  0  0  0
   29.9103   27.7996   11.3249 O   0  0  0  0  0  0  0  0  0  0  0  0
   27.3375   26.9110    8.4468 C   0  0  2  0  0  0  0  0  0  0  0  0
   26.7754   28.0129    9.1492 O   0  0  0  0  0  0  0  0  0  0  0  0
   23.1995   28.1596   10.0973 C   0  0  0  0  0  0  0  0  0  0  0  0
   23.6185   26.8292   10.2861 O   0  0  0  0  0  0  0  0  0  0  0  0
   25.2065   25.6864    4.2610 C   0  0  1  0  0  0  0  0  0  0  0  0
   24.8294   26.3568    5.5661 O   0  0  0  0  0  0  0  0  0  0  0  0
   24.4317   34.6792    4.7375 C   0  0  0  0  0  0  0  0  0  0  0  0
   30.0815   25.8235   12.7450 C   0  0  0  0  0  0  0  0  0  0  0  0
   30.4916   24.5489   12.7514 O   0  0  0  0  0  0  0  0  0  0  0  0
   26.5083   25.5747    8.6564 C   0  0  1  0  0  0  0  0  0  0  0  0
   25.2505   25.7000    8.0785 O   0  0  0  0  0  0  0  0  0  0  0  0
   25.9370   31.0007    6.4701 C   0  0  0  0  0  0  0  0  0  0  0  0
   26.6516   25.1180    4.2590 C   0  0  0  0  0  0  0  0  0  0  0  0
   26.7611   24.0071    5.1716 N   0  0  0  0  0  0  0  0  0  0  0  0
   25.1158   31.9953    5.6432 C   0  0  0  0  0  0  0  0  0  0  0  0
   23.7508   32.1378    6.2458 N   0  0  0  0  0  0  0  0  0  0  0  0
   23.4762   33.4803    6.9755 C   0  0  0  0  0  0  0  0  0  0  0  0
  1  2  1  6  0  0  0
  1  9  1  0  0  0  0
  1 35  1  0  0  0  0
  3  4  1  1  0  0  0
  3 11  1  0  0  0  0
  3 45  1  0  0  0  0
  5  6  1  0  0  0  0
  5 12  1  0  0  0  0
  5 37  1  1  0  0  0
  6 30  1  0  0  0  0
  7 14  1  0  0  0  0
  7 41  1  0  0  0  0
  7 23  1  1  0  0  0
  8 16  2  0  0  0  0
  8 42  1  0  0  0  0
  9 10  1  6  0  0  0
  9 18  1  0  0  0  0
 11 20  1  0  0  0  0
 12 13  1  6  0  0  0
 12 22  1  0  0  0  0
 13 47  1  0  0  0  0
 14 15  1  1  0  0  0
 14 24  1  0  0  0  0
 16 17  1  0  0  0  0
 17 26  2  0  0  0  0
 18 19  1  1  0  0  0
 18 27  1  0  0  0  0
 20 21  1  1  0  0  0
 20 29  1  0  0  0  0
 22 23  1  6  0  0  0
 22 30  1  0  0  0  0
 24 25  1  6  0  0  0
 24 31  1  0  0  0  0
 26 33  1  0  0  0  0
 27 28  1  6  0  0  0
 27 34  1  0  0  0  0
 29  2  1  6  0  0  0
 29 36  1  0  0  0  0
 30 38  1  1  0  0  0
 31 32  1  1  0  0  0
 31 40  1  0  0  0  0
 33 42  2  0  0  0  0
 34 35  1  0  0  0  0
 34 43  1  1  0  0  0
 36 37  1  1  0  0  0
 36 45  1  0  0  0  0
 38 39  1  0  0  0  0
 40 41  1  0  0  0  0
 40 48  1  1  0  0  0
 43 44  1  0  0  0  0
 45 46  1  6  0  0  0
 47 50  1  0  0  0  0
 48 49  1  0  0  0  0
 50 51  1  0  0  0  0
 51 52  1  0  0  0  0
 52  8  1  0  0  0  0
M  END
>  <CHROM.1>
121.46932511,145.34572450,133.39158464,11.28439478,-157.38242265,42.67423669
-113.13343634,-92.30584190,-66.18268724,136.54841327,-51.72246954,68.69859718
107.70875700,44.80225502,-169.17461422,26.59977152,27.97236065,7.71399911
-0.71427346,-0.59941920,-0.01158071

>  <Name>
2be0_lig

>  <RI>
0

>  <Rbt.Current_Directory>
/home/itssahil/PROJECTS/Mol_Feturizer/New_Systems/rnas/2be0

>  <Rbt.Executable>
rbdock ($Id: //depot/dev/client3/rdock/2013.1/src/exe/rbdock.cxx#4 $)

>  <Rbt.Library>
libRbt.so (2013.1, Build901 2013/11/27)

>  <Rbt.Parameter_File>
/export/apps/rDock/src/rDock_2013.1_src/data/scripts/dock_solv.prm

>  <Rbt.Receptor>
prm/blind_docking_80.prm

>  <SCORE>
52.0333

>  <SCORE.INTER>
1.23418

>  <SCORE.INTER.CONST>
1

>  <SCORE.INTER.POLAR>
-0.0109076

>  <SCORE.INTER.ROT>
15

>  <SCORE.INTER.SOLV>
25.534

>  <SCORE.INTER.VDW>
-21.2522

>  <SCORE.INTER.norm>
0.0237341

>  <SCORE.INTRA>
18.4783

>  <SCORE.INTRA.DIHEDRAL>
-1.49387

>  <SCORE.INTRA.DIHEDRAL.0>
47.8724

>  <SCORE.INTRA.POLAR>
0

>  <SCORE.INTRA.POLAR.0>
0

>  <SCORE.INTRA.REPUL>
0.123247

>  <SCORE.INTRA.REPUL.0>
0

>  <SCORE.INTRA.SOLV>
13.1059

>  <SCORE.INTRA.SOLV.lig_0>
-115.677

>  <SCORE.INTRA.VDW>
12.0561

>  <SCORE.INTRA.VDW.0>
-7.4833

>  <SCORE.INTRA.norm>
0.355353

>  <SCORE.RESTR>
32.3208

>  <SCORE.RESTR.CAVITY>
32.3208

>  <SCORE.RESTR.norm>
0.621554

>  <SCORE.SYSTEM>
0

>  <SCORE.SYSTEM.CONST>
0

>  <SCORE.SYSTEM.DIHEDRAL>
0

>  <SCORE.SYSTEM.SOLV>
0

>  <SCORE.SYSTEM.norm>
0

>  <SCORE.heavy>
52

>  <SCORE.norm>
1.00064

>  <RMSD>
32.466

$$$$
2be0_lig
 OpenBabel11021811423D
libRbt.so/2013.1/901 2013/11/27
 52 56  0  0  0  0  0  0  0  0999 V2000
   29.0932   26.7498   10.5572 C   0  0  2  0  0  0  0  0  0  0  0  0
   29.1504   26.4641    9.1795 O   0  0  0  0  0  0  0  0  0  0  0  0
   26.8714   24.1061    6.2440 C   0  0  2  0  0  0  0  0  0  0  0  0
   25.7471   23.3350    5.6433 N   0  0  0  0  0  0  0  0  0  0  0  0
   26.0116   28.0150    7.9847 C   0  0  2  0  0  0  0  0  0  0  0  0
   25.0382   28.0231    6.9203 O   0  0  0  0  0  0  0  0  0  0  0  0
   24.8699   32.3628    6.4236 C   0  0  1  0  0  0  0  0  0  0  0  0
   22.8800   24.6064   11.0801 C   0  0  0  0  0  0  0  0  0  0  0  0
   30.2609   27.7274   10.9889 C   0  0  2  0  0  0  0  0  0  0  0  0
   30.2326   28.9313   10.1556 N   0  0  0  0  0  0  0  0  0  0  0  0
   27.2776   23.4393    7.6363 C   0  0  0  0  0  0  0  0  0  0  0  0
   25.9628   29.4044    8.6402 C   0  0  2  0  0  0  0  0  0  0  0  0
   24.8505   29.2835    9.6330 O   0  0  0  0  0  0  0  0  0  0  0  0
   24.7111   33.9007    6.9243 C   0  0  2  0  0  0  0  0  0  0  0  0
   23.7149   33.9412    8.0431 N   0  0  0  0  0  0  0  0  0  0  0  0
   21.8382   23.9953   11.8522 C   0  0  0  0  0  0  0  0  0  0  0  0
   22.0152   23.8076   13.2481 N   0  0  0  0  0  0  0  0  0  0  0  0
   31.6631   26.9656   10.8919 C   0  0  1  0  0  0  0  0  0  0  0  0
   32.6958   27.8604   11.2752 O   0  0  0  0  0  0  0  0  0  0  0  0
   28.5012   24.2658    8.3360 C   0  0  2  0  0  0  0  0  0  0  0  0
   28.8777   23.6743    9.5889 N   0  0  0  0  0  0  0  0  0  0  0  0
   25.7675   30.2565    7.3719 C   0  0  2  0  0  0  0  0  0  0  0  0
   25.3092   31.5882    7.5539 O   0  0  0  0  0  0  0  0  0  0  0  0
   24.2220   34.7502    5.7125 C   0  0  1  0  0  0  0  0  0  0  0  0
   25.2766   34.6517    4.6900 O   0  0  0  0  0  0  0  0  0  0  0  0
   23.1969   24.1996   13.9394 C   0  0  0  0  0  0  0  0  0  0  0  0
   31.6106   25.7125   11.8134 C   0  0  2  0  0  0  0  0  0  0  0  0
   32.8872   24.9596   11.7623 O   0  0  0  0  0  0  0  0  0  0  0  0
   28.0682   25.7717    8.5689 C   0  0  2  0  0  0  0  0  0  0  0  0
   24.8336   29.3868    6.4971 C   0  0  1  0  0  0  0  0  0  0  0  0
   22.8089   34.1660    5.1578 C   0  0  2  0  0  0  0  0  0  0  0  0
   21.7501   34.2609    6.1748 O   0  0  0  0  0  0  0  0  0  0  0  0
   24.2601   24.8097   13.2292 C   0  0  0  0  0  0  0  0  0  0  0  0
   30.4417   24.7517   11.3682 C   0  0  2  0  0  0  0  0  0  0  0  0
   29.2247   25.5450   11.4355 O   0  0  0  0  0  0  0  0  0  0  0  0
   27.6703   26.3746    7.1771 C   0  0  2  0  0  0  0  0  0  0  0  0
   27.3168   27.7137    7.5016 O   0  0  0  0  0  0  0  0  0  0  0  0
   25.1959   29.4524    5.0143 C   0  0  0  0  0  0  0  0  0  0  0  0
   24.9659   28.2726    4.2819 O   0  0  0  0  0  0  0  0  0  0  0  0
   22.9988   32.6404    4.7229 C   0  0  1  0  0  0  0  0  0  0  0  0
   23.5187   31.8623    5.9141 O   0  0  0  0  0  0  0  0  0  0  0  0
   24.1249   25.0271   11.7702 C   0  0  0  0  0  0  0  0  0  0  0  0
   30.4284   23.6010   12.2856 C   0  0  0  0  0  0  0  0  0  0  0  0
   30.1024   24.0152   13.5164 O   0  0  0  0  0  0  0  0  0  0  0  0
   26.4612   25.5679    6.5411 C   0  0  1  0  0  0  0  0  0  0  0  0
   26.1276   26.1076    5.3046 O   0  0  0  0  0  0  0  0  0  0  0  0
   23.5657   28.5589    9.4889 C   0  0  0  0  0  0  0  0  0  0  0  0
   21.6211   32.1353    4.2147 C   0  0  0  0  0  0  0  0  0  0  0  0
   21.6778   30.7272    3.9100 N   0  0  0  0  0  0  0  0  0  0  0  0
   23.8966   27.0669    9.3814 C   0  0  0  0  0  0  0  0  0  0  0  0
   22.6463   26.2995    9.0738 N   0  0  0  0  0  0  0  0  0  0  0  0
   22.6518   24.8075    9.5028 C   0  0  0  0  0  0  0  0  0  0  0  0
  1  2  1  6  0  0  0
  1  9  1  0  0  0  0
  1 35  1  0  0  0  0
  3  4  1  1  0  0  0
  3 11  1  0  0  0  0
  3 45  1  0  0  0  0
  5  6  1  0  0  0  0
  5 12  1  0  0  0  0
  5 37  1  6  0  0  0
  6 30  1  0  0  0  0
  7 14  1  0  0  0  0
  7 41  1  0  0  0  0
  7 23  1  1  0  0  0
  8 16  2  0  0  0  0
  8 42  1  0  0  0  0
  9 10  1  6  0  0  0
  9 18  1  0  0  0  0
 11 20  1  0  0  0  0
 12 13  1  1  0  0  0
 12 22  1  0  0  0  0
 13 47  1  0  0  0  0
 14 15  1  1  0  0  0
 14 24  1  0  0  0  0
 16 17  1  0  0  0  0
 17 26  2  0  0  0  0
 18 19  1  1  0  0  0
 18 27  1  0  0  0  0
 20 21  1  1  0  0  0
 20 29  1  0  0  0  0
 22 23  1  1  0  0  0
 22 30  1  0  0  0  0
 24 25  1  6  0  0  0
 24 31  1  0  0  0  0
 26 33  1  0  0  0  0
 27 28  1  6  0  0  0
 27 34  1  0  0  0  0
 29  2  1  6  0  0  0
 29 36  1  0  0  0  0
 30 38  1  6  0  0  0
 31 32  1  1  0  0  0
 31 40  1  0  0  0  0
 33 42  2  0  0  0  0
 34 35  1  0  0  0  0
 34 43  1  1  0  0  0
 36 37  1  1  0  0  0
 36 45  1  0  0  0  0
 38 39  1  0  0  0  0
 40 41  1  0  0  0  0
 40 48  1  1  0  0  0
 43 44  1  0  0  0  0
 45 46  1  6  0  0  0
 47 50  1  0  0  0  0
 48 49  1  0  0  0  0
 50 51  1  0  0  0  0
 51 52  1  0  0  0  0
 52  8  1  0  0  0  0
M  END
>  <CHROM.1>
-170.38584861,-76.91224145,-168.57528085,-38.08843683,65.43145075,-168.58242789
-103.46031374,30.74582695,65.66256868,-83.21785982,-175.01162333,-173.45596097
-155.45045629,59.14460476,117.12419727,26.12951569,27.84333234,8.55157997
-1.03917467,-0.13234261,-0.55272859

>  <Name>
2be0_lig

>  <RI>
0

>  <Rbt.Current_Directory>
/home/itssahil/PROJECTS/Mol_Feturizer/New_Systems/rnas/2be0

>  <Rbt.Executable>
rbdock ($Id: //depot/dev/client3/rdock/2013.1/src/exe/rbdock.cxx#4 $)

>  <Rbt.Library>
libRbt.so (2013.1, Build901 2013/11/27)

>  <Rbt.Parameter_File>
/export/apps/rDock/src/rDock_2013.1_src/data/scripts/dock_solv.prm

>  <Rbt.Receptor>
prm/blind_docking_80.prm

>  <SCORE>
24.9457

>  <SCORE.INTER>
8.28048

>  <SCORE.INTER.CONST>
1

>  <SCORE.INTER.POLAR>
0

>  <SCORE.INTER.ROT>
15

>  <SCORE.INTER.SOLV>
30.7525

>  <SCORE.INTER.VDW>
-18.3305

>  <SCORE.INTER.norm>
0.15924

>  <SCORE.INTRA>
-6.59031

>  <SCORE.INTRA.DIHEDRAL>
-30.0811

>  <SCORE.INTRA.DIHEDRAL.0>
47.8724

>  <SCORE.INTRA.POLAR>
0

>  <SCORE.INTRA.POLAR.0>
0

>  <SCORE.INTRA.REPUL>
0

>  <SCORE.INTRA.REPUL.0>
0

>  <SCORE.INTRA.SOLV>
1.90623

>  <SCORE.INTRA.SOLV.lig_0>
-115.677

>  <SCORE.INTRA.VDW>
7.4971

>  <SCORE.INTRA.VDW.0>
-7.4833

>  <SCORE.INTRA.norm>
-0.126737

>  <SCORE.RESTR>
23.2556

>  <SCORE.RESTR.CAVITY>
23.2556

>  <SCORE.RESTR.norm>
0.447223

>  <SCORE.SYSTEM>
0

>  <SCORE.SYSTEM.CONST>
0

>  <SCORE.SYSTEM.DIHEDRAL>
0

>  <SCORE.SYSTEM.SOLV>
0

>  <SCORE.SYSTEM.norm>
0

>  <SCORE.heavy>
52

>  <SCORE.norm>
0.479726

>  <RMSD>
32.478

$$$$
2be0_lig
 OpenBabel11021811423D
libRbt.so/2013.1/901 2013/11/27
 52 56  0  0  0  0  0  0  0  0999 V2000
   29.1047   26.9306   10.1185 C   0  0  2  0  0  0  0  0  0  0  0  0
   28.8418   26.1032    9.0098 O   0  0  0  0  0  0  0  0  0  0  0  0
   25.8104   23.1940    7.6990 C   0  0  2  0  0  0  0  0  0  0  0  0
   24.5688   22.3709    7.7104 N   0  0  0  0  0  0  0  0  0  0  0  0
   25.2322   27.4491    7.8363 C   0  0  2  0  0  0  0  0  0  0  0  0
   24.6224   27.7760    6.5708 O   0  0  0  0  0  0  0  0  0  0  0  0
   24.3097   31.8499    7.0280 C   0  0  1  0  0  0  0  0  0  0  0  0
   23.8212   24.4019   11.7443 C   0  0  0  0  0  0  0  0  0  0  0  0
   30.4904   27.6792    9.9593 C   0  0  2  0  0  0  0  0  0  0  0  0
   30.5185   28.4045    8.6874 N   0  0  0  0  0  0  0  0  0  0  0  0
   26.6354   22.9142    9.0367 C   0  0  0  0  0  0  0  0  0  0  0  0
   25.2022   28.7294    8.6863 C   0  0  2  0  0  0  0  0  0  0  0  0
   23.8445   28.7009    9.3134 O   0  0  0  0  0  0  0  0  0  0  0  0
   25.1379   32.3419    5.7190 C   0  0  2  0  0  0  0  0  0  0  0  0
   26.2836   33.1968    6.1687 N   0  0  0  0  0  0  0  0  0  0  0  0
   22.6420   23.5926   11.6477 C   0  0  0  0  0  0  0  0  0  0  0  0
   21.8671   23.3374   12.8094 N   0  0  0  0  0  0  0  0  0  0  0  0
   31.6869   26.6251   10.0733 C   0  0  1  0  0  0  0  0  0  0  0  0
   32.9181   27.3142    9.9206 O   0  0  0  0  0  0  0  0  0  0  0  0
   28.0010   23.8108    9.0699 C   0  0  2  0  0  0  0  0  0  0  0  0
   28.7537   23.5665   10.2678 N   0  0  0  0  0  0  0  0  0  0  0  0
   25.5126   29.7545    7.5793 C   0  0  2  0  0  0  0  0  0  0  0  0
   25.2245   31.1160    7.8618 O   0  0  0  0  0  0  0  0  0  0  0  0
   24.1622   33.1508    4.8119 C   0  0  1  0  0  0  0  0  0  0  0  0
   23.0951   32.2153    4.4201 O   0  0  0  0  0  0  0  0  0  0  0  0
   22.2043   23.8504   14.0944 C   0  0  0  0  0  0  0  0  0  0  0  0
   31.5892   25.9123   11.4534 C   0  0  2  0  0  0  0  0  0  0  0  0
   32.6750   24.9157   11.6165 O   0  0  0  0  0  0  0  0  0  0  0  0
   27.6359   25.3495    8.9770 C   0  0  2  0  0  0  0  0  0  0  0  0
   24.7545   29.1956    6.3516 C   0  0  1  0  0  0  0  0  0  0  0  0
   23.5599   34.4184    5.6344 C   0  0  2  0  0  0  0  0  0  0  0  0
   24.6210   35.3577    6.0297 O   0  0  0  0  0  0  0  0  0  0  0  0
   23.3579   24.6575   14.2513 C   0  0  0  0  0  0  0  0  0  0  0  0
   30.2028   25.1734   11.5932 C   0  0  2  0  0  0  0  0  0  0  0  0
   29.1848   26.1975   11.4209 O   0  0  0  0  0  0  0  0  0  0  0  0
   26.8201   25.5676    7.6556 C   0  0  2  0  0  0  0  0  0  0  0  0
   26.5614   26.9662    7.6706 O   0  0  0  0  0  0  0  0  0  0  0  0
   25.5374   29.3750    5.0520 C   0  0  0  0  0  0  0  0  0  0  0  0
   25.3509   28.3660    4.0884 O   0  0  0  0  0  0  0  0  0  0  0  0
   22.7972   33.8930    6.9363 C   0  0  1  0  0  0  0  0  0  0  0  0
   23.7669   33.0745    7.7637 O   0  0  0  0  0  0  0  0  0  0  0  0
   24.2008   24.9525   13.0694 C   0  0  0  0  0  0  0  0  0  0  0  0
   30.1605   24.5393   12.9207 C   0  0  0  0  0  0  0  0  0  0  0  0
   30.9477   23.4562   12.9231 O   0  0  0  0  0  0  0  0  0  0  0  0
   25.4874   24.7067    7.6705 C   0  0  1  0  0  0  0  0  0  0  0  0
   24.7815   24.9028    6.4895 O   0  0  0  0  0  0  0  0  0  0  0  0
   23.4223   28.0169   10.5585 C   0  0  0  0  0  0  0  0  0  0  0  0
   22.2558   35.1419    7.6838 C   0  0  0  0  0  0  0  0  0  0  0  0
   22.0961   34.8623    9.0892 N   0  0  0  0  0  0  0  0  0  0  0  0
   22.9771   26.6032   10.1704 C   0  0  0  0  0  0  0  0  0  0  0  0
   24.1348   25.8621    9.5727 N   0  0  0  0  0  0  0  0  0  0  0  0
   24.6780   24.6753   10.4133 C   0  0  0  0  0  0  0  0  0  0  0  0
  1  2  1  6  0  0  0
  1  9  1  0  0  0  0
  1 35  1  0  0  0  0
  3  4  1  1  0  0  0
  3 11  1  0  0  0  0
  3 45  1  0  0  0  0
  5  6  1  0  0  0  0
  5 12  1  0  0  0  0
  5 37  1  6  0  0  0
  6 30  1  0  0  0  0
  7 14  1  0  0  0  0
  7 41  1  0  0  0  0
  7 23  1  1  0  0  0
  8 16  2  0  0  0  0
  8 42  1  0  0  0  0
  9 10  1  6  0  0  0
  9 18  1  0  0  0  0
 11 20  1  0  0  0  0
 12 13  1  6  0  0  0
 12 22  1  0  0  0  0
 13 47  1  0  0  0  0
 14 15  1  1  0  0  0
 14 24  1  0  0  0  0
 16 17  1  0  0  0  0
 17 26  2  0  0  0  0
 18 19  1  1  0  0  0
 18 27  1  0  0  0  0
 20 21  1  1  0  0  0
 20 29  1  0  0  0  0
 22 23  1  1  0  0  0
 22 30  1  0  0  0  0
 24 25  1  1  0  0  0
 24 31  1  0  0  0  0
 26 33  1  0  0  0  0
 27 28  1  6  0  0  0
 27 34  1  0  0  0  0
 29  2  1  6  0  0  0
 29 36  1  0  0  0  0
 30 38  1  6  0  0  0
 31 32  1  1  0  0  0
 31 40  1  0  0  0  0
 33 42  2  0  0  0  0
 34 35  1  0  0  0  0
 34 43  1  1  0  0  0
 36 37  1  1  0  0  0
 36 45  1  0  0  0  0
 38 39  1  0  0  0  0
 40 41  1  0  0  0  0
 40 48  1  1  0  0  0
 43 44  1  0  0  0  0
 45 46  1  6  0  0  0
 47 50  1  0  0  0  0
 48 49  1  0  0  0  0
 50 51  1  0  0  0  0
 51 52  1  0  0  0  0
 52  8  1  0  0  0  0
M  END
>  <CHROM.1>
-179.96705645,-97.45929008,-81.44397980,85.56794747,-89.37983873,-121.24422292
-113.23243849,31.12163168,-74.49082344,-112.52765585,-154.49062025,61.82600651
112.30258197,3.76018034,84.27230651,26.07627953,27.66398172,8.90230909,-1.14731132
0.00428443,-0.50989808

>  <Name>
2be0_lig

>  <RI>
0

>  <Rbt.Current_Directory>
/home/itssahil/PROJECTS/Mol_Feturizer/New_Systems/rnas/2be0

>  <Rbt.Executable>
rbdock ($Id: //depot/dev/client3/rdock/2013.1/src/exe/rbdock.cxx#4 $)

>  <Rbt.Library>
libRbt.so (2013.1, Build901 2013/11/27)

>  <Rbt.Parameter_File>
/export/apps/rDock/src/rDock_2013.1_src/data/scripts/dock_solv.prm

>  <Rbt.Receptor>
prm/blind_docking_80.prm

>  <SCORE>
34.4164

>  <SCORE.INTER>
-1.55703

>  <SCORE.INTER.CONST>
1

>  <SCORE.INTER.POLAR>
-0.0317891

>  <SCORE.INTER.ROT>
15

>  <SCORE.INTER.SOLV>
30.4728

>  <SCORE.INTER.VDW>
-24.6896

>  <SCORE.INTER.norm>
-0.029943

>  <SCORE.INTRA>
10.0588

>  <SCORE.INTRA.DIHEDRAL>
-5.09678

>  <SCORE.INTRA.DIHEDRAL.0>
47.8724

>  <SCORE.INTRA.POLAR>
0

>  <SCORE.INTRA.POLAR.0>
0

>  <SCORE.INTRA.REPUL>
0

>  <SCORE.INTRA.REPUL.0>
0

>  <SCORE.INTRA.SOLV>
6.61101

>  <SCORE.INTRA.SOLV.lig_0>
-115.677

>  <SCORE.INTRA.VDW>
9.30169

>  <SCORE.INTRA.VDW.0>
-7.4833

>  <SCORE.INTRA.norm>
0.193439

>  <SCORE.RESTR>
25.9146

>  <SCORE.RESTR.CAVITY>
25.9146

>  <SCORE.RESTR.norm>
0.498359

>  <SCORE.SYSTEM>
0

>  <SCORE.SYSTEM.CONST>
0

>  <SCORE.SYSTEM.DIHEDRAL>
0

>  <SCORE.SYSTEM.SOLV>
0

>  <SCORE.SYSTEM.norm>
0

>  <SCORE.heavy>
52

>  <SCORE.norm>
0.661854

>  <RMSD>
32.504

$$$$
2be0_lig
 OpenBabel11021811423D
libRbt.so/2013.1/901 2013/11/27
 52 56  0  0  0  0  0  0  0  0999 V2000
   28.3309   23.8755    8.3287 C   0  0  2  0  0  0  0  0  0  0  0  0
   28.0400   25.0989    7.6953 O   0  0  0  0  0  0  0  0  0  0  0  0
   30.5256   27.8890   10.0208 C   0  0  2  0  0  0  0  0  0  0  0  0
   31.3697   29.0751   10.3375 N   0  0  0  0  0  0  0  0  0  0  0  0
   26.6013   28.7277    8.4728 C   0  0  2  0  0  0  0  0  0  0  0  0
   25.6750   29.3173    9.4081 O   0  0  0  0  0  0  0  0  0  0  0  0
   23.3227   28.0839    5.3475 C   0  0  1  0  0  0  0  0  0  0  0  0
   23.5383   34.1868    4.9154 C   0  0  0  0  0  0  0  0  0  0  0  0
   27.0385   22.9691    8.4460 C   0  0  2  0  0  0  0  0  0  0  0  0
   26.4327   22.7964    7.1240 N   0  0  0  0  0  0  0  0  0  0  0  0
   31.1759   27.0965    8.7971 C   0  0  0  0  0  0  0  0  0  0  0  0
   25.9475   28.8186    7.0848 C   0  0  2  0  0  0  0  0  0  0  0  0
   26.3170   30.1893    6.6135 O   0  0  0  0  0  0  0  0  0  0  0  0
   21.8371   27.4260    5.3831 C   0  0  2  0  0  0  0  0  0  0  0  0
   21.7215   26.5665    6.6052 N   0  0  0  0  0  0  0  0  0  0  0  0
   22.6356   33.0736    4.9434 C   0  0  0  0  0  0  0  0  0  0  0  0
   21.3776   33.1719    4.2932 N   0  0  0  0  0  0  0  0  0  0  0  0
   26.0186   23.6201    9.4910 C   0  0  1  0  0  0  0  0  0  0  0  0
   24.8652   22.7975    9.5757 O   0  0  0  0  0  0  0  0  0  0  0  0
   30.2706   25.7931    8.4082 C   0  0  2  0  0  0  0  0  0  0  0  0
   30.8463   25.0699    7.3096 N   0  0  0  0  0  0  0  0  0  0  0  0
   24.4926   28.5147    7.4893 C   0  0  2  0  0  0  0  0  0  0  0  0
   23.4790   28.8526    6.5539 O   0  0  0  0  0  0  0  0  0  0  0  0
   21.6583   26.5784    4.0875 C   0  0  1  0  0  0  0  0  0  0  0  0
   21.7736   27.5200    2.9618 O   0  0  0  0  0  0  0  0  0  0  0  0
   20.9520   34.3412    3.6007 C   0  0  0  0  0  0  0  0  0  0  0  0
   26.7364   23.7548   10.8653 C   0  0  2  0  0  0  0  0  0  0  0  0
   25.8380   24.3588   11.8788 O   0  0  0  0  0  0  0  0  0  0  0  0
   28.8023   26.2522    8.0301 C   0  0  2  0  0  0  0  0  0  0  0  0
   24.3456   29.2252    8.8560 C   0  0  1  0  0  0  0  0  0  0  0  0
   22.8063   25.4285    4.0121 C   0  0  2  0  0  0  0  0  0  0  0  0
   22.6975   24.4837    5.1346 O   0  0  0  0  0  0  0  0  0  0  0  0
   21.8021   35.4728    3.5384 C   0  0  0  0  0  0  0  0  0  0  0  0
   28.0206   24.6601   10.7280 C   0  0  2  0  0  0  0  0  0  0  0  0
   28.8549   24.0205    9.7232 O   0  0  0  0  0  0  0  0  0  0  0  0
   28.2152   27.0323    9.2572 C   0  0  2  0  0  0  0  0  0  0  0  0
   26.9087   27.3802    8.8154 O   0  0  0  0  0  0  0  0  0  0  0  0
   23.5071   28.4177    9.8454 C   0  0  0  0  0  0  0  0  0  0  0  0
   23.7391   27.0294    9.8443 O   0  0  0  0  0  0  0  0  0  0  0  0
   24.2486   26.1159    4.0285 C   0  0  1  0  0  0  0  0  0  0  0  0
   24.3618   26.9654    5.2776 O   0  0  0  0  0  0  0  0  0  0  0  0
   23.1255   35.4210    4.2018 C   0  0  0  0  0  0  0  0  0  0  0  0
   28.6658   24.7324   12.0488 C   0  0  0  0  0  0  0  0  0  0  0  0
   29.7179   25.5582   11.9867 O   0  0  0  0  0  0  0  0  0  0  0  0
   29.1005   28.3069    9.5876 C   0  0  1  0  0  0  0  0  0  0  0  0
   28.5735   28.9809   10.6827 O   0  0  0  0  0  0  0  0  0  0  0  0
   26.2417   31.4680    7.3589 C   0  0  0  0  0  0  0  0  0  0  0  0
   25.2995   24.9743    3.9661 C   0  0  0  0  0  0  0  0  0  0  0  0
   26.6351   25.5083    4.0645 N   0  0  0  0  0  0  0  0  0  0  0  0
   24.8092   31.9922    7.2159 C   0  0  0  0  0  0  0  0  0  0  0  0
   24.8340   33.4865    7.1011 N   0  0  0  0  0  0  0  0  0  0  0  0
   24.9556   34.0469    5.6585 C   0  0  0  0  0  0  0  0  0  0  0  0
  1  2  1  1  0  0  0
  1  9  1  0  0  0  0
  1 35  1  0  0  0  0
  3  4  1  6  0  0  0
  3 11  1  0  0  0  0
  3 45  1  0  0  0  0
  5  6  1  0  0  0  0
  5 12  1  0  0  0  0
  5 37  1  1  0  0  0
  6 30  1  0  0  0  0
  7 14  1  0  0  0  0
  7 41  1  0  0  0  0
  7 23  1  1  0  0  0
  8 16  2  0  0  0  0
  8 42  1  0  0  0  0
  9 10  1  6  0  0  0
  9 18  1  0  0  0  0
 11 20  1  0  0  0  0
 12 13  1  1  0  0  0
 12 22  1  0  0  0  0
 13 47  1  0  0  0  0
 14 15  1  1  0  0  0
 14 24  1  0  0  0  0
 16 17  1  0  0  0  0
 17 26  2  0  0  0  0
 18 19  1  1  0  0  0
 18 27  1  0  0  0  0
 20 21  1  6  0  0  0
 20 29  1  0  0  0  0
 22 23  1  6  0  0  0
 22 30  1  0  0  0  0
 24 25  1  6  0  0  0
 24 31  1  0  0  0  0
 26 33  1  0  0  0  0
 27 28  1  1  0  0  0
 27 34  1  0  0  0  0
 29  2  1  1  0  0  0
 29 36  1  0  0  0  0
 30 38  1  1  0  0  0
 31 32  1  1  0  0  0
 31 40  1  0  0  0  0
 33 42  2  0  0  0  0
 34 35  1  0  0  0  0
 34 43  1  1  0  0  0
 36 37  1  6  0  0  0
 36 45  1  0  0  0  0
 38 39  1  0  0  0  0
 40 41  1  0  0  0  0
 40 48  1  1  0  0  0
 43 44  1  0  0  0  0
 45 46  1  1  0  0  0
 47 50  1  0  0  0  0
 48 49  1  0  0  0  0
 50 51  1  0  0  0  0
 51 52  1  0  0  0  0
 52  8  1  0  0  0  0
M  END
>  <CHROM.1>
150.43351888,-112.12012491,118.37846714,-46.39626931,-84.54522718,71.80291547
31.48448925,-75.64295571,-176.40429430,-107.34725378,-176.27245212,-143.31498297
89.54040379,85.71724267,-48.44676046,25.76603505,27.75244589,7.49128340,0.79353144
0.67975815,3.09288972

>  <Name>
2be0_lig

>  <RI>
0

>  <Rbt.Current_Directory>
/home/itssahil/PROJECTS/Mol_Feturizer/New_Systems/rnas/2be0

>  <Rbt.Executable>
rbdock ($Id: //depot/dev/client3/rdock/2013.1/src/exe/rbdock.cxx#4 $)

>  <Rbt.Library>
libRbt.so (2013.1, Build901 2013/11/27)

>  <Rbt.Parameter_File>
/export/apps/rDock/src/rDock_2013.1_src/data/scripts/dock_solv.prm

>  <Rbt.Receptor>
prm/blind_docking_80.prm

>  <SCORE>
55.9779

>  <SCORE.INTER>
26.4431

>  <SCORE.INTER.CONST>
1

>  <SCORE.INTER.POLAR>
-0.602927

>  <SCORE.INTER.ROT>
15

>  <SCORE.INTER.SOLV>
38.7651

>  <SCORE.INTER.VDW>
-6.8832

>  <SCORE.INTER.norm>
0.508521

>  <SCORE.INTRA>
1.14971

>  <SCORE.INTRA.DIHEDRAL>
-9.63391

>  <SCORE.INTRA.DIHEDRAL.0>
47.8724

>  <SCORE.INTRA.POLAR>
0

>  <SCORE.INTRA.POLAR.0>
0

>  <SCORE.INTRA.REPUL>
0.00185653

>  <SCORE.INTRA.REPUL.0>
0

>  <SCORE.INTRA.SOLV>
0.81769

>  <SCORE.INTRA.SOLV.lig_0>
-115.677

>  <SCORE.INTRA.VDW>
5.54854

>  <SCORE.INTRA.VDW.0>
-7.4833

>  <SCORE.INTRA.norm>
0.0221098

>  <SCORE.RESTR>
28.3851

>  <SCORE.RESTR.CAVITY>
28.3851

>  <SCORE.RESTR.norm>
0.545867

>  <SCORE.SYSTEM>
0

>  <SCORE.SYSTEM.CONST>
0

>  <SCORE.SYSTEM.DIHEDRAL>
0

>  <SCORE.SYSTEM.SOLV>
0

>  <SCORE.SYSTEM.norm>
0

>  <SCORE.heavy>
52

>  <SCORE.norm>
1.0765

>  <RMSD>
32.510

$$$$
2be0_lig
 OpenBabel11021811423D
libRbt.so/2013.1/901 2013/11/27
 52 56  0  0  0  0  0  0  0  0999 V2000
   24.9167   23.4528   10.8542 C   0  0  2  0  0  0  0  0  0  0  0  0
   25.6598   24.5656   10.4156 O   0  0  0  0  0  0  0  0  0  0  0  0
   22.4629   27.1619    8.8632 C   0  0  2  0  0  0  0  0  0  0  0  0
   21.7338   28.4053    8.4866 N   0  0  0  0  0  0  0  0  0  0  0  0
   26.4359   26.6889    7.2456 C   0  0  2  0  0  0  0  0  0  0  0  0
   27.7805   26.3859    6.8207 O   0  0  0  0  0  0  0  0  0  0  0  0
   29.5357   27.9916   10.6765 C   0  0  1  0  0  0  0  0  0  0  0  0
   24.2722   34.1515    5.3482 C   0  0  0  0  0  0  0  0  0  0  0  0
   25.4786   22.1084   10.2357 C   0  0  2  0  0  0  0  0  0  0  0  0
   26.9089   21.9890   10.5265 N   0  0  0  0  0  0  0  0  0  0  0  0
   22.8370   27.2246   10.4138 C   0  0  0  0  0  0  0  0  0  0  0  0
   26.5400   27.8429    8.2556 C   0  0  2  0  0  0  0  0  0  0  0  0
   26.5604   29.0633    7.3909 O   0  0  0  0  0  0  0  0  0  0  0  0
   30.9400   28.4968   10.0331 C   0  0  2  0  0  0  0  0  0  0  0  0
   31.1076   27.8612    8.6864 N   0  0  0  0  0  0  0  0  0  0  0  0
   23.6378   35.2529    6.0110 C   0  0  0  0  0  0  0  0  0  0  0  0
   24.0435   36.5804    5.7142 N   0  0  0  0  0  0  0  0  0  0  0  0
   25.1827   22.0746    8.6650 C   0  0  1  0  0  0  0  0  0  0  0  0
   25.7003   20.8666    8.1292 O   0  0  0  0  0  0  0  0  0  0  0  0
   23.6522   25.8822   10.8648 C   0  0  2  0  0  0  0  0  0  0  0  0
   23.9928   25.9252   12.2589 N   0  0  0  0  0  0  0  0  0  0  0  0
   27.8219   27.4012    8.9866 C   0  0  2  0  0  0  0  0  0  0  0  0
   28.4864   28.3802    9.7718 O   0  0  0  0  0  0  0  0  0  0  0  0
   32.0884   28.0703   10.9966 C   0  0  1  0  0  0  0  0  0  0  0  0
   31.8323   28.7608   12.2714 O   0  0  0  0  0  0  0  0  0  0  0  0
   25.0696   36.8859    4.7752 C   0  0  0  0  0  0  0  0  0  0  0  0
   23.6462   22.1932    8.4478 C   0  0  2  0  0  0  0  0  0  0  0  0
   23.3088   22.1715    7.0039 O   0  0  0  0  0  0  0  0  0  0  0  0
   24.9719   25.7393   10.0002 C   0  0  2  0  0  0  0  0  0  0  0  0
   28.6938   26.8095    7.8536 C   0  0  1  0  0  0  0  0  0  0  0  0
   32.0807   26.4554   11.1910 C   0  0  2  0  0  0  0  0  0  0  0  0
   32.3356   25.7585    9.9206 O   0  0  0  0  0  0  0  0  0  0  0  0
   25.7318   35.8387    4.0883 C   0  0  0  0  0  0  0  0  0  0  0  0
   23.1054   23.5375    9.0707 C   0  0  2  0  0  0  0  0  0  0  0  0
   23.4687   23.5003   10.4784 O   0  0  0  0  0  0  0  0  0  0  0  0
   24.5508   25.6932    8.4904 C   0  0  2  0  0  0  0  0  0  0  0  0
   25.7966   25.5528    7.8184 O   0  0  0  0  0  0  0  0  0  0  0  0
   29.4675   25.5702    8.3003 C   0  0  0  0  0  0  0  0  0  0  0  0
   28.7247   24.3754    8.3434 O   0  0  0  0  0  0  0  0  0  0  0  0
   30.6672   25.9978   11.7787 C   0  0  1  0  0  0  0  0  0  0  0  0
   29.5791   26.4724   10.8376 O   0  0  0  0  0  0  0  0  0  0  0  0
   25.3456   34.4353    4.3632 C   0  0  0  0  0  0  0  0  0  0  0  0
   21.6504   23.5827    8.8542 C   0  0  0  0  0  0  0  0  0  0  0  0
   21.1537   24.7031    9.3935 O   0  0  0  0  0  0  0  0  0  0  0  0
   23.7895   27.0233    8.0794 C   0  0  1  0  0  0  0  0  0  0  0  0
   23.4143   26.9627    6.7426 O   0  0  0  0  0  0  0  0  0  0  0  0
   25.5122   29.5485    6.4624 C   0  0  0  0  0  0  0  0  0  0  0  0
   30.7145   24.4531   11.9317 C   0  0  0  0  0  0  0  0  0  0  0  0
   29.5052   23.9671   12.5481 N   0  0  0  0  0  0  0  0  0  0  0  0
   25.7298   31.0541    6.2802 C   0  0  0  0  0  0  0  0  0  0  0  0
   24.7919   31.5703    5.2311 N   0  0  0  0  0  0  0  0  0  0  0  0
   23.7919   32.6601    5.7026 C   0  0  0  0  0  0  0  0  0  0  0  0
  1  2  1  6  0  0  0
  1  9  1  0  0  0  0
  1 35  1  0  0  0  0
  3  4  1  6  0  0  0
  3 11  1  0  0  0  0
  3 45  1  0  0  0  0
  5  6  1  0  0  0  0
  5 12  1  0  0  0  0
  5 37  1  1  0  0  0
  6 30  1  0  0  0  0
  7 14  1  0  0  0  0
  7 41  1  0  0  0  0
  7 23  1  6  0  0  0
  8 16  2  0  0  0  0
  8 42  1  0  0  0  0
  9 10  1  6  0  0  0
  9 18  1  0  0  0  0
 11 20  1  0  0  0  0
 12 13  1  6  0  0  0
 12 22  1  0  0  0  0
 13 47  1  0  0  0  0
 14 15  1  6  0  0  0
 14 24  1  0  0  0  0
 16 17  1  0  0  0  0
 17 26  2  0  0  0  0
 18 19  1  1  0  0  0
 18 27  1  0  0  0  0
 20 21  1  1  0  0  0
 20 29  1  0  0  0  0
 22 23  1  6  0  0  0
 22 30  1  0  0  0  0
 24 25  1  1  0  0  0
 24 31  1  0  0  0  0
 26 33  1  0  0  0  0
 27 28  1  6  0  0  0
 27 34  1  0  0  0  0
 29  2  1  1  0  0  0
 29 36  1  0  0  0  0
 30 38  1  1  0  0  0
 31 32  1  6  0  0  0
 31 40  1  0  0  0  0
 33 42  2  0  0  0  0
 34 35  1  0  0  0  0
 34 43  1  1  0  0  0
 36 37  1  6  0  0  0
 36 45  1  0  0  0  0
 38 39  1  0  0  0  0
 40 41  1  0  0  0  0
 40 48  1  6  0  0  0
 43 44  1  0  0  0  0
 45 46  1  6  0  0  0
 47 50  1  0  0  0  0
 48 49  1  0  0  0  0
 50 51  1  0  0  0  0
 51 52  1  0  0  0  0
 52  8  1  0  0  0  0
M  END
>  <CHROM.1>
135.63291267,169.95146326,107.65723741,61.97969271,156.80708216,168.37525418
33.09334719,-37.26968293,178.89889823,-98.95899031,175.92888123,173.72078534
119.47494920,98.14591789,-164.21384465,26.29202270,27.12099698,8.70968927
1.38073951,0.29806123,2.77682025

>  <Name>
2be0_lig

>  <RI>
0

>  <Rbt.Current_Directory>
/home/itssahil/PROJECTS/Mol_Feturizer/New_Systems/rnas/2be0

>  <Rbt.Executable>
rbdock ($Id: //depot/dev/client3/rdock/2013.1/src/exe/rbdock.cxx#4 $)

>  <Rbt.Library>
libRbt.so (2013.1, Build901 2013/11/27)

>  <Rbt.Parameter_File>
/export/apps/rDock/src/rDock_2013.1_src/data/scripts/dock_solv.prm

>  <Rbt.Receptor>
prm/blind_docking_80.prm

>  <SCORE>
60.2286

>  <SCORE.INTER>
26.3036

>  <SCORE.INTER.CONST>
1

>  <SCORE.INTER.POLAR>
-0.75518

>  <SCORE.INTER.ROT>
15

>  <SCORE.INTER.SOLV>
37.2661

>  <SCORE.INTER.VDW>
-5.969

>  <SCORE.INTER.norm>
0.505839

>  <SCORE.INTRA>
3.75022

>  <SCORE.INTRA.DIHEDRAL>
-18.4834

>  <SCORE.INTRA.DIHEDRAL.0>
47.8724

>  <SCORE.INTRA.POLAR>
0

>  <SCORE.INTRA.POLAR.0>
0

>  <SCORE.INTRA.REPUL>
0.0395265

>  <SCORE.INTRA.REPUL.0>
0

>  <SCORE.INTRA.SOLV>
4.25824

>  <SCORE.INTRA.SOLV.lig_0>
-115.677

>  <SCORE.INTRA.VDW>
10.6652

>  <SCORE.INTRA.VDW.0>
-7.4833

>  <SCORE.INTRA.norm>
0.0721197

>  <SCORE.RESTR>
30.1747

>  <SCORE.RESTR.CAVITY>
30.1747

>  <SCORE.RESTR.norm>
0.580283

>  <SCORE.SYSTEM>
0

>  <SCORE.SYSTEM.CONST>
0

>  <SCORE.SYSTEM.DIHEDRAL>
0

>  <SCORE.SYSTEM.SOLV>
0

>  <SCORE.SYSTEM.norm>
0

>  <SCORE.heavy>
52

>  <SCORE.norm>
1.15824

>  <RMSD>
32.535

$$$$
2be0_lig
 OpenBabel11021811423D
libRbt.so/2013.1/901 2013/11/27
 52 56  0  0  0  0  0  0  0  0999 V2000
   24.6026   25.3040    4.9575 C   0  0  2  0  0  0  0  0  0  0  0  0
   24.0776   24.8405    6.1791 O   0  0  0  0  0  0  0  0  0  0  0  0
   25.7678   23.3329    9.9529 C   0  0  2  0  0  0  0  0  0  0  0  0
   26.7140   23.1700   11.0920 N   0  0  0  0  0  0  0  0  0  0  0  0
   24.3759   27.3390    9.1684 C   0  0  2  0  0  0  0  0  0  0  0  0
   23.7315   27.7358   10.3963 O   0  0  0  0  0  0  0  0  0  0  0  0
   23.0684   30.9756    6.9282 C   0  0  1  0  0  0  0  0  0  0  0  0
   29.5203   25.6032   10.9276 C   0  0  0  0  0  0  0  0  0  0  0  0
   25.5558   26.5483    5.1784 C   0  0  2  0  0  0  0  0  0  0  0  0
   26.5948   26.2096    6.1533 N   0  0  0  0  0  0  0  0  0  0  0  0
   26.5450   23.0623    8.5851 C   0  0  0  0  0  0  0  0  0  0  0  0
   24.4019   28.5793    8.2609 C   0  0  2  0  0  0  0  0  0  0  0  0
   25.6362   29.3042    8.6949 O   0  0  0  0  0  0  0  0  0  0  0  0
   24.6763   31.1953    6.8410 C   0  0  2  0  0  0  0  0  0  0  0  0
   25.0819   32.1942    7.8819 N   0  0  0  0  0  0  0  0  0  0  0  0
   29.6957   24.2770   11.4425 C   0  0  0  0  0  0  0  0  0  0  0  0
   30.5600   24.0602   12.5475 N   0  0  0  0  0  0  0  0  0  0  0  0
   24.6918   27.8119    5.6396 C   0  0  1  0  0  0  0  0  0  0  0  0
   25.5647   28.9129    5.8394 O   0  0  0  0  0  0  0  0  0  0  0  0
   25.5434   23.2452    7.3071 C   0  0  2  0  0  0  0  0  0  0  0  0
   26.2302   23.0022    6.0700 N   0  0  0  0  0  0  0  0  0  0  0  0
   23.0152   29.1537    8.6073 C   0  0  2  0  0  0  0  0  0  0  0  0
   22.7721   30.5081    8.2565 O   0  0  0  0  0  0  0  0  0  0  0  0
   25.0110   31.7153    5.4104 C   0  0  1  0  0  0  0  0  0  0  0  0
   24.5885   30.6560    4.4793 O   0  0  0  0  0  0  0  0  0  0  0  0
   31.2801   25.1098   13.1861 C   0  0  0  0  0  0  0  0  0  0  0  0
   23.6256   28.1088    4.5455 C   0  0  2  0  0  0  0  0  0  0  0  0
   22.7873   29.2732    4.9204 O   0  0  0  0  0  0  0  0  0  0  0  0
   24.9421   24.7108    7.3012 C   0  0  2  0  0  0  0  0  0  0  0  0
   22.8762   28.8641   10.1209 C   0  0  1  0  0  0  0  0  0  0  0  0
   24.2138   33.1036    5.1223 C   0  0  2  0  0  0  0  0  0  0  0  0
   24.6308   34.1669    6.0495 O   0  0  0  0  0  0  0  0  0  0  0  0
   31.1459   26.4415   12.7219 C   0  0  0  0  0  0  0  0  0  0  0  0
   22.6867   26.8584    4.3396 C   0  0  2  0  0  0  0  0  0  0  0  0
   23.5633   25.7553    3.9795 O   0  0  0  0  0  0  0  0  0  0  0  0
   24.2013   24.9283    8.6661 C   0  0  2  0  0  0  0  0  0  0  0  0
   23.6976   26.2531    8.5453 O   0  0  0  0  0  0  0  0  0  0  0  0
   21.4567   28.4522   10.5075 C   0  0  0  0  0  0  0  0  0  0  0  0
   20.9748   27.2842    9.8872 O   0  0  0  0  0  0  0  0  0  0  0  0
   22.6423   32.8533    5.2661 C   0  0  1  0  0  0  0  0  0  0  0  0
   22.3678   32.3053    6.6514 O   0  0  0  0  0  0  0  0  0  0  0  0
   30.2563   26.7202   11.5707 C   0  0  0  0  0  0  0  0  0  0  0  0
   21.7175   27.1901    3.2829 C   0  0  0  0  0  0  0  0  0  0  0  0
   20.9919   26.1046    2.9862 O   0  0  0  0  0  0  0  0  0  0  0  0
   25.2086   24.7736    9.8822 C   0  0  1  0  0  0  0  0  0  0  0  0
   24.5353   24.9588   11.0838 O   0  0  0  0  0  0  0  0  0  0  0  0
   27.0275   29.1136    8.2212 C   0  0  0  0  0  0  0  0  0  0  0  0
   21.9368   34.2094    4.9924 C   0  0  0  0  0  0  0  0  0  0  0  0
   20.6153   34.2193    5.5689 N   0  0  0  0  0  0  0  0  0  0  0  0
   27.3205   27.6105    8.2686 C   0  0  0  0  0  0  0  0  0  0  0  0
   28.0242   27.2797    9.5500 N   0  0  0  0  0  0  0  0  0  0  0  0
   28.5350   25.8192    9.6774 C   0  0  0  0  0  0  0  0  0  0  0  0
  1  2  1  1  0  0  0
  1  9  1  0  0  0  0
  1 35  1  0  0  0  0
  3  4  1  1  0  0  0
  3 11  1  0  0  0  0
  3 45  1  0  0  0  0
  5  6  1  0  0  0  0
  5 12  1  0  0  0  0
  5 37  1  6  0  0  0
  6 30  1  0  0  0  0
  7 14  1  0  0  0  0
  7 41  1  0  0  0  0
  7 23  1  1  0  0  0
  8 16  2  0  0  0  0
  8 42  1  0  0  0  0
  9 10  1  1  0  0  0
  9 18  1  0  0  0  0
 11 20  1  0  0  0  0
 12 13  1  1  0  0  0
 12 22  1  0  0  0  0
 13 47  1  0  0  0  0
 14 15  1  1  0  0  0
 14 24  1  0  0  0  0
 16 17  1  0  0  0  0
 17 26  2  0  0  0  0
 18 19  1  6  0  0  0
 18 27  1  0  0  0  0
 20 21  1  6  0  0  0
 20 29  1  0  0  0  0
 22 23  1  1  0  0  0
 22 30  1  0  0  0  0
 24 25  1  6  0  0  0
 24 31  1  0  0  0  0
 26 33  1  0  0  0  0
 27 28  1  1  0  0  0
 27 34  1  0  0  0  0
 29  2  1  6  0  0  0
 29 36  1  0  0  0  0
 30 38  1  6  0  0  0
 31 32  1  1  0  0  0
 31 40  1  0  0  0  0
 33 42  2  0  0  0  0
 34 35  1  0  0  0  0
 34 43  1  6  0  0  0
 36 37  1  6  0  0  0
 36 45  1  0  0  0  0
 38 39  1  0  0  0  0
 40 41  1  0  0  0  0
 40 48  1  1  0  0  0
 43 44  1  0  0  0  0
 45 46  1  1  0  0  0
 47 50  1  0  0  0  0
 48 49  1  0  0  0  0
 50 51  1  0  0  0  0
 51 52  1  0  0  0  0
 52  8  1  0  0  0  0
M  END
>  <CHROM.1>
-44.42658887,-101.19152377,-77.65187829,86.69740464,-48.99991399,49.50846681
-90.77048395,-55.62058560,173.74285399,-100.21460750,-158.58808321,-96.21067014
-173.30103933,168.71776959,158.68989720,24.94607713,27.75605647,7.72018916
0.63773442,0.82868374,-3.02345493

>  <Name>
2be0_lig

>  <RI>
0

>  <Rbt.Current_Directory>
/home/itssahil/PROJECTS/Mol_Feturizer/New_Systems/rnas/2be0

>  <Rbt.Executable>
rbdock ($Id: //depot/dev/client3/rdock/2013.1/src/exe/rbdock.cxx#4 $)

>  <Rbt.Library>
libRbt.so (2013.1, Build901 2013/11/27)

>  <Rbt.Parameter_File>
/export/apps/rDock/src/rDock_2013.1_src/data/scripts/dock_solv.prm

>  <Rbt.Receptor>
prm/blind_docking_80.prm

>  <SCORE>
83.2787

>  <SCORE.INTER>
42.359

>  <SCORE.INTER.CONST>
1

>  <SCORE.INTER.POLAR>
0

>  <SCORE.INTER.ROT>
15

>  <SCORE.INTER.SOLV>
23.846

>  <SCORE.INTER.VDW>
6.69064

>  <SCORE.INTER.norm>
0.814596

>  <SCORE.INTRA>
5.7196

>  <SCORE.INTRA.DIHEDRAL>
-20.0997

>  <SCORE.INTRA.DIHEDRAL.0>
47.8724

>  <SCORE.INTRA.POLAR>
0

>  <SCORE.INTRA.POLAR.0>
0

>  <SCORE.INTRA.REPUL>
0

>  <SCORE.INTRA.REPUL.0>
0

>  <SCORE.INTRA.SOLV>
14.065

>  <SCORE.INTRA.SOLV.lig_0>
-115.677

>  <SCORE.INTRA.VDW>
8.73691

>  <SCORE.INTRA.VDW.0>
-7.4833

>  <SCORE.INTRA.norm>
0.109992

>  <SCORE.RESTR>
35.2001

>  <SCORE.RESTR.CAVITY>
35.2001

>  <SCORE.RESTR.norm>
0.676925

>  <SCORE.SYSTEM>
0

>  <SCORE.SYSTEM.CONST>
0

>  <SCORE.SYSTEM.DIHEDRAL>
0

>  <SCORE.SYSTEM.SOLV>
0

>  <SCORE.SYSTEM.norm>
0

>  <SCORE.heavy>
52

>  <SCORE.norm>
1.60151

>  <RMSD>
32.594

$$$$
2be0_lig
 OpenBabel11021811423D
libRbt.so/2013.1/901 2013/11/27
 52 56  0  0  0  0  0  0  0  0999 V2000
   24.6219   32.4370    5.5768 C   0  0  2  0  0  0  0  0  0  0  0  0
   23.8745   31.4603    6.2625 O   0  0  0  0  0  0  0  0  0  0  0  0
   22.0678   27.6748    4.9297 C   0  0  2  0  0  0  0  0  0  0  0  0
   21.9462   26.3358    4.2879 N   0  0  0  0  0  0  0  0  0  0  0  0
   25.5998   28.9485    7.4318 C   0  0  2  0  0  0  0  0  0  0  0  0
   25.7848   28.6964    6.0237 O   0  0  0  0  0  0  0  0  0  0  0  0
   26.7005   24.8423    8.6448 C   0  0  1  0  0  0  0  0  0  0  0  0
   30.1844   25.6744   12.0653 C   0  0  0  0  0  0  0  0  0  0  0  0
   25.2737   33.4710    6.5827 C   0  0  2  0  0  0  0  0  0  0  0  0
   26.0597   32.7546    7.5894 N   0  0  0  0  0  0  0  0  0  0  0  0
   22.5558   28.7343    3.8400 C   0  0  0  0  0  0  0  0  0  0  0  0
   26.1899   27.7419    8.1790 C   0  0  2  0  0  0  0  0  0  0  0  0
   27.6432   28.0774    8.2921 O   0  0  0  0  0  0  0  0  0  0  0  0
   27.0957   23.2778    8.4513 C   0  0  2  0  0  0  0  0  0  0  0  0
   25.9317   22.5606    7.8377 N   0  0  0  0  0  0  0  0  0  0  0  0
   29.9004   24.3542   12.5462 C   0  0  0  0  0  0  0  0  0  0  0  0
   30.5475   23.8777   13.7164 N   0  0  0  0  0  0  0  0  0  0  0  0
   24.1298   34.3700    7.2454 C   0  0  1  0  0  0  0  0  0  0  0  0
   24.7334   35.2837    8.1481 O   0  0  0  0  0  0  0  0  0  0  0  0
   22.7157   30.2167    4.5086 C   0  0  2  0  0  0  0  0  0  0  0  0
   23.1523   31.1800    3.5377 N   0  0  0  0  0  0  0  0  0  0  0  0
   25.7345   26.6254    7.2205 C   0  0  2  0  0  0  0  0  0  0  0  0
   26.3799   25.3665    7.3437 O   0  0  0  0  0  0  0  0  0  0  0  0
   27.4326   22.6923    9.8559 C   0  0  1  0  0  0  0  0  0  0  0  0
   28.5905   23.4547   10.3513 O   0  0  0  0  0  0  0  0  0  0  0  0
   31.4853   24.6546   14.4547 C   0  0  0  0  0  0  0  0  0  0  0  0
   23.3558   35.1022    6.1109 C   0  0  2  0  0  0  0  0  0  0  0  0
   22.2748   35.9522    6.6660 O   0  0  0  0  0  0  0  0  0  0  0  0
   23.7551   30.1582    5.7027 C   0  0  2  0  0  0  0  0  0  0  0  0
   25.8836   27.2715    5.8225 C   0  0  1  0  0  0  0  0  0  0  0  0
   26.1537   22.8549   10.8477 C   0  0  2  0  0  0  0  0  0  0  0  0
   24.9923   22.0958   10.3586 O   0  0  0  0  0  0  0  0  0  0  0  0
   31.8050   25.9671   14.0281 C   0  0  0  0  0  0  0  0  0  0  0  0
   22.7147   34.0563    5.1196 C   0  0  2  0  0  0  0  0  0  0  0  0
   23.8185   33.2553    4.6149 O   0  0  0  0  0  0  0  0  0  0  0  0
   23.2360   29.0988    6.7358 C   0  0  2  0  0  0  0  0  0  0  0  0
   24.2265   29.1398    7.7559 O   0  0  0  0  0  0  0  0  0  0  0  0
   24.7531   26.8759    4.8740 C   0  0  0  0  0  0  0  0  0  0  0  0
   24.8633   25.5948    4.3013 O   0  0  0  0  0  0  0  0  0  0  0  0
   25.7700   24.4011   10.9707 C   0  0  1  0  0  0  0  0  0  0  0  0
   25.4970   24.9402    9.5817 O   0  0  0  0  0  0  0  0  0  0  0  0
   31.1572   26.5106   12.8118 C   0  0  0  0  0  0  0  0  0  0  0  0
   22.0177   34.8050    4.0615 C   0  0  0  0  0  0  0  0  0  0  0  0
   21.6112   33.9569    3.1085 O   0  0  0  0  0  0  0  0  0  0  0  0
   23.1218   27.6669    6.0620 C   0  0  1  0  0  0  0  0  0  0  0  0
   22.6512   26.7424    6.9868 O   0  0  0  0  0  0  0  0  0  0  0  0
   28.8092   27.1798    8.1164 C   0  0  0  0  0  0  0  0  0  0  0  0
   24.5416   24.4930   11.9164 C   0  0  0  0  0  0  0  0  0  0  0  0
   23.3202   24.2641   11.1853 N   0  0  0  0  0  0  0  0  0  0  0  0
   29.9965   27.8340    8.8304 C   0  0  0  0  0  0  0  0  0  0  0  0
   29.8731   27.6137   10.3078 N   0  0  0  0  0  0  0  0  0  0  0  0
   29.4366   26.1878   10.7396 C   0  0  0  0  0  0  0  0  0  0  0  0
  1  2  1  1  0  0  0
  1  9  1  0  0  0  0
  1 35  1  0  0  0  0
  3  4  1  6  0  0  0
  3 11  1  0  0  0  0
  3 45  1  0  0  0  0
  5  6  1  0  0  0  0
  5 12  1  0  0  0  0
  5 37  1  6  0  0  0
  6 30  1  0  0  0  0
  7 14  1  0  0  0  0
  7 41  1  0  0  0  0
  7 23  1  6  0  0  0
  8 16  2  0  0  0  0
  8 42  1  0  0  0  0
  9 10  1  1  0  0  0
  9 18  1  0  0  0  0
 11 20  1  0  0  0  0
 12 13  1  6  0  0  0
 12 22  1  0  0  0  0
 13 47  1  0  0  0  0
 14 15  1  1  0  0  0
 14 24  1  0  0  0  0
 16 17  1  0  0  0  0
 17 26  2  0  0  0  0
 18 19  1  1  0  0  0
 18 27  1  0  0  0  0
 20 21  1  6  0  0  0
 20 29  1  0  0  0  0
 22 23  1  6  0  0  0
 22 30  1  0  0  0  0
 24 25  1  1  0  0  0
 24 31  1  0  0  0  0
 26 33  1  0  0  0  0
 27 28  1  1  0  0  0
 27 34  1  0  0  0  0
 29  2  1  1  0  0  0
 29 36  1  0  0  0  0
 30 38  1  6  0  0  0
 31 32  1  6  0  0  0
 31 40  1  0  0  0  0
 33 42  2  0  0  0  0
 34 35  1  0  0  0  0
 34 43  1  6  0  0  0
 36 37  1  1  0  0  0
 36 45  1  0  0  0  0
 38 39  1  0  0  0  0
 40 41  1  0  0  0  0
 40 48  1  1  0  0  0
 43 44  1  0  0  0  0
 45 46  1  1  0  0  0
 47 50  1  0  0  0  0
 48 49  1  0  0  0  0
 50 51  1  0  0  0  0
 51 52  1  0  0  0  0
 52  8  1  0  0  0  0
M  END
>  <CHROM.1>
-150.18211495,-1.32382796,166.97783932,-138.90091410,-159.13689894,39.67152351
-76.04977179,165.43206084,171.96075411,-54.34410149,-84.05096337,77.75538575
42.75564353,141.88396927,-178.09994859,25.63803118,28.09179359,7.88144107
-2.25645110,0.76084022,3.03281056

>  <Name>
2be0_lig

>  <RI>
0

>  <Rbt.Current_Directory>
/home/itssahil/PROJECTS/Mol_Feturizer/New_Systems/rnas/2be0

>  <Rbt.Executable>
rbdock ($Id: //depot/dev/client3/rdock/2013.1/src/exe/rbdock.cxx#4 $)

>  <Rbt.Library>
libRbt.so (2013.1, Build901 2013/11/27)

>  <Rbt.Parameter_File>
/export/apps/rDock/src/rDock_2013.1_src/data/scripts/dock_solv.prm

>  <Rbt.Receptor>
prm/blind_docking_80.prm

>  <SCORE>
44.065

>  <SCORE.INTER>
3.32881

>  <SCORE.INTER.CONST>
1

>  <SCORE.INTER.POLAR>
-0.776253

>  <SCORE.INTER.ROT>
15

>  <SCORE.INTER.SOLV>
31.6327

>  <SCORE.INTER.VDW>
-19.3375

>  <SCORE.INTER.norm>
0.0640155

>  <SCORE.INTRA>
18.0118

>  <SCORE.INTRA.DIHEDRAL>
-20.0694

>  <SCORE.INTRA.DIHEDRAL.0>
47.8724

>  <SCORE.INTRA.POLAR>
0

>  <SCORE.INTRA.POLAR.0>
0

>  <SCORE.INTRA.REPUL>
0

>  <SCORE.INTRA.REPUL.0>
0

>  <SCORE.INTRA.SOLV>
6.81833

>  <SCORE.INTRA.SOLV.lig_0>
-115.677

>  <SCORE.INTRA.VDW>
24.6373

>  <SCORE.INTRA.VDW.0>
-7.4833

>  <SCORE.INTRA.norm>
0.34638

>  <SCORE.RESTR>
22.7244

>  <SCORE.RESTR.CAVITY>
22.7244

>  <SCORE.RESTR.norm>
0.437007

>  <SCORE.SYSTEM>
0

>  <SCORE.SYSTEM.CONST>
0

>  <SCORE.SYSTEM.DIHEDRAL>
0

>  <SCORE.SYSTEM.SOLV>
0

>  <SCORE.SYSTEM.norm>
0

>  <SCORE.heavy>
52

>  <SCORE.norm>
0.847403

>  <RMSD>
32.604

$$$$
2be0_lig
 OpenBabel11021811423D
libRbt.so/2013.1/901 2013/11/27
 52 56  0  0  0  0  0  0  0  0999 V2000
   24.9604   24.7546    6.5141 C   0  0  2  0  0  0  0  0  0  0  0  0
   25.4383   25.3058    7.7185 O   0  0  0  0  0  0  0  0  0  0  0  0
   22.8394   23.1808   10.5647 C   0  0  2  0  0  0  0  0  0  0  0  0
   22.2839   22.7096   11.8643 N   0  0  0  0  0  0  0  0  0  0  0  0
   24.4274   27.4052    9.2034 C   0  0  2  0  0  0  0  0  0  0  0  0
   24.0755   28.5752    9.9699 O   0  0  0  0  0  0  0  0  0  0  0  0
   23.9665   31.2184    6.3270 C   0  0  1  0  0  0  0  0  0  0  0  0
   30.3139   25.1082   11.3028 C   0  0  0  0  0  0  0  0  0  0  0  0
   26.1324   24.5597    5.4680 C   0  0  2  0  0  0  0  0  0  0  0  0
   27.2073   23.7680    6.0701 N   0  0  0  0  0  0  0  0  0  0  0  0
   24.3898   22.8074   10.4929 C   0  0  0  0  0  0  0  0  0  0  0  0
   25.1276   27.9043    7.9294 C   0  0  2  0  0  0  0  0  0  0  0  0
   26.5510   28.0741    8.3565 O   0  0  0  0  0  0  0  0  0  0  0  0
   24.9271   32.2359    5.5005 C   0  0  2  0  0  0  0  0  0  0  0  0
   26.0362   32.6878    6.4012 N   0  0  0  0  0  0  0  0  0  0  0  0
   29.9753   23.8647   11.9304 C   0  0  0  0  0  0  0  0  0  0  0  0
   30.3607   23.6282   13.2760 N   0  0  0  0  0  0  0  0  0  0  0  0
   26.6491   25.9874    4.9677 C   0  0  1  0  0  0  0  0  0  0  0  0
   27.7031   25.7909    4.0378 O   0  0  0  0  0  0  0  0  0  0  0  0
   25.0417   23.3208    9.0852 C   0  0  2  0  0  0  0  0  0  0  0  0
   26.4363   22.9889    9.0072 N   0  0  0  0  0  0  0  0  0  0  0  0
   24.2580   29.1455    7.6536 C   0  0  2  0  0  0  0  0  0  0  0  0
   24.7830   30.1149    6.7584 O   0  0  0  0  0  0  0  0  0  0  0  0
   24.0583   33.4444    5.0381 C   0  0  1  0  0  0  0  0  0  0  0  0
   23.0204   32.8892    4.1537 O   0  0  0  0  0  0  0  0  0  0  0  0
   31.0825   24.5778   14.0541 C   0  0  0  0  0  0  0  0  0  0  0  0
   25.4518   26.7529    4.3331 C   0  0  2  0  0  0  0  0  0  0  0  0
   25.8702   28.0918    3.8519 O   0  0  0  0  0  0  0  0  0  0  0  0
   24.8609   24.8888    8.9497 C   0  0  2  0  0  0  0  0  0  0  0  0
   23.9612   29.6958    9.0689 C   0  0  1  0  0  0  0  0  0  0  0  0
   23.3979   34.1812    6.3291 C   0  0  2  0  0  0  0  0  0  0  0  0
   24.4295   34.7383    7.2178 O   0  0  0  0  0  0  0  0  0  0  0  0
   31.4439   25.8250   13.4877 C   0  0  0  0  0  0  0  0  0  0  0  0
   24.2952   26.9367    5.3895 C   0  0  2  0  0  0  0  0  0  0  0  0
   23.9336   25.5966    5.8235 O   0  0  0  0  0  0  0  0  0  0  0  0
   23.3268   25.2017    9.0371 C   0  0  2  0  0  0  0  0  0  0  0  0
   23.2835   26.6161    8.8928 O   0  0  0  0  0  0  0  0  0  0  0  0
   22.5355   30.2292    9.1997 C   0  0  0  0  0  0  0  0  0  0  0  0
   21.5167   29.3324    8.8268 O   0  0  0  0  0  0  0  0  0  0  0  0
   22.5026   33.1339    7.1382 C   0  0  1  0  0  0  0  0  0  0  0  0
   23.3731   31.9567    7.5265 O   0  0  0  0  0  0  0  0  0  0  0  0
   31.0658   26.1201   12.0862 C   0  0  0  0  0  0  0  0  0  0  0  0
   23.1873   27.6446    4.7281 C   0  0  0  0  0  0  0  0  0  0  0  0
   23.3781   28.9659    4.8299 O   0  0  0  0  0  0  0  0  0  0  0  0
   22.7338   24.7181   10.4271 C   0  0  1  0  0  0  0  0  0  0  0  0
   21.3727   24.9929   10.4848 O   0  0  0  0  0  0  0  0  0  0  0  0
   27.7749   27.5595    7.6980 C   0  0  0  0  0  0  0  0  0  0  0  0
   21.9099   33.8875    8.3599 C   0  0  0  0  0  0  0  0  0  0  0  0
   21.2821   35.1163    7.9422 N   0  0  0  0  0  0  0  0  0  0  0  0
   28.8748   27.5072    8.7633 C   0  0  0  0  0  0  0  0  0  0  0  0
   28.6568   26.3165    9.6473 N   0  0  0  0  0  0  0  0  0  0  0  0
   29.8638   25.3490    9.7798 C   0  0  0  0  0  0  0  0  0  0  0  0
  1  2  1  1  0  0  0
  1  9  1  0  0  0  0
  1 35  1  0  0  0  0
  3  4  1  1  0  0  0
  3 11  1  0  0  0  0
  3 45  1  0  0  0  0
  5  6  1  0  0  0  0
  5 12  1  0  0  0  0
  5 37  1  6  0  0  0
  6 30  1  0  0  0  0
  7 14  1  0  0  0  0
  7 41  1  0  0  0  0
  7 23  1  1  0  0  0
  8 16  2  0  0  0  0
  8 42  1  0  0  0  0
  9 10  1  1  0  0  0
  9 18  1  0  0  0  0
 11 20  1  0  0  0  0
 12 13  1  1  0  0  0
 12 22  1  0  0  0  0
 13 47  1  0  0  0  0
 14 15  1  1  0  0  0
 14 24  1  0  0  0  0
 16 17  1  0  0  0  0
 17 26  2  0  0  0  0
 18 19  1  6  0  0  0
 18 27  1  0  0  0  0
 20 21  1  1  0  0  0
 20 29  1  0  0  0  0
 22 23  1  6  0  0  0
 22 30  1  0  0  0  0
 24 25  1  6  0  0  0
 24 31  1  0  0  0  0
 26 33  1  0  0  0  0
 27 28  1  1  0  0  0
 27 34  1  0  0  0  0
 29  2  1  6  0  0  0
 29 36  1  0  0  0  0
 30 38  1  6  0  0  0
 31 32  1  1  0  0  0
 31 40  1  0  0  0  0
 33 42  2  0  0  0  0
 34 35  1  0  0  0  0
 34 43  1  6  0  0  0
 36 37  1  1  0  0  0
 36 45  1  0  0  0  0
 38 39  1  0  0  0  0
 40 41  1  0  0  0  0
 40 48  1  1  0  0  0
 43 44  1  0  0  0  0
 45 46  1  6  0  0  0
 47 50  1  0  0  0  0
 48 49  1  0  0  0  0
 50 51  1  0  0  0  0
 51 52  1  0  0  0  0
 52  8  1  0  0  0  0
M  END
>  <CHROM.1>
-144.17632077,-135.64938713,171.85392242,129.64363304,-157.87088582,172.53823135
58.64601205,-62.57365802,-87.39171553,-22.90574458,50.85189339,76.86277478
125.58745480,124.34792839,104.81759355,25.25195635,27.69664581,8.08829782
1.03342542,0.51215061,2.94046162

>  <Name>
2be0_lig

>  <RI>
0

>  <Rbt.Current_Directory>
/home/itssahil/PROJECTS/Mol_Feturizer/New_Systems/rnas/2be0

>  <Rbt.Executable>
rbdock ($Id: //depot/dev/client3/rdock/2013.1/src/exe/rbdock.cxx#4 $)

>  <Rbt.Library>
libRbt.so (2013.1, Build901 2013/11/27)

>  <Rbt.Parameter_File>
/export/apps/rDock/src/rDock_2013.1_src/data/scripts/dock_solv.prm

>  <Rbt.Receptor>
prm/blind_docking_80.prm

>  <SCORE>
50.8057

>  <SCORE.INTER>
18.0853

>  <SCORE.INTER.CONST>
1

>  <SCORE.INTER.POLAR>
0

>  <SCORE.INTER.ROT>
15

>  <SCORE.INTER.SOLV>
24.8468

>  <SCORE.INTER.VDW>
-9.82542

>  <SCORE.INTER.norm>
0.347794

>  <SCORE.INTRA>
1.19439

>  <SCORE.INTRA.DIHEDRAL>
-16.3336

>  <SCORE.INTRA.DIHEDRAL.0>
47.8724

>  <SCORE.INTRA.POLAR>
0

>  <SCORE.INTRA.POLAR.0>
0

>  <SCORE.INTRA.REPUL>
0.0330561

>  <SCORE.INTRA.REPUL.0>
0

>  <SCORE.INTRA.SOLV>
3.72445

>  <SCORE.INTRA.SOLV.lig_0>
-115.677

>  <SCORE.INTRA.VDW>
7.33368

>  <SCORE.INTRA.VDW.0>
-7.4833

>  <SCORE.INTRA.norm>
0.022969

>  <SCORE.RESTR>
31.526

>  <SCORE.RESTR.CAVITY>
31.526

>  <SCORE.RESTR.norm>
0.60627

>  <SCORE.SYSTEM>
0

>  <SCORE.SYSTEM.CONST>
0

>  <SCORE.SYSTEM.DIHEDRAL>
0

>  <SCORE.SYSTEM.SOLV>
0

>  <SCORE.SYSTEM.norm>
0

>  <SCORE.heavy>
52

>  <SCORE.norm>
0.977033

>  <RMSD>
32.607

$$$$
2be0_lig
 OpenBabel11021811423D
libRbt.so/2013.1/901 2013/11/27
 52 56  0  0  0  0  0  0  0  0999 V2000
   23.2493   33.4741    8.0864 C   0  0  2  0  0  0  0  0  0  0  0  0
   22.1935   32.6149    7.7261 O   0  0  0  0  0  0  0  0  0  0  0  0
   20.7325   30.4602    4.1773 C   0  0  2  0  0  0  0  0  0  0  0  0
   20.6523   29.9850    2.7676 N   0  0  0  0  0  0  0  0  0  0  0  0
   23.9594   28.9338    6.7354 C   0  0  2  0  0  0  0  0  0  0  0  0
   23.5547   27.9502    7.7096 O   0  0  0  0  0  0  0  0  0  0  0  0
   27.3253   27.1844    9.0210 C   0  0  1  0  0  0  0  0  0  0  0  0
   26.7045   23.9043    2.5164 C   0  0  0  0  0  0  0  0  0  0  0  0
   23.1765   34.8384    7.2869 C   0  0  2  0  0  0  0  0  0  0  0  0
   21.8577   35.4490    7.4679 N   0  0  0  0  0  0  0  0  0  0  0  0
   20.6933   32.0559    4.1940 C   0  0  0  0  0  0  0  0  0  0  0  0
   25.4922   29.0235    6.8070 C   0  0  2  0  0  0  0  0  0  0  0  0
   25.9494   27.9191    5.9077 O   0  0  0  0  0  0  0  0  0  0  0  0
   28.8648   27.1669    9.5416 C   0  0  2  0  0  0  0  0  0  0  0  0
   29.7305   27.8128    8.5028 N   0  0  0  0  0  0  0  0  0  0  0  0
   27.9430   23.8264    3.2340 C   0  0  0  0  0  0  0  0  0  0  0  0
   29.1713   23.9256    2.5295 N   0  0  0  0  0  0  0  0  0  0  0  0
   23.5077   34.5760    5.7451 C   0  0  1  0  0  0  0  0  0  0  0  0
   23.4298   35.8084    5.0456 O   0  0  0  0  0  0  0  0  0  0  0  0
   20.7935   32.6190    5.7246 C   0  0  2  0  0  0  0  0  0  0  0  0
   20.7570   34.0540    5.7536 N   0  0  0  0  0  0  0  0  0  0  0  0
   25.6650   28.8901    8.3318 C   0  0  2  0  0  0  0  0  0  0  0  0
   26.9616   28.5601    8.8075 O   0  0  0  0  0  0  0  0  0  0  0  0
   29.2775   25.6806    9.7643 C   0  0  1  0  0  0  0  0  0  0  0  0
   28.3794   25.1570   10.8067 O   0  0  0  0  0  0  0  0  0  0  0  0
   29.2437   24.1003    1.1180 C   0  0  0  0  0  0  0  0  0  0  0  0
   24.9251   33.9412    5.6441 C   0  0  2  0  0  0  0  0  0  0  0  0
   25.2882   33.6700    4.2321 O   0  0  0  0  0  0  0  0  0  0  0  0
   22.1334   32.1085    6.3982 C   0  0  2  0  0  0  0  0  0  0  0  0
   24.5736   27.8671    8.7272 C   0  0  1  0  0  0  0  0  0  0  0  0
   29.1187   24.8453    8.3776 C   0  0  2  0  0  0  0  0  0  0  0  0
   30.0133   25.3634    7.3309 O   0  0  0  0  0  0  0  0  0  0  0  0
   28.0526   24.1854    0.3558 C   0  0  0  0  0  0  0  0  0  0  0  0
   24.9778   32.5844    6.4466 C   0  0  2  0  0  0  0  0  0  0  0  0
   24.6105   32.9145    7.8144 O   0  0  0  0  0  0  0  0  0  0  0  0
   22.1266   30.5412    6.3464 C   0  0  2  0  0  0  0  0  0  0  0  0
   23.3526   30.1983    6.9810 O   0  0  0  0  0  0  0  0  0  0  0  0
   23.9050   28.2127   10.0567 C   0  0  0  0  0  0  0  0  0  0  0  0
   23.0392   27.2301   10.5727 O   0  0  0  0  0  0  0  0  0  0  0  0
   27.6036   24.9294    7.8773 C   0  0  1  0  0  0  0  0  0  0  0  0
   27.2301   26.3890    7.7195 O   0  0  0  0  0  0  0  0  0  0  0  0
   26.7445   24.0866    1.0440 C   0  0  0  0  0  0  0  0  0  0  0  0
   26.3423   32.0447    6.3327 C   0  0  0  0  0  0  0  0  0  0  0  0
   27.2117   32.9145    6.8621 O   0  0  0  0  0  0  0  0  0  0  0  0
   22.0595   30.0297    4.8459 C   0  0  1  0  0  0  0  0  0  0  0  0
   22.0438   28.6403    4.8175 O   0  0  0  0  0  0  0  0  0  0  0  0
   25.2861   26.6219    5.6363 C   0  0  0  0  0  0  0  0  0  0  0  0
   27.5154   24.1271    6.5506 C   0  0  0  0  0  0  0  0  0  0  0  0
   26.1438   23.9998    6.1249 N   0  0  0  0  0  0  0  0  0  0  0  0
   25.7010   26.1870    4.2270 C   0  0  0  0  0  0  0  0  0  0  0  0
   24.7264   25.1717    3.7111 N   0  0  0  0  0  0  0  0  0  0  0  0
   25.3298   23.7904    3.3396 C   0  0  0  0  0  0  0  0  0  0  0  0
  1  2  1  6  0  0  0
  1  9  1  0  0  0  0
  1 35  1  0  0  0  0
  3  4  1  6  0  0  0
  3 11  1  0  0  0  0
  3 45  1  0  0  0  0
  5  6  1  0  0  0  0
  5 12  1  0  0  0  0
  5 37  1  1  0  0  0
  6 30  1  0  0  0  0
  7 14  1  0  0  0  0
  7 41  1  0  0  0  0
  7 23  1  6  0  0  0
  8 16  2  0  0  0  0
  8 42  1  0  0  0  0
  9 10  1  6  0  0  0
  9 18  1  0  0  0  0
 11 20  1  0  0  0  0
 12 13  1  6  0  0  0
 12 22  1  0  0  0  0
 13 47  1  0  0  0  0
 14 15  1  6  0  0  0
 14 24  1  0  0  0  0
 16 17  1  0  0  0  0
 17 26  2  0  0  0  0
 18 19  1  6  0  0  0
 18 27  1  0  0  0  0
 20 21  1  6  0  0  0
 20 29  1  0  0  0  0
 22 23  1  6  0  0  0
 22 30  1  0  0  0  0
 24 25  1  1  0  0  0
 24 31  1  0  0  0  0
 26 33  1  0  0  0  0
 27 28  1  6  0  0  0
 27 34  1  0  0  0  0
 29  2  1  1  0  0  0
 29 36  1  0  0  0  0
 30 38  1  1  0  0  0
 31 32  1  6  0  0  0
 31 40  1  0  0  0  0
 33 42  2  0  0  0  0
 34 35  1  0  0  0  0
 34 43  1  1  0  0  0
 36 37  1  6  0  0  0
 36 45  1  0  0  0  0
 38 39  1  0  0  0  0
 40 41  1  0  0  0  0
 40 48  1  6  0  0  0
 43 44  1  0  0  0  0
 45 46  1  1  0  0  0
 47 50  1  0  0  0  0
 48 49  1  0  0  0  0
 50 51  1  0  0  0  0
 51 52  1  0  0  0  0
 52  8  1  0  0  0  0
M  END
>  <CHROM.1>
65.04774226,-92.68121035,179.27205873,-31.49849303,152.00903861,-92.21048923
-118.21051258,72.39271917,60.76677443,-157.75907650,172.21860485,-160.37459497
-120.69775877,-43.90586137,95.44178174,25.17379562,28.85990458,6.27809116
-2.56815390,0.90429238,-2.17572047

>  <Name>
2be0_lig

>  <RI>
2.57068e+07

>  <Rbt.Current_Directory>
/home/itssahil/PROJECTS/Mol_Feturizer/New_Systems/rnas/2be0

>  <Rbt.Executable>
rbdock ($Id: //depot/dev/client3/rdock/2013.1/src/exe/rbdock.cxx#4 $)

>  <Rbt.Library>
libRbt.so (2013.1, Build901 2013/11/27)

>  <Rbt.Parameter_File>
/export/apps/rDock/src/rDock_2013.1_src/data/scripts/dock_solv.prm

>  <Rbt.Receptor>
prm/blind_docking_60.prm

>  <SCORE>
31.4614

>  <SCORE.INTER>
6.10378

>  <SCORE.INTER.CONST>
1

>  <SCORE.INTER.POLAR>
-1.27678

>  <SCORE.INTER.ROT>
15

>  <SCORE.INTER.SOLV>
30.4743

>  <SCORE.INTER.VDW>
-15.433

>  <SCORE.INTER.norm>
0.11738

>  <SCORE.INTRA>
-0.19132

>  <SCORE.INTRA.DIHEDRAL>
-19.4141

>  <SCORE.INTRA.DIHEDRAL.0>
47.8724

>  <SCORE.INTRA.POLAR>
0

>  <SCORE.INTRA.POLAR.0>
0

>  <SCORE.INTRA.REPUL>
0

>  <SCORE.INTRA.REPUL.0>
0

>  <SCORE.INTRA.SOLV>
9.50452

>  <SCORE.INTRA.SOLV.lig_0>
-115.677

>  <SCORE.INTRA.VDW>
4.76347

>  <SCORE.INTRA.VDW.0>
-7.4833

>  <SCORE.INTRA.norm>
-0.00367924

>  <SCORE.RESTR>
25.549

>  <SCORE.RESTR.CAVITY>
25.549

>  <SCORE.RESTR.norm>
0.491326

>  <SCORE.SYSTEM>
0

>  <SCORE.SYSTEM.CONST>
0

>  <SCORE.SYSTEM.DIHEDRAL>
0

>  <SCORE.SYSTEM.SOLV>
0

>  <SCORE.SYSTEM.norm>
0

>  <SCORE.heavy>
52

>  <SCORE.norm>
0.605027

>  <RMSD>
32.687

$$$$
2be0_lig
 OpenBabel11021811423D
libRbt.so/2013.1/901 2013/11/27
 52 56  0  0  0  0  0  0  0  0999 V2000
   22.7244   32.3417    7.1291 C   0  0  2  0  0  0  0  0  0  0  0  0
   22.4612   31.1106    6.4981 O   0  0  0  0  0  0  0  0  0  0  0  0
   23.0003   28.1383    9.6989 C   0  0  2  0  0  0  0  0  0  0  0  0
   23.3308   26.8462   10.3628 N   0  0  0  0  0  0  0  0  0  0  0  0
   26.0177   29.8673    7.1148 C   0  0  2  0  0  0  0  0  0  0  0  0
   25.9769   29.7694    5.6764 O   0  0  0  0  0  0  0  0  0  0  0  0
   25.8186   25.6197    7.0444 C   0  0  1  0  0  0  0  0  0  0  0  0
   30.6766   25.8401   11.7725 C   0  0  0  0  0  0  0  0  0  0  0  0
   22.0835   33.5460    6.3261 C   0  0  2  0  0  0  0  0  0  0  0  0
   20.6534   33.3026    6.1257 N   0  0  0  0  0  0  0  0  0  0  0  0
   21.9032   27.8795    8.5685 C   0  0  0  0  0  0  0  0  0  0  0  0
   25.9040   28.4346    7.6597 C   0  0  2  0  0  0  0  0  0  0  0  0
   27.3149   27.9386    7.6360 O   0  0  0  0  0  0  0  0  0  0  0  0
   25.8279   24.2876    6.1134 C   0  0  2  0  0  0  0  0  0  0  0  0
   24.4926   23.6162    6.2221 N   0  0  0  0  0  0  0  0  0  0  0  0
   30.2784   24.4712   11.6227 C   0  0  0  0  0  0  0  0  0  0  0  0
   30.4919   23.5562   12.6868 N   0  0  0  0  0  0  0  0  0  0  0  0
   22.8572   33.7403    4.9407 C   0  0  1  0  0  0  0  0  0  0  0  0
   22.2633   34.8182    4.2339 O   0  0  0  0  0  0  0  0  0  0  0  0
   21.5226   29.2730    7.8049 C   0  0  2  0  0  0  0  0  0  0  0  0
   20.5344   29.0541    6.7866 N   0  0  0  0  0  0  0  0  0  0  0  0
   24.8805   27.8795    6.6511 C   0  0  2  0  0  0  0  0  0  0  0  0
   24.7579   26.4672    6.5677 O   0  0  0  0  0  0  0  0  0  0  0  0
   26.9643   23.3529    6.6272 C   0  0  1  0  0  0  0  0  0  0  0  0
   28.2200   24.1029    6.4593 O   0  0  0  0  0  0  0  0  0  0  0  0
   31.0945   23.9302   13.9217 C   0  0  0  0  0  0  0  0  0  0  0  0
   24.3602   34.0056    5.2457 C   0  0  2  0  0  0  0  0  0  0  0  0
   25.1333   34.1907    3.9939 O   0  0  0  0  0  0  0  0  0  0  0  0
   22.8233   29.9024    7.1556 C   0  0  2  0  0  0  0  0  0  0  0  0
   25.2899   28.5524    5.3193 C   0  0  1  0  0  0  0  0  0  0  0  0
   26.7100   22.9744    8.1886 C   0  0  2  0  0  0  0  0  0  0  0  0
   25.4562   22.2249    8.3642 O   0  0  0  0  0  0  0  0  0  0  0  0
   31.5075   25.2695   14.1280 C   0  0  0  0  0  0  0  0  0  0  0  0
   24.9802   32.7960    6.0458 C   0  0  2  0  0  0  0  0  0  0  0  0
   24.1807   32.6638    7.2534 O   0  0  0  0  0  0  0  0  0  0  0  0
   23.8690   30.1259    8.3026 C   0  0  2  0  0  0  0  0  0  0  0  0
   24.9752   30.6981    7.6153 O   0  0  0  0  0  0  0  0  0  0  0  0
   24.0823   28.9539    4.4739 C   0  0  0  0  0  0  0  0  0  0  0  0
   23.8800   30.3390    4.3262 O   0  0  0  0  0  0  0  0  0  0  0  0
   26.6598   24.3137    9.0586 C   0  0  1  0  0  0  0  0  0  0  0  0
   25.5763   25.2110    8.4969 O   0  0  0  0  0  0  0  0  0  0  0  0
   31.3076   26.2630   13.0476 C   0  0  0  0  0  0  0  0  0  0  0  0
   26.3905   33.1128    6.3226 C   0  0  0  0  0  0  0  0  0  0  0  0
   26.8228   32.3663    7.3466 O   0  0  0  0  0  0  0  0  0  0  0  0
   24.2382   28.7500    9.0012 C   0  0  1  0  0  0  0  0  0  0  0  0
   25.1572   28.9662   10.0211 O   0  0  0  0  0  0  0  0  0  0  0  0
   28.0953   27.3364    8.7427 C   0  0  0  0  0  0  0  0  0  0  0  0
   26.4046   23.8924   10.5313 C   0  0  0  0  0  0  0  0  0  0  0  0
   27.2741   24.6173   11.4243 N   0  0  0  0  0  0  0  0  0  0  0  0
   29.4457   26.9042    8.1622 C   0  0  0  0  0  0  0  0  0  0  0  0
   30.2082   26.1308    9.1952 N   0  0  0  0  0  0  0  0  0  0  0  0
   30.4215   26.8535   10.5525 C   0  0  0  0  0  0  0  0  0  0  0  0
  1  2  1  6  0  0  0
  1  9  1  0  0  0  0
  1 35  1  0  0  0  0
  3  4  1  6  0  0  0
  3 11  1  0  0  0  0
  3 45  1  0  0  0  0
  5  6  1  0  0  0  0
  5 12  1  0  0  0  0
  5 37  1  1  0  0  0
  6 30  1  0  0  0  0
  7 14  1  0  0  0  0
  7 41  1  0  0  0  0
  7 23  1  6  0  0  0
  8 16  2  0  0  0  0
  8 42  1  0  0  0  0
  9 10  1  6  0  0  0
  9 18  1  0  0  0  0
 11 20  1  0  0  0  0
 12 13  1  6  0  0  0
 12 22  1  0  0  0  0
 13 47  1  0  0  0  0
 14 15  1  1  0  0  0
 14 24  1  0  0  0  0
 16 17  1  0  0  0  0
 17 26  2  0  0  0  0
 18 19  1  1  0  0  0
 18 27  1  0  0  0  0
 20 21  1  6  0  0  0
 20 29  1  0  0  0  0
 22 23  1  6  0  0  0
 22 30  1  0  0  0  0
 24 25  1  1  0  0  0
 24 31  1  0  0  0  0
 26 33  1  0  0  0  0
 27 28  1  6  0  0  0
 27 34  1  0  0  0  0
 29  2  1  1  0  0  0
 29 36  1  0  0  0  0
 30 38  1  6  0  0  0
 31 32  1  6  0  0  0
 31 40  1  0  0  0  0
 33 42  2  0  0  0  0
 34 35  1  0  0  0  0
 34 43  1  1  0  0  0
 36 37  1  6  0  0  0
 36 45  1  0  0  0  0
 38 39  1  0  0  0  0
 40 41  1  0  0  0  0
 40 48  1  1  0  0  0
 43 44  1  0  0  0  0
 45 46  1  1  0  0  0
 47 50  1  0  0  0  0
 48 49  1  0  0  0  0
 50 51  1  0  0  0  0
 51 52  1  0  0  0  0
 52  8  1  0  0  0  0
M  END
>  <CHROM.1>
-172.71135217,107.87165489,-147.86165674,127.04147783,175.70209862,-20.21079237
101.29349062,-3.99634909,159.43953584,-92.43410909,135.32325320,-172.81874426
-55.19818271,156.40708067,-19.34613972,25.68360341,28.25496950,7.90899939
-2.25576673,0.58485052,3.01408545

>  <Name>
2be0_lig

>  <RI>
0

>  <Rbt.Current_Directory>
/home/itssahil/PROJECTS/Mol_Feturizer/New_Systems/rnas/2be0

>  <Rbt.Executable>
rbdock ($Id: //depot/dev/client3/rdock/2013.1/src/exe/rbdock.cxx#4 $)

>  <Rbt.Library>
libRbt.so (2013.1, Build901 2013/11/27)

>  <Rbt.Parameter_File>
/export/apps/rDock/src/rDock_2013.1_src/data/scripts/dock_solv.prm

>  <Rbt.Receptor>
prm/blind_docking_80.prm

>  <SCORE>
60.7582

>  <SCORE.INTER>
1.8828

>  <SCORE.INTER.CONST>
1

>  <SCORE.INTER.POLAR>
-0.629802

>  <SCORE.INTER.ROT>
15

>  <SCORE.INTER.SOLV>
25.2603

>  <SCORE.INTER.VDW>
-18.6655

>  <SCORE.INTER.norm>
0.0362078

>  <SCORE.INTRA>
32.028

>  <SCORE.INTRA.DIHEDRAL>
-3.00719

>  <SCORE.INTRA.DIHEDRAL.0>
47.8724

>  <SCORE.INTRA.POLAR>
0

>  <SCORE.INTRA.POLAR.0>
0

>  <SCORE.INTRA.REPUL>
0

>  <SCORE.INTRA.REPUL.0>
0

>  <SCORE.INTRA.SOLV>
6.41322

>  <SCORE.INTRA.SOLV.lig_0>
-115.677

>  <SCORE.INTRA.VDW>
30.325

>  <SCORE.INTRA.VDW.0>
-7.4833

>  <SCORE.INTRA.norm>
0.615923

>  <SCORE.RESTR>
26.8474

>  <SCORE.RESTR.CAVITY>
26.8474

>  <SCORE.RESTR.norm>
0.516296

>  <SCORE.SYSTEM>
0

>  <SCORE.SYSTEM.CONST>
0

>  <SCORE.SYSTEM.DIHEDRAL>
0

>  <SCORE.SYSTEM.SOLV>
0

>  <SCORE.SYSTEM.norm>
0

>  <SCORE.heavy>
52

>  <SCORE.norm>
1.16843

>  <RMSD>
32.710

$$$$
2be0_lig
 OpenBabel11021811423D
libRbt.so/2013.1/901 2013/11/27
 52 56  0  0  0  0  0  0  0  0999 V2000
   23.2036   25.1330    9.6242 C   0  0  2  0  0  0  0  0  0  0  0  0
   23.6159   26.4530    9.3586 O   0  0  0  0  0  0  0  0  0  0  0  0
   21.8269   27.0156    5.3769 C   0  0  2  0  0  0  0  0  0  0  0  0
   21.4892   27.6597    4.0766 N   0  0  0  0  0  0  0  0  0  0  0  0
   26.0022   26.9404    6.8566 C   0  0  2  0  0  0  0  0  0  0  0  0
   27.2975   26.4577    6.4449 O   0  0  0  0  0  0  0  0  0  0  0  0
   29.4293   27.0875   10.0431 C   0  0  1  0  0  0  0  0  0  0  0  0
   24.3404   33.8627    5.5778 C   0  0  0  0  0  0  0  0  0  0  0  0
   23.1973   24.8363   11.1791 C   0  0  2  0  0  0  0  0  0  0  0  0
   22.3834   25.8378   11.8713 N   0  0  0  0  0  0  0  0  0  0  0  0
   21.4050   27.9908    6.5683 C   0  0  0  0  0  0  0  0  0  0  0  0
   26.2211   27.7560    8.1409 C   0  0  2  0  0  0  0  0  0  0  0  0
   26.5857   29.1152    7.6339 O   0  0  0  0  0  0  0  0  0  0  0  0
   29.4653   25.5034   10.4048 C   0  0  2  0  0  0  0  0  0  0  0  0
   28.6590   25.2759   11.6473 N   0  0  0  0  0  0  0  0  0  0  0  0
   23.8984   34.8709    6.4960 C   0  0  0  0  0  0  0  0  0  0  0  0
   24.2182   36.2324    6.2528 N   0  0  0  0  0  0  0  0  0  0  0  0
   24.6992   24.8041   11.7261 C   0  0  1  0  0  0  0  0  0  0  0  0
   24.6711   24.5447   13.1211 O   0  0  0  0  0  0  0  0  0  0  0  0
   21.7724   27.3259    8.0149 C   0  0  2  0  0  0  0  0  0  0  0  0
   21.3957   28.1927    9.0956 N   0  0  0  0  0  0  0  0  0  0  0  0
   27.2956   26.8717    8.8013 C   0  0  2  0  0  0  0  0  0  0  0  0
   28.0500   27.4520    9.8551 O   0  0  0  0  0  0  0  0  0  0  0  0
   30.9537   25.0968   10.6248 C   0  0  1  0  0  0  0  0  0  0  0  0
   31.6403   25.3451    9.3465 O   0  0  0  0  0  0  0  0  0  0  0  0
   24.9721   36.6620    5.1236 C   0  0  0  0  0  0  0  0  0  0  0  0
   25.4860   23.7091   10.9489 C   0  0  2  0  0  0  0  0  0  0  0  0
   26.8929   23.6343   11.4114 O   0  0  0  0  0  0  0  0  0  0  0  0
   23.3266   27.0283    8.0903 C   0  0  2  0  0  0  0  0  0  0  0  0
   28.1537   26.3976    7.6042 C   0  0  1  0  0  0  0  0  0  0  0  0
   31.6020   25.9859   11.8228 C   0  0  2  0  0  0  0  0  0  0  0  0
   30.9203   25.7431   13.1037 O   0  0  0  0  0  0  0  0  0  0  0  0
   25.4350   35.7109    4.1812 C   0  0  0  0  0  0  0  0  0  0  0  0
   25.4805   24.0216    9.4030 C   0  0  2  0  0  0  0  0  0  0  0  0
   24.0810   24.0857    9.0130 O   0  0  0  0  0  0  0  0  0  0  0  0
   23.6892   26.0786    6.8963 C   0  0  2  0  0  0  0  0  0  0  0  0
   25.0858   25.8716    7.0694 O   0  0  0  0  0  0  0  0  0  0  0  0
   28.6053   24.9454    7.7498 C   0  0  0  0  0  0  0  0  0  0  0  0
   27.9530   24.0213    6.9121 O   0  0  0  0  0  0  0  0  0  0  0  0
   31.5019   27.5358   11.4480 C   0  0  1  0  0  0  0  0  0  0  0  0
   30.0474   27.8764   11.1970 O   0  0  0  0  0  0  0  0  0  0  0  0
   25.1282   34.2768    4.3901 C   0  0  0  0  0  0  0  0  0  0  0  0
   26.2177   22.9453    8.7217 C   0  0  0  0  0  0  0  0  0  0  0  0
   27.4458   22.8446    9.2456 O   0  0  0  0  0  0  0  0  0  0  0  0
   23.3481   26.7670    5.5081 C   0  0  1  0  0  0  0  0  0  0  0  0
   23.6653   25.9095    4.4615 O   0  0  0  0  0  0  0  0  0  0  0  0
   25.7276   30.3195    7.5360 C   0  0  0  0  0  0  0  0  0  0  0  0
   32.1232   28.3321   12.6276 C   0  0  0  0  0  0  0  0  0  0  0  0
   33.0619   29.3117   12.1399 N   0  0  0  0  0  0  0  0  0  0  0  0
   26.1981   31.1131    6.3128 C   0  0  0  0  0  0  0  0  0  0  0  0
   25.0420   31.3296    5.3837 N   0  0  0  0  0  0  0  0  0  0  0  0
   23.9627   32.3304    5.8773 C   0  0  0  0  0  0  0  0  0  0  0  0
  1  2  1  1  0  0  0
  1  9  1  0  0  0  0
  1 35  1  0  0  0  0
  3  4  1  6  0  0  0
  3 11  1  0  0  0  0
  3 45  1  0  0  0  0
  5  6  1  0  0  0  0
  5 12  1  0  0  0  0
  5 37  1  1  0  0  0
  6 30  1  0  0  0  0
  7 14  1  0  0  0  0
  7 41  1  0  0  0  0
  7 23  1  1  0  0  0
  8 16  2  0  0  0  0
  8 42  1  0  0  0  0
  9 10  1  1  0  0  0
  9 18  1  0  0  0  0
 11 20  1  0  0  0  0
 12 13  1  6  0  0  0
 12 22  1  0  0  0  0
 13 47  1  0  0  0  0
 14 15  1  1  0  0  0
 14 24  1  0  0  0  0
 16 17  1  0  0  0  0
 17 26  2  0  0  0  0
 18 19  1  1  0  0  0
 18 27  1  0  0  0  0
 20 21  1  1  0  0  0
 20 29  1  0  0  0  0
 22 23  1  1  0  0  0
 22 30  1  0  0  0  0
 24 25  1  6  0  0  0
 24 31  1  0  0  0  0
 26 33  1  0  0  0  0
 27 28  1  1  0  0  0
 27 34  1  0  0  0  0
 29  2  1  1  0  0  0
 29 36  1  0  0  0  0
 30 38  1  1  0  0  0
 31 32  1  1  0  0  0
 31 40  1  0  0  0  0
 33 42  2  0  0  0  0
 34 35  1  0  0  0  0
 34 43  1  6  0  0  0
 36 37  1  6  0  0  0
 36 45  1  0  0  0  0
 38 39  1  0  0  0  0
 40 41  1  0  0  0  0
 40 48  1  1  0  0  0
 43 44  1  0  0  0  0
 45 46  1  6  0  0  0
 47 50  1  0  0  0  0
 48 49  1  0  0  0  0
 50 51  1  0  0  0  0
 51 52  1  0  0  0  0
 52  8  1  0  0  0  0
M  END
>  <CHROM.1>
-162.06959026,-152.13971853,-63.30727743,101.24122275,-147.57121771,-146.44081217
71.89022592,-9.50558885,-55.83394819,-68.80900151,131.61606834,124.21497772
70.96452401,83.24764669,-147.83704071,26.17667954,27.45317008,8.54270319
1.01490406,0.42195444,2.74673501

>  <Name>
2be0_lig

>  <RI>
0

>  <Rbt.Current_Directory>
/home/itssahil/PROJECTS/Mol_Feturizer/New_Systems/rnas/2be0

>  <Rbt.Executable>
rbdock ($Id: //depot/dev/client3/rdock/2013.1/src/exe/rbdock.cxx#4 $)

>  <Rbt.Library>
libRbt.so (2013.1, Build901 2013/11/27)

>  <Rbt.Parameter_File>
/export/apps/rDock/src/rDock_2013.1_src/data/scripts/dock_solv.prm

>  <Rbt.Receptor>
prm/blind_docking_80.prm

>  <SCORE>
36.5091

>  <SCORE.INTER>
7.97466

>  <SCORE.INTER.CONST>
1

>  <SCORE.INTER.POLAR>
-0.359249

>  <SCORE.INTER.ROT>
15

>  <SCORE.INTER.SOLV>
25.6975

>  <SCORE.INTER.VDW>
-15.6519

>  <SCORE.INTER.norm>
0.153359

>  <SCORE.INTRA>
1.83333

>  <SCORE.INTRA.DIHEDRAL>
-11.9069

>  <SCORE.INTRA.DIHEDRAL.0>
47.8724

>  <SCORE.INTRA.POLAR>
0

>  <SCORE.INTRA.POLAR.0>
0

>  <SCORE.INTRA.REPUL>
0

>  <SCORE.INTRA.REPUL.0>
0

>  <SCORE.INTRA.SOLV>
2.46812

>  <SCORE.INTRA.SOLV.lig_0>
-115.677

>  <SCORE.INTRA.VDW>
6.5527

>  <SCORE.INTRA.VDW.0>
-7.4833

>  <SCORE.INTRA.norm>
0.0352564

>  <SCORE.RESTR>
26.7011

>  <SCORE.RESTR.CAVITY>
26.7011

>  <SCORE.RESTR.norm>
0.513482

>  <SCORE.SYSTEM>
0

>  <SCORE.SYSTEM.CONST>
0

>  <SCORE.SYSTEM.DIHEDRAL>
0

>  <SCORE.SYSTEM.SOLV>
0

>  <SCORE.SYSTEM.norm>
0

>  <SCORE.heavy>
52

>  <SCORE.norm>
0.702098

>  <RMSD>
32.713

$$$$
2be0_lig
 OpenBabel11021811423D
libRbt.so/2013.1/901 2013/11/27
 52 56  0  0  0  0  0  0  0  0999 V2000
   21.5891   31.5111    6.8460 C   0  0  2  0  0  0  0  0  0  0  0  0
   21.7740   30.1313    6.6339 O   0  0  0  0  0  0  0  0  0  0  0  0
   23.1785   28.9217   10.6258 C   0  0  2  0  0  0  0  0  0  0  0  0
   23.4908   28.0454   11.7895 N   0  0  0  0  0  0  0  0  0  0  0  0
   25.5839   28.4083    7.0374 C   0  0  2  0  0  0  0  0  0  0  0  0
   26.0901   28.0642    5.7314 O   0  0  0  0  0  0  0  0  0  0  0  0
   25.5008   24.2695    8.2069 C   0  0  1  0  0  0  0  0  0  0  0  0
   29.4806   25.0383   11.1900 C   0  0  0  0  0  0  0  0  0  0  0  0
   21.0995   32.2335    5.5254 C   0  0  2  0  0  0  0  0  0  0  0  0
   19.8988   31.5697    5.0134 N   0  0  0  0  0  0  0  0  0  0  0  0
   21.6296   28.7808   10.2662 C   0  0  0  0  0  0  0  0  0  0  0  0
   25.4834   27.0971    7.8331 C   0  0  2  0  0  0  0  0  0  0  0  0
   26.8592   26.9219    8.3933 O   0  0  0  0  0  0  0  0  0  0  0  0
   25.7487   22.6713    8.0468 C   0  0  2  0  0  0  0  0  0  0  0  0
   24.4816   22.0348    7.5620 N   0  0  0  0  0  0  0  0  0  0  0  0
   29.5745   23.6717   11.6125 C   0  0  0  0  0  0  0  0  0  0  0  0
   30.3600   23.3388   12.7471 N   0  0  0  0  0  0  0  0  0  0  0  0
   22.2817   32.2448    4.4492 C   0  0  1  0  0  0  0  0  0  0  0  0
   21.8206   32.8892    3.2718 O   0  0  0  0  0  0  0  0  0  0  0  0
   21.2482   29.7177    8.9830 C   0  0  2  0  0  0  0  0  0  0  0  0
   19.8563   29.6016    8.6506 N   0  0  0  0  0  0  0  0  0  0  0  0
   24.9938   26.1724    6.7026 C   0  0  2  0  0  0  0  0  0  0  0  0
   25.1136   24.7736    6.9160 O   0  0  0  0  0  0  0  0  0  0  0  0
   26.1560   22.1083    9.4418 C   0  0  1  0  0  0  0  0  0  0  0  0
   27.4106   22.7862    9.8076 O   0  0  0  0  0  0  0  0  0  0  0  0
   31.0773   24.3079   13.5049 C   0  0  0  0  0  0  0  0  0  0  0  0
   23.5078   32.9769    5.0681 C   0  0  2  0  0  0  0  0  0  0  0  0
   24.6424   33.0159    4.1140 O   0  0  0  0  0  0  0  0  0  0  0  0
   22.1287   29.3017    7.7335 C   0  0  2  0  0  0  0  0  0  0  0  0
   25.7642   26.6851    5.4625 C   0  0  1  0  0  0  0  0  0  0  0  0
   24.9846   22.4133   10.5284 C   0  0  2  0  0  0  0  0  0  0  0  0
   23.7273   21.7392   10.1690 O   0  0  0  0  0  0  0  0  0  0  0  0
   31.0215   25.6745   13.1356 C   0  0  0  0  0  0  0  0  0  0  0  0
   23.9801   32.2432    6.3819 C   0  0  2  0  0  0  0  0  0  0  0  0
   22.8289   32.2341    7.2705 O   0  0  0  0  0  0  0  0  0  0  0  0
   23.6357   29.4472    8.1419 C   0  0  2  0  0  0  0  0  0  0  0  0
   24.3232   29.0653    6.9566 O   0  0  0  0  0  0  0  0  0  0  0  0
   24.9088   26.6678    4.1967 C   0  0  0  0  0  0  0  0  0  0  0  0
   23.5670   27.0574    4.3671 O   0  0  0  0  0  0  0  0  0  0  0  0
   24.7406   23.9898   10.6181 C   0  0  1  0  0  0  0  0  0  0  0  0
   24.3943   24.5017    9.2351 O   0  0  0  0  0  0  0  0  0  0  0  0
   30.2160   26.0736   11.9582 C   0  0  0  0  0  0  0  0  0  0  0  0
   25.1232   32.9904    6.9307 C   0  0  0  0  0  0  0  0  0  0  0  0
   24.6834   34.1097    7.5193 O   0  0  0  0  0  0  0  0  0  0  0  0
   23.9781   28.5023    9.3697 C   0  0  1  0  0  0  0  0  0  0  0  0
   25.3133   28.6503    9.7257 O   0  0  0  0  0  0  0  0  0  0  0  0
   27.7115   27.9298    9.0671 C   0  0  0  0  0  0  0  0  0  0  0  0
   23.6096   24.2185   11.6574 C   0  0  0  0  0  0  0  0  0  0  0  0
   24.0874   25.0153   12.7600 N   0  0  0  0  0  0  0  0  0  0  0  0
   29.1659   27.6027    8.7135 C   0  0  0  0  0  0  0  0  0  0  0  0
   29.3764   26.1206    8.7891 N   0  0  0  0  0  0  0  0  0  0  0  0
   28.5836   25.3861    9.9036 C   0  0  0  0  0  0  0  0  0  0  0  0
  1  2  1  6  0  0  0
  1  9  1  0  0  0  0
  1 35  1  0  0  0  0
  3  4  1  1  0  0  0
  3 11  1  0  0  0  0
  3 45  1  0  0  0  0
  5  6  1  0  0  0  0
  5 12  1  0  0  0  0
  5 37  1  6  0  0  0
  6 30  1  0  0  0  0
  7 14  1  0  0  0  0
  7 41  1  0  0  0  0
  7 23  1  6  0  0  0
  8 16  2  0  0  0  0
  8 42  1  0  0  0  0
  9 10  1  6  0  0  0
  9 18  1  0  0  0  0
 11 20  1  0  0  0  0
 12 13  1  6  0  0  0
 12 22  1  0  0  0  0
 13 47  1  0  0  0  0
 14 15  1  1  0  0  0
 14 24  1  0  0  0  0
 16 17  1  0  0  0  0
 17 26  2  0  0  0  0
 18 19  1  6  0  0  0
 18 27  1  0  0  0  0
 20 21  1  6  0  0  0
 20 29  1  0  0  0  0
 22 23  1  1  0  0  0
 22 30  1  0  0  0  0
 24 25  1  1  0  0  0
 24 31  1  0  0  0  0
 26 33  1  0  0  0  0
 27 28  1  6  0  0  0
 27 34  1  0  0  0  0
 29  2  1  6  0  0  0
 29 36  1  0  0  0  0
 30 38  1  6  0  0  0
 31 32  1  6  0  0  0
 31 40  1  0  0  0  0
 33 42  2  0  0  0  0
 34 35  1  0  0  0  0
 34 43  1  1  0  0  0
 36 37  1  6  0  0  0
 36 45  1  0  0  0  0
 38 39  1  0  0  0  0
 40 41  1  0  0  0  0
 40 48  1  1  0  0  0
 43 44  1  0  0  0  0
 45 46  1  1  0  0  0
 47 50  1  0  0  0  0
 48 49  1  0  0  0  0
 50 51  1  0  0  0  0
 51 52  1  0  0  0  0
 52  8  1  0  0  0  0
M  END
>  <CHROM.1>
-175.91251439,177.93200594,-171.97156145,46.31181409,-146.94482155,8.39503123
43.11070222,-76.78698189,75.58779845,-147.57802072,119.02475199,-42.20918927
-35.37909282,-101.35645872,-123.13024493,24.99846373,27.55673497,8.33482463
2.12485809,-0.36605241,-0.34889097

>  <Name>
2be0_lig

>  <RI>
0

>  <Rbt.Current_Directory>
/home/itssahil/PROJECTS/Mol_Feturizer/New_Systems/rnas/2be0

>  <Rbt.Executable>
rbdock ($Id: //depot/dev/client3/rdock/2013.1/src/exe/rbdock.cxx#4 $)

>  <Rbt.Library>
libRbt.so (2013.1, Build901 2013/11/27)

>  <Rbt.Parameter_File>
/export/apps/rDock/src/rDock_2013.1_src/data/scripts/dock_solv.prm

>  <Rbt.Receptor>
prm/blind_docking_80.prm

>  <SCORE>
70.1308

>  <SCORE.INTER>
25.2731

>  <SCORE.INTER.CONST>
1

>  <SCORE.INTER.POLAR>
0

>  <SCORE.INTER.ROT>
15

>  <SCORE.INTER.SOLV>
29.6964

>  <SCORE.INTER.VDW>
-6.65009

>  <SCORE.INTER.norm>
0.486021

>  <SCORE.INTRA>
6.68736

>  <SCORE.INTRA.DIHEDRAL>
-19.5735

>  <SCORE.INTRA.DIHEDRAL.0>
47.8724

>  <SCORE.INTRA.POLAR>
0

>  <SCORE.INTRA.POLAR.0>
0

>  <SCORE.INTRA.REPUL>
0.0466008

>  <SCORE.INTRA.REPUL.0>
0

>  <SCORE.INTRA.SOLV>
1.42818

>  <SCORE.INTRA.SOLV.lig_0>
-115.677

>  <SCORE.INTRA.VDW>
15.527

>  <SCORE.INTRA.VDW.0>
-7.4833

>  <SCORE.INTRA.norm>
0.128603

>  <SCORE.RESTR>
38.1703

>  <SCORE.RESTR.CAVITY>
38.1703

>  <SCORE.RESTR.norm>
0.734045

>  <SCORE.SYSTEM>
0

>  <SCORE.SYSTEM.CONST>
0

>  <SCORE.SYSTEM.DIHEDRAL>
0

>  <SCORE.SYSTEM.SOLV>
0

>  <SCORE.SYSTEM.norm>
0

>  <SCORE.heavy>
52

>  <SCORE.norm>
1.34867

>  <RMSD>
32.713

$$$$
2be0_lig
 OpenBabel11021811423D
libRbt.so/2013.1/901 2013/11/27
 52 56  0  0  0  0  0  0  0  0999 V2000
   29.5897   26.8234   10.5722 C   0  0  2  0  0  0  0  0  0  0  0  0
   29.4078   25.6911    9.7551 O   0  0  0  0  0  0  0  0  0  0  0  0
   26.4966   22.4135    9.3635 C   0  0  2  0  0  0  0  0  0  0  0  0
   25.2197   21.6574    9.4953 N   0  0  0  0  0  0  0  0  0  0  0  0
   26.5741   26.6986    8.1391 C   0  0  2  0  0  0  0  0  0  0  0  0
   25.2356   26.1616    8.1554 O   0  0  0  0  0  0  0  0  0  0  0  0
   23.8055   28.9892    5.6013 C   0  0  1  0  0  0  0  0  0  0  0  0
   24.8526   34.0503    5.6005 C   0  0  0  0  0  0  0  0  0  0  0  0
   30.7285   27.7641   10.0029 C   0  0  2  0  0  0  0  0  0  0  0  0
   30.4368   28.1077    8.6096 N   0  0  0  0  0  0  0  0  0  0  0  0
   27.0050   22.8380   10.8159 C   0  0  0  0  0  0  0  0  0  0  0  0
   26.5511   27.9173    7.2027 C   0  0  2  0  0  0  0  0  0  0  0  0
   26.0960   29.0317    8.0905 O   0  0  0  0  0  0  0  0  0  0  0  0
   22.6007   27.9003    5.5368 C   0  0  2  0  0  0  0  0  0  0  0  0
   22.5256   27.3489    4.1454 N   0  0  0  0  0  0  0  0  0  0  0  0
   24.0940   34.8962    6.4745 C   0  0  0  0  0  0  0  0  0  0  0  0
   24.0464   36.2943    6.2336 N   0  0  0  0  0  0  0  0  0  0  0  0
   32.1474   27.0440   10.1570 C   0  0  1  0  0  0  0  0  0  0  0  0
   33.1522   27.8994    9.6347 O   0  0  0  0  0  0  0  0  0  0  0  0
   28.3994   23.6838   10.7141 C   0  0  2  0  0  0  0  0  0  0  0  0
   28.8687   24.0700   12.0148 N   0  0  0  0  0  0  0  0  0  0  0  0
   25.6038   27.3652    6.1207 C   0  0  2  0  0  0  0  0  0  0  0  0
   25.0183   28.3074    5.2342 O   0  0  0  0  0  0  0  0  0  0  0  0
   21.2769   28.6285    5.9193 C   0  0  1  0  0  0  0  0  0  0  0  0
   21.4572   29.1104    7.2986 O   0  0  0  0  0  0  0  0  0  0  0  0
   24.7269   36.9177    5.1490 C   0  0  0  0  0  0  0  0  0  0  0  0
   32.3813   26.7276   11.6628 C   0  0  2  0  0  0  0  0  0  0  0  0
   33.6855   26.0526   11.8692 O   0  0  0  0  0  0  0  0  0  0  0  0
   28.1803   24.9757    9.8239 C   0  0  2  0  0  0  0  0  0  0  0  0
   24.5733   26.5447    6.9325 C   0  0  1  0  0  0  0  0  0  0  0  0
   21.0055   29.8633    4.8958 C   0  0  2  0  0  0  0  0  0  0  0  0
   20.8247   29.3891    3.5150 O   0  0  0  0  0  0  0  0  0  0  0  0
   25.4916   36.1326    4.2513 C   0  0  0  0  0  0  0  0  0  0  0  0
   31.2374   25.7905   12.2114 C   0  0  2  0  0  0  0  0  0  0  0  0
   29.9910   26.5025   11.9780 O   0  0  0  0  0  0  0  0  0  0  0  0
   27.6726   24.5053    8.4167 C   0  0  2  0  0  0  0  0  0  0  0  0
   27.5244   25.7298    7.7081 O   0  0  0  0  0  0  0  0  0  0  0  0
   24.1665   25.2544    6.2229 C   0  0  0  0  0  0  0  0  0  0  0  0
   22.9512   24.6861    6.6489 O   0  0  0  0  0  0  0  0  0  0  0  0
   22.2345   30.8827    4.9556 C   0  0  1  0  0  0  0  0  0  0  0  0
   23.5036   30.1250    4.6243 O   0  0  0  0  0  0  0  0  0  0  0  0
   25.5737   34.6683    4.4599 C   0  0  0  0  0  0  0  0  0  0  0  0
   31.4998   25.5450   13.6385 C   0  0  0  0  0  0  0  0  0  0  0  0
   30.5963   24.6799   14.1160 O   0  0  0  0  0  0  0  0  0  0  0  0
   26.3033   23.7149    8.5497 C   0  0  1  0  0  0  0  0  0  0  0  0
   25.8723   23.2963    7.2965 O   0  0  0  0  0  0  0  0  0  0  0  0
   25.8881   30.4570    7.7419 C   0  0  0  0  0  0  0  0  0  0  0  0
   21.9260   32.0293    3.9547 C   0  0  0  0  0  0  0  0  0  0  0  0
   22.7923   33.1570    4.1924 N   0  0  0  0  0  0  0  0  0  0  0  0
   24.3755   30.6978    7.7018 C   0  0  0  0  0  0  0  0  0  0  0  0
   24.1033   32.0748    7.1762 N   0  0  0  0  0  0  0  0  0  0  0  0
   24.8875   32.4718    5.8965 C   0  0  0  0  0  0  0  0  0  0  0  0
  1  2  1  6  0  0  0
  1  9  1  0  0  0  0
  1 35  1  0  0  0  0
  3  4  1  1  0  0  0
  3 11  1  0  0  0  0
  3 45  1  0  0  0  0
  5  6  1  0  0  0  0
  5 12  1  0  0  0  0
  5 37  1  6  0  0  0
  6 30  1  0  0  0  0
  7 14  1  0  0  0  0
  7 41  1  0  0  0  0
  7 23  1  6  0  0  0
  8 16  2  0  0  0  0
  8 42  1  0  0  0  0
  9 10  1  6  0  0  0
  9 18  1  0  0  0  0
 11 20  1  0  0  0  0
 12 13  1  1  0  0  0
 12 22  1  0  0  0  0
 13 47  1  0  0  0  0
 14 15  1  6  0  0  0
 14 24  1  0  0  0  0
 16 17  1  0  0  0  0
 17 26  2  0  0  0  0
 18 19  1  1  0  0  0
 18 27  1  0  0  0  0
 20 21  1  1  0  0  0
 20 29  1  0  0  0  0
 22 23  1  1  0  0  0
 22 30  1  0  0  0  0
 24 25  1  1  0  0  0
 24 31  1  0  0  0  0
 26 33  1  0  0  0  0
 27 28  1  6  0  0  0
 27 34  1  0  0  0  0
 29  2  1  6  0  0  0
 29 36  1  0  0  0  0
 30 38  1  6  0  0  0
 31 32  1  6  0  0  0
 31 40  1  0  0  0  0
 33 42  2  0  0  0  0
 34 35  1  0  0  0  0
 34 43  1  1  0  0  0
 36 37  1  6  0  0  0
 36 45  1  0  0  0  0
 38 39  1  0  0  0  0
 40 41  1  0  0  0  0
 40 48  1  6  0  0  0
 43 44  1  0  0  0  0
 45 46  1  6  0  0  0
 47 50  1  0  0  0  0
 48 49  1  0  0  0  0
 50 51  1  0  0  0  0
 51 52  1  0  0  0  0
 52  8  1  0  0  0  0
M  END
>  <CHROM.1>
-159.14911652,-58.78371398,-71.37788881,179.77716693,106.95339276,-85.60604710
-100.91512441,83.81488579,-175.91430871,-63.78177775,164.91658676,-172.51291549
46.92050684,-165.14769612,-2.28982108,26.27329416,28.07736478,7.84423113
-0.80929851,-0.54428532,-0.23791090

>  <Name>
2be0_lig

>  <RI>
0

>  <Rbt.Current_Directory>
/home/itssahil/PROJECTS/Mol_Feturizer/New_Systems/rnas/2be0

>  <Rbt.Executable>
rbdock ($Id: //depot/dev/client3/rdock/2013.1/src/exe/rbdock.cxx#4 $)

>  <Rbt.Library>
libRbt.so (2013.1, Build901 2013/11/27)

>  <Rbt.Parameter_File>
/export/apps/rDock/src/rDock_2013.1_src/data/scripts/dock_solv.prm

>  <Rbt.Receptor>
prm/blind_docking_80.prm

>  <SCORE>
22.2965

>  <SCORE.INTER>
-6.8108

>  <SCORE.INTER.CONST>
1

>  <SCORE.INTER.POLAR>
-0.394171

>  <SCORE.INTER.ROT>
15

>  <SCORE.INTER.SOLV>
29.836

>  <SCORE.INTER.VDW>
-26.772

>  <SCORE.INTER.norm>
-0.130977

>  <SCORE.INTRA>
-1.05354

>  <SCORE.INTRA.DIHEDRAL>
-26.1618

>  <SCORE.INTRA.DIHEDRAL.0>
47.8724

>  <SCORE.INTRA.POLAR>
0

>  <SCORE.INTRA.POLAR.0>
0

>  <SCORE.INTRA.REPUL>
0

>  <SCORE.INTRA.REPUL.0>
0

>  <SCORE.INTRA.SOLV>
10.9757

>  <SCORE.INTRA.SOLV.lig_0>
-115.677

>  <SCORE.INTRA.VDW>
6.53949

>  <SCORE.INTRA.VDW.0>
-7.4833

>  <SCORE.INTRA.norm>
-0.0202605

>  <SCORE.RESTR>
30.1609

>  <SCORE.RESTR.CAVITY>
30.1609

>  <SCORE.RESTR.norm>
0.580017

>  <SCORE.SYSTEM>
0

>  <SCORE.SYSTEM.CONST>
0

>  <SCORE.SYSTEM.DIHEDRAL>
0

>  <SCORE.SYSTEM.SOLV>
0

>  <SCORE.SYSTEM.norm>
0

>  <SCORE.heavy>
52

>  <SCORE.norm>
0.428779

>  <RMSD>
32.733

$$$$
2be0_lig
 OpenBabel11021811423D
libRbt.so/2013.1/901 2013/11/27
 52 56  0  0  0  0  0  0  0  0999 V2000
   25.2615   25.3679    5.7945 C   0  0  2  0  0  0  0  0  0  0  0  0
   25.8997   25.6887    7.0080 O   0  0  0  0  0  0  0  0  0  0  0  0
   23.7772   22.9383    9.7100 C   0  0  2  0  0  0  0  0  0  0  0  0
   23.3719   22.2560   10.9709 N   0  0  0  0  0  0  0  0  0  0  0  0
   24.6603   27.4415    9.0011 C   0  0  2  0  0  0  0  0  0  0  0  0
   24.0548   28.4640    9.8185 O   0  0  0  0  0  0  0  0  0  0  0  0
   24.1033   31.4772    6.4624 C   0  0  1  0  0  0  0  0  0  0  0  0
   29.7896   25.6547   10.5522 C   0  0  0  0  0  0  0  0  0  0  0  0
   25.8672   26.1989    4.5910 C   0  0  2  0  0  0  0  0  0  0  0  0
   27.3184   26.0097    4.5391 N   0  0  0  0  0  0  0  0  0  0  0  0
   25.3533   22.7793    9.5131 C   0  0  0  0  0  0  0  0  0  0  0  0
   25.4590   28.1654    7.9054 C   0  0  2  0  0  0  0  0  0  0  0  0
   26.7746   28.4461    8.5595 O   0  0  0  0  0  0  0  0  0  0  0  0
   24.9672   32.4680    5.5067 C   0  0  2  0  0  0  0  0  0  0  0  0
   26.1041   33.0329    6.3029 N   0  0  0  0  0  0  0  0  0  0  0  0
   29.9895   24.8041   11.6886 C   0  0  0  0  0  0  0  0  0  0  0  0
   30.6952   25.2944   12.8185 N   0  0  0  0  0  0  0  0  0  0  0  0
   25.4700   27.7395    4.7481 C   0  0  1  0  0  0  0  0  0  0  0  0
   26.0282   28.4672    3.6650 O   0  0  0  0  0  0  0  0  0  0  0  0
   25.8417   23.5279    8.1453 C   0  0  2  0  0  0  0  0  0  0  0  0
   27.2581   23.3904    7.9552 N   0  0  0  0  0  0  0  0  0  0  0  0
   24.4808   29.3221    7.6262 C   0  0  2  0  0  0  0  0  0  0  0  0
   24.9932   30.4447    6.9234 O   0  0  0  0  0  0  0  0  0  0  0  0
   24.0186   33.6006    5.0101 C   0  0  1  0  0  0  0  0  0  0  0  0
   22.9584   32.9370    4.2335 O   0  0  0  0  0  0  0  0  0  0  0  0
   31.2291   26.6128   12.8870 C   0  0  0  0  0  0  0  0  0  0  0  0
   23.9180   27.8499    4.7815 C   0  0  2  0  0  0  0  0  0  0  0  0
   23.4872   29.2611    4.9304 O   0  0  0  0  0  0  0  0  0  0  0  0
   25.4615   25.0645    8.2087 C   0  0  2  0  0  0  0  0  0  0  0  0
   23.9206   29.6629    9.0277 C   0  0  1  0  0  0  0  0  0  0  0  0
   23.4000   34.4054    6.2812 C   0  0  2  0  0  0  0  0  0  0  0  0
   24.4541   35.0709    7.0625 O   0  0  0  0  0  0  0  0  0  0  0  0
   31.0618   27.4992   11.7946 C   0  0  0  0  0  0  0  0  0  0  0  0
   23.3337   27.0158    5.9859 C   0  0  2  0  0  0  0  0  0  0  0  0
   23.7916   25.6501    5.7856 O   0  0  0  0  0  0  0  0  0  0  0  0
   23.9100   25.1643    8.4130 C   0  0  2  0  0  0  0  0  0  0  0  0
   23.6842   26.5684    8.4420 O   0  0  0  0  0  0  0  0  0  0  0  0
   22.4330   30.0093    8.9923 C   0  0  0  0  0  0  0  0  0  0  0  0
   22.0679   31.1826    9.6788 O   0  0  0  0  0  0  0  0  0  0  0  0
   22.6017   33.3863    7.2177 C   0  0  1  0  0  0  0  0  0  0  0  0
   23.5463   32.2793    7.6381 O   0  0  0  0  0  0  0  0  0  0  0  0
   30.3332   27.0352   10.5912 C   0  0  0  0  0  0  0  0  0  0  0  0
   21.8676   27.1405    5.9527 C   0  0  0  0  0  0  0  0  0  0  0  0
   21.5210   28.4046    6.2257 O   0  0  0  0  0  0  0  0  0  0  0  0
   23.4751   24.4546    9.7638 C   0  0  1  0  0  0  0  0  0  0  0  0
   22.0975   24.5426    9.9250 O   0  0  0  0  0  0  0  0  0  0  0  0
   27.7855   27.4759    9.0423 C   0  0  0  0  0  0  0  0  0  0  0  0
   22.0459   34.2053    8.4144 C   0  0  0  0  0  0  0  0  0  0  0  0
   20.8939   34.9734    8.0122 N   0  0  0  0  0  0  0  0  0  0  0  0
   28.7682   27.2351    7.8917 C   0  0  0  0  0  0  0  0  0  0  0  0
   29.2940   25.8336    7.9698 N   0  0  0  0  0  0  0  0  0  0  0  0
   28.9862   25.0739    9.2882 C   0  0  0  0  0  0  0  0  0  0  0  0
  1  2  1  1  0  0  0
  1  9  1  0  0  0  0
  1 35  1  0  0  0  0
  3  4  1  1  0  0  0
  3 11  1  0  0  0  0
  3 45  1  0  0  0  0
  5  6  1  0  0  0  0
  5 12  1  0  0  0  0
  5 37  1  6  0  0  0
  6 30  1  0  0  0  0
  7 14  1  0  0  0  0
  7 41  1  0  0  0  0
  7 23  1  1  0  0  0
  8 16  2  0  0  0  0
  8 42  1  0  0  0  0
  9 10  1  1  0  0  0
  9 18  1  0  0  0  0
 11 20  1  0  0  0  0
 12 13  1  1  0  0  0
 12 22  1  0  0  0  0
 13 47  1  0  0  0  0
 14 15  1  1  0  0  0
 14 24  1  0  0  0  0
 16 17  1  0  0  0  0
 17 26  2  0  0  0  0
 18 19  1  6  0  0  0
 18 27  1  0  0  0  0
 20 21  1  1  0  0  0
 20 29  1  0  0  0  0
 22 23  1  1  0  0  0
 22 30  1  0  0  0  0
 24 25  1  1  0  0  0
 24 31  1  0  0  0  0
 26 33  1  0  0  0  0
 27 28  1  1  0  0  0
 27 34  1  0  0  0  0
 29  2  1  6  0  0  0
 29 36  1  0  0  0  0
 30 38  1  6  0  0  0
 31 32  1  1  0  0  0
 31 40  1  0  0  0  0
 33 42  2  0  0  0  0
 34 35  1  0  0  0  0
 34 43  1  6  0  0  0
 36 37  1  1  0  0  0
 36 45  1  0  0  0  0
 38 39  1  0  0  0  0
 40 41  1  0  0  0  0
 40 48  1  1  0  0  0
 43 44  1  0  0  0  0
 45 46  1  6  0  0  0
 47 50  1  0  0  0  0
 48 49  1  0  0  0  0
 50 51  1  0  0  0  0
 51 52  1  0  0  0  0
 52  8  1  0  0  0  0
M  END
>  <CHROM.1>
178.30650826,-137.50924462,-171.03975619,64.31108606,91.75322165,171.30732416
68.61381031,112.03991605,-67.03547124,-33.70136611,76.58409785,-148.72550082
-11.97134946,-69.45060561,-157.89275662,25.19694736,28.10901547,7.83485676
1.00649313,0.52374329,3.05215272

>  <Name>
2be0_lig

>  <RI>
0

>  <Rbt.Current_Directory>
/home/itssahil/PROJECTS/Mol_Feturizer/New_Systems/rnas/2be0

>  <Rbt.Executable>
rbdock ($Id: //depot/dev/client3/rdock/2013.1/src/exe/rbdock.cxx#4 $)

>  <Rbt.Library>
libRbt.so (2013.1, Build901 2013/11/27)

>  <Rbt.Parameter_File>
/export/apps/rDock/src/rDock_2013.1_src/data/scripts/dock_solv.prm

>  <Rbt.Receptor>
prm/blind_docking_80.prm

>  <SCORE>
39.74

>  <SCORE.INTER>
8.56941

>  <SCORE.INTER.CONST>
1

>  <SCORE.INTER.POLAR>
-0.838327

>  <SCORE.INTER.ROT>
15

>  <SCORE.INTER.SOLV>
27.82

>  <SCORE.INTER.VDW>
-14.366

>  <SCORE.INTER.norm>
0.164796

>  <SCORE.INTRA>
1.80781

>  <SCORE.INTRA.DIHEDRAL>
-22.6148

>  <SCORE.INTRA.DIHEDRAL.0>
47.8724

>  <SCORE.INTRA.POLAR>
0

>  <SCORE.INTRA.POLAR.0>
0

>  <SCORE.INTRA.REPUL>
0

>  <SCORE.INTRA.REPUL.0>
0

>  <SCORE.INTRA.SOLV>
4.6703

>  <SCORE.INTRA.SOLV.lig_0>
-115.677

>  <SCORE.INTRA.VDW>
10.78

>  <SCORE.INTRA.VDW.0>
-7.4833

>  <SCORE.INTRA.norm>
0.0347656

>  <SCORE.RESTR>
29.3628

>  <SCORE.RESTR.CAVITY>
29.3628

>  <SCORE.RESTR.norm>
0.564669

>  <SCORE.SYSTEM>
0

>  <SCORE.SYSTEM.CONST>
0

>  <SCORE.SYSTEM.DIHEDRAL>
0

>  <SCORE.SYSTEM.SOLV>
0

>  <SCORE.SYSTEM.norm>
0

>  <SCORE.heavy>
52

>  <SCORE.norm>
0.764231

>  <RMSD>
32.759

$$$$
2be0_lig
 OpenBabel11021811423D
libRbt.so/2013.1/901 2013/11/27
 52 56  0  0  0  0  0  0  0  0999 V2000
   28.4867   23.9940    8.2665 C   0  0  2  0  0  0  0  0  0  0  0  0
   28.1984   25.2401    7.6776 O   0  0  0  0  0  0  0  0  0  0  0  0
   30.5332   27.9294   10.2637 C   0  0  2  0  0  0  0  0  0  0  0  0
   31.3130   29.1239   10.6931 N   0  0  0  0  0  0  0  0  0  0  0  0
   26.6123   28.6761    8.6266 C   0  0  2  0  0  0  0  0  0  0  0  0
   25.5006   29.1811    9.3944 O   0  0  0  0  0  0  0  0  0  0  0  0
   22.9495   27.6468    5.7091 C   0  0  1  0  0  0  0  0  0  0  0  0
   24.3570   35.6882    4.8764 C   0  0  0  0  0  0  0  0  0  0  0  0
   27.1835   23.1043    8.3927 C   0  0  2  0  0  0  0  0  0  0  0  0
   26.5394   22.9805    7.0833 N   0  0  0  0  0  0  0  0  0  0  0  0
   31.2241   27.2900    8.9744 C   0  0  0  0  0  0  0  0  0  0  0  0
   26.2025   28.7578    7.1474 C   0  0  2  0  0  0  0  0  0  0  0  0
   26.5528   30.1607    6.7647 O   0  0  0  0  0  0  0  0  0  0  0  0
   23.7189   26.2162    5.7611 C   0  0  2  0  0  0  0  0  0  0  0  0
   24.9487   26.3008    4.9091 N   0  0  0  0  0  0  0  0  0  0  0  0
   23.6617   36.5623    5.7750 C   0  0  0  0  0  0  0  0  0  0  0  0
   23.8718   37.9639    5.6960 N   0  0  0  0  0  0  0  0  0  0  0  0
   26.2029   23.7393    9.4840 C   0  0  1  0  0  0  0  0  0  0  0  0
   25.0392   22.9322    9.5762 O   0  0  0  0  0  0  0  0  0  0  0  0
   30.3892   25.9823    8.4619 C   0  0  2  0  0  0  0  0  0  0  0  0
   31.0020   25.3962    7.3033 N   0  0  0  0  0  0  0  0  0  0  0  0
   24.7240   28.3497    7.2897 C   0  0  2  0  0  0  0  0  0  0  0  0
   23.8659   28.6432    6.1971 O   0  0  0  0  0  0  0  0  0  0  0  0
   22.7420   25.1279    5.2220 C   0  0  1  0  0  0  0  0  0  0  0  0
   21.5888   25.1219    6.1371 O   0  0  0  0  0  0  0  0  0  0  0  0
   24.7558   38.5636    4.7542 C   0  0  0  0  0  0  0  0  0  0  0  0
   26.9597   23.8220   10.8414 C   0  0  2  0  0  0  0  0  0  0  0  0
   26.0988   24.4091   11.8966 O   0  0  0  0  0  0  0  0  0  0  0  0
   28.8984   26.3960    8.1217 C   0  0  2  0  0  0  0  0  0  0  0  0
   24.2956   29.0156    8.6190 C   0  0  1  0  0  0  0  0  0  0  0  0
   22.2859   25.4927    3.7039 C   0  0  2  0  0  0  0  0  0  0  0  0
   23.4337   25.5009    2.7836 O   0  0  0  0  0  0  0  0  0  0  0  0
   25.4695   37.7503    3.8398 C   0  0  0  0  0  0  0  0  0  0  0  0
   28.2541   24.7112   10.6955 C   0  0  2  0  0  0  0  0  0  0  0  0
   29.0505   24.0893    9.6497 O   0  0  0  0  0  0  0  0  0  0  0  0
   28.2713   27.0260    9.4135 C   0  0  2  0  0  0  0  0  0  0  0  0
   26.9478   27.3437    9.0003 O   0  0  0  0  0  0  0  0  0  0  0  0
   23.3566   28.1313    9.4378 C   0  0  0  0  0  0  0  0  0  0  0  0
   23.7344   26.7793    9.5409 O   0  0  0  0  0  0  0  0  0  0  0  0
   21.5789   26.9254    3.6913 C   0  0  1  0  0  0  0  0  0  0  0  0
   22.5437   27.9423    4.2656 O   0  0  0  0  0  0  0  0  0  0  0  0
   25.2858   36.2810    3.8820 C   0  0  0  0  0  0  0  0  0  0  0  0
   28.9359   24.7342   11.9996 C   0  0  0  0  0  0  0  0  0  0  0  0
   29.4726   23.5321   12.2438 O   0  0  0  0  0  0  0  0  0  0  0  0
   29.0876   28.3095    9.8650 C   0  0  1  0  0  0  0  0  0  0  0  0
   28.5260   28.8496   11.0158 O   0  0  0  0  0  0  0  0  0  0  0  0
   25.8926   31.4192    7.1850 C   0  0  0  0  0  0  0  0  0  0  0  0
   21.1771   27.2237    2.2212 C   0  0  0  0  0  0  0  0  0  0  0  0
   19.9768   26.5072    1.8680 N   0  0  0  0  0  0  0  0  0  0  0  0
   25.1126   31.9474    5.9767 C   0  0  0  0  0  0  0  0  0  0  0  0
   24.9363   33.4302    6.1062 N   0  0  0  0  0  0  0  0  0  0  0  0
   24.0988   34.1067    4.9876 C   0  0  0  0  0  0  0  0  0  0  0  0
  1  2  1  1  0  0  0
  1  9  1  0  0  0  0
  1 35  1  0  0  0  0
  3  4  1  6  0  0  0
  3 11  1  0  0  0  0
  3 45  1  0  0  0  0
  5  6  1  0  0  0  0
  5 12  1  0  0  0  0
  5 37  1  1  0  0  0
  6 30  1  0  0  0  0
  7 14  1  0  0  0  0
  7 41  1  0  0  0  0
  7 23  1  6  0  0  0
  8 16  2  0  0  0  0
  8 42  1  0  0  0  0
  9 10  1  6  0  0  0
  9 18  1  0  0  0  0
 11 20  1  0  0  0  0
 12 13  1  1  0  0  0
 12 22  1  0  0  0  0
 13 47  1  0  0  0  0
 14 15  1  6  0  0  0
 14 24  1  0  0  0  0
 16 17  1  0  0  0  0
 17 26  2  0  0  0  0
 18 19  1  1  0  0  0
 18 27  1  0  0  0  0
 20 21  1  6  0  0  0
 20 29  1  0  0  0  0
 22 23  1  6  0  0  0
 22 30  1  0  0  0  0
 24 25  1  1  0  0  0
 24 31  1  0  0  0  0
 26 33  1  0  0  0  0
 27 28  1  1  0  0  0
 27 34  1  0  0  0  0
 29  2  1  1  0  0  0
 29 36  1  0  0  0  0
 30 38  1  1  0  0  0
 31 32  1  6  0  0  0
 31 40  1  0  0  0  0
 33 42  2  0  0  0  0
 34 35  1  0  0  0  0
 34 43  1  1  0  0  0
 36 37  1  6  0  0  0
 36 45  1  0  0  0  0
 38 39  1  0  0  0  0
 40 41  1  0  0  0  0
 40 48  1  6  0  0  0
 43 44  1  0  0  0  0
 45 46  1  1  0  0  0
 47 50  1  0  0  0  0
 48 49  1  0  0  0  0
 50 51  1  0  0  0  0
 51 52  1  0  0  0  0
 52  8  1  0  0  0  0
M  END
>  <CHROM.1>
144.24510906,-124.48845121,-38.93507237,-70.56849266,-107.27553578,134.00650477
36.10132282,-71.15296159,70.70660544,-99.68954590,78.47199796,-155.32772123
-177.05605148,-160.02975710,-82.01397287,25.87646148,28.03151085,7.41528512
1.08772733,0.69106952,2.98258819

>  <Name>
2be0_lig

>  <RI>
0

>  <Rbt.Current_Directory>
/home/itssahil/PROJECTS/Mol_Feturizer/New_Systems/rnas/2be0

>  <Rbt.Executable>
rbdock ($Id: //depot/dev/client3/rdock/2013.1/src/exe/rbdock.cxx#4 $)

>  <Rbt.Library>
libRbt.so (2013.1, Build901 2013/11/27)

>  <Rbt.Parameter_File>
/export/apps/rDock/src/rDock_2013.1_src/data/scripts/dock_solv.prm

>  <Rbt.Receptor>
prm/blind_docking_80.prm

>  <SCORE>
68.2153

>  <SCORE.INTER>
30.6287

>  <SCORE.INTER.CONST>
1

>  <SCORE.INTER.POLAR>
-0.622658

>  <SCORE.INTER.ROT>
15

>  <SCORE.INTER.SOLV>
36.719

>  <SCORE.INTER.VDW>
-3.34502

>  <SCORE.INTER.norm>
0.589013

>  <SCORE.INTRA>
3.28173

>  <SCORE.INTRA.DIHEDRAL>
-7.67539

>  <SCORE.INTRA.DIHEDRAL.0>
47.8724

>  <SCORE.INTRA.POLAR>
0

>  <SCORE.INTRA.POLAR.0>
0

>  <SCORE.INTRA.REPUL>
0

>  <SCORE.INTRA.REPUL.0>
0

>  <SCORE.INTRA.SOLV>
-0.581186

>  <SCORE.INTRA.SOLV.lig_0>
-115.677

>  <SCORE.INTRA.VDW>
7.41002

>  <SCORE.INTRA.VDW.0>
-7.4833

>  <SCORE.INTRA.norm>
0.0631102

>  <SCORE.RESTR>
34.3049

>  <SCORE.RESTR.CAVITY>
34.3049

>  <SCORE.RESTR.norm>
0.659709

>  <SCORE.SYSTEM>
0

>  <SCORE.SYSTEM.CONST>
0

>  <SCORE.SYSTEM.DIHEDRAL>
0

>  <SCORE.SYSTEM.SOLV>
0

>  <SCORE.SYSTEM.norm>
0

>  <SCORE.heavy>
52

>  <SCORE.norm>
1.31183

>  <RMSD>
32.805

$$$$
2be0_lig
 OpenBabel11021811423D
libRbt.so/2013.1/901 2013/11/27
 52 56  0  0  0  0  0  0  0  0999 V2000
   29.4666   25.1044   10.7078 C   0  0  2  0  0  0  0  0  0  0  0  0
   28.0950   25.3988   10.8300 O   0  0  0  0  0  0  0  0  0  0  0  0
   26.4659   23.8106    7.0624 C   0  0  2  0  0  0  0  0  0  0  0  0
   25.5150   23.1630    6.1158 N   0  0  0  0  0  0  0  0  0  0  0  0
   26.4090   28.1944    8.6290 C   0  0  2  0  0  0  0  0  0  0  0  0
   25.8564   29.2527    9.4384 O   0  0  0  0  0  0  0  0  0  0  0  0
   23.1620   28.3396    5.6578 C   0  0  1  0  0  0  0  0  0  0  0  0
   24.3927   34.4625    4.8812 C   0  0  0  0  0  0  0  0  0  0  0  0
   30.2102   25.2507   12.0975 C   0  0  2  0  0  0  0  0  0  0  0  0
   29.5390   24.4299   13.1076 N   0  0  0  0  0  0  0  0  0  0  0  0
   26.7677   22.8082    8.2676 C   0  0  0  0  0  0  0  0  0  0  0  0
   25.6005   28.1681    7.3221 C   0  0  2  0  0  0  0  0  0  0  0  0
   26.2772   29.1957    6.4716 O   0  0  0  0  0  0  0  0  0  0  0  0
   21.6058   28.0313    5.3049 C   0  0  2  0  0  0  0  0  0  0  0  0
   21.0695   27.0567    6.3090 N   0  0  0  0  0  0  0  0  0  0  0  0
   25.4168   35.3234    4.3665 C   0  0  0  0  0  0  0  0  0  0  0  0
   25.1128   36.6773    4.0673 N   0  0  0  0  0  0  0  0  0  0  0  0
   30.2641   26.7921   12.5185 C   0  0  1  0  0  0  0  0  0  0  0  0
   30.9270   26.9005   13.7687 O   0  0  0  0  0  0  0  0  0  0  0  0
   27.7983   23.4878    9.3381 C   0  0  2  0  0  0  0  0  0  0  0  0
   28.0798   22.5949   10.4266 N   0  0  0  0  0  0  0  0  0  0  0  0
   24.2033   28.4555    7.9036 C   0  0  2  0  0  0  0  0  0  0  0  0
   23.1995   28.8773    6.9920 O   0  0  0  0  0  0  0  0  0  0  0  0
   21.5508   27.4350    3.8660 C   0  0  1  0  0  0  0  0  0  0  0  0
   22.0819   28.4754    2.9699 O   0  0  0  0  0  0  0  0  0  0  0  0
   23.8178   37.2403    4.2524 C   0  0  0  0  0  0  0  0  0  0  0  0
   31.0016   27.5853   11.4009 C   0  0  2  0  0  0  0  0  0  0  0  0
   31.0797   29.0281   11.7344 O   0  0  0  0  0  0  0  0  0  0  0  0
   27.1783   24.8323    9.9014 C   0  0  2  0  0  0  0  0  0  0  0  0
   24.4890   29.4716    9.0349 C   0  0  1  0  0  0  0  0  0  0  0  0
   22.4480   26.0802    3.7905 C   0  0  2  0  0  0  0  0  0  0  0  0
   21.9232   25.0359    4.6840 O   0  0  0  0  0  0  0  0  0  0  0  0
   22.7658   36.4381    4.7592 C   0  0  0  0  0  0  0  0  0  0  0  0
   30.2466   27.4269   10.0253 C   0  0  2  0  0  0  0  0  0  0  0  0
   30.1996   25.9984    9.7572 O   0  0  0  0  0  0  0  0  0  0  0  0
   26.8916   25.7740    8.6807 C   0  0  2  0  0  0  0  0  0  0  0  0
   26.3569   26.9386    9.2980 O   0  0  0  0  0  0  0  0  0  0  0  0
   23.6172   29.2329   10.2667 C   0  0  0  0  0  0  0  0  0  0  0  0
   23.4833   27.8888   10.6626 O   0  0  0  0  0  0  0  0  0  0  0  0
   23.9570   26.4194    4.1912 C   0  0  1  0  0  0  0  0  0  0  0  0
   23.9595   27.0386    5.5737 O   0  0  0  0  0  0  0  0  0  0  0  0
   23.0317   35.0180    5.0862 C   0  0  0  0  0  0  0  0  0  0  0  0
   30.9994   28.1777    9.0076 C   0  0  0  0  0  0  0  0  0  0  0  0
   31.1083   29.4572    9.3867 O   0  0  0  0  0  0  0  0  0  0  0  0
   25.8652   25.0964    7.6783 C   0  0  1  0  0  0  0  0  0  0  0  0
   25.6297   25.9381    6.5978 O   0  0  0  0  0  0  0  0  0  0  0  0
   25.7218   30.4672    5.9510 C   0  0  0  0  0  0  0  0  0  0  0  0
   24.7599   25.0925    4.1124 C   0  0  0  0  0  0  0  0  0  0  0  0
   25.7678   25.1696    3.0844 N   0  0  0  0  0  0  0  0  0  0  0  0
   25.6655   31.4512    7.1240 C   0  0  0  0  0  0  0  0  0  0  0  0
   24.8468   32.6450    6.7350 N   0  0  0  0  0  0  0  0  0  0  0  0
   24.7655   32.9355    5.2121 C   0  0  0  0  0  0  0  0  0  0  0  0
  1  2  1  1  0  0  0
  1  9  1  0  0  0  0
  1 35  1  0  0  0  0
  3  4  1  6  0  0  0
  3 11  1  0  0  0  0
  3 45  1  0  0  0  0
  5  6  1  0  0  0  0
  5 12  1  0  0  0  0
  5 37  1  1  0  0  0
  6 30  1  0  0  0  0
  7 14  1  0  0  0  0
  7 41  1  0  0  0  0
  7 23  1  1  0  0  0
  8 16  2  0  0  0  0
  8 42  1  0  0  0  0
  9 10  1  1  0  0  0
  9 18  1  0  0  0  0
 11 20  1  0  0  0  0
 12 13  1  6  0  0  0
 12 22  1  0  0  0  0
 13 47  1  0  0  0  0
 14 15  1  1  0  0  0
 14 24  1  0  0  0  0
 16 17  1  0  0  0  0
 17 26  2  0  0  0  0
 18 19  1  1  0  0  0
 18 27  1  0  0  0  0
 20 21  1  1  0  0  0
 20 29  1  0  0  0  0
 22 23  1  6  0  0  0
 22 30  1  0  0  0  0
 24 25  1  6  0  0  0
 24 31  1  0  0  0  0
 26 33  1  0  0  0  0
 27 28  1  1  0  0  0
 27 34  1  0  0  0  0
 29  2  1  1  0  0  0
 29 36  1  0  0  0  0
 30 38  1  1  0  0  0
 31 32  1  1  0  0  0
 31 40  1  0  0  0  0
 33 42  2  0  0  0  0
 34 35  1  0  0  0  0
 34 43  1  6  0  0  0
 36 37  1  1  0  0  0
 36 45  1  0  0  0  0
 38 39  1  0  0  0  0
 40 41  1  0  0  0  0
 40 48  1  1  0  0  0
 43 44  1  0  0  0  0
 45 46  1  6  0  0  0
 47 50  1  0  0  0  0
 48 49  1  0  0  0  0
 50 51  1  0  0  0  0
 51 52  1  0  0  0  0
 52  8  1  0  0  0  0
M  END
>  <CHROM.1>
-154.75750346,-178.08516774,137.69696617,-116.15116176,75.00211187,35.83276672
25.89063623,-72.54511040,-57.34740795,157.27075034,115.79755950,-167.89740263
-24.65734538,-157.76902796,107.24247113,26.00085882,28.06327993,7.66416220
-0.75870231,-0.74683794,-0.10016738

>  <Name>
2be0_lig

>  <RI>
0

>  <Rbt.Current_Directory>
/home/itssahil/PROJECTS/Mol_Feturizer/New_Systems/rnas/2be0

>  <Rbt.Executable>
rbdock ($Id: //depot/dev/client3/rdock/2013.1/src/exe/rbdock.cxx#4 $)

>  <Rbt.Library>
libRbt.so (2013.1, Build901 2013/11/27)

>  <Rbt.Parameter_File>
/export/apps/rDock/src/rDock_2013.1_src/data/scripts/dock_solv.prm

>  <Rbt.Receptor>
prm/blind_docking_80.prm

>  <SCORE>
74.9822

>  <SCORE.INTER>
28.1518

>  <SCORE.INTER.CONST>
1

>  <SCORE.INTER.POLAR>
-0.916515

>  <SCORE.INTER.ROT>
15

>  <SCORE.INTER.SOLV>
32.2478

>  <SCORE.INTER.VDW>
-2.52637

>  <SCORE.INTER.norm>
0.54138

>  <SCORE.INTRA>
16.4741

>  <SCORE.INTRA.DIHEDRAL>
-14.245

>  <SCORE.INTRA.DIHEDRAL.0>
47.8724

>  <SCORE.INTRA.POLAR>
0

>  <SCORE.INTRA.POLAR.0>
0

>  <SCORE.INTRA.REPUL>
0.699219

>  <SCORE.INTRA.REPUL.0>
0

>  <SCORE.INTRA.SOLV>
3.86789

>  <SCORE.INTRA.SOLV.lig_0>
-115.677

>  <SCORE.INTRA.VDW>
18.1666

>  <SCORE.INTRA.VDW.0>
-7.4833

>  <SCORE.INTRA.norm>
0.31681

>  <SCORE.RESTR>
30.3564

>  <SCORE.RESTR.CAVITY>
30.3564

>  <SCORE.RESTR.norm>
0.583776

>  <SCORE.SYSTEM>
0

>  <SCORE.SYSTEM.CONST>
0

>  <SCORE.SYSTEM.DIHEDRAL>
0

>  <SCORE.SYSTEM.SOLV>
0

>  <SCORE.SYSTEM.norm>
0

>  <SCORE.heavy>
52

>  <SCORE.norm>
1.44197

>  <RMSD>
32.809

$$$$
2be0_lig
 OpenBabel11021811423D
libRbt.so/2013.1/901 2013/11/27
 52 56  0  0  0  0  0  0  0  0999 V2000
   26.2645   23.7767   10.8724 C   0  0  2  0  0  0  0  0  0  0  0  0
   26.5558   24.7975    9.9473 O   0  0  0  0  0  0  0  0  0  0  0  0
   30.5849   26.5229   10.3482 C   0  0  2  0  0  0  0  0  0  0  0  0
   32.0230   26.7910   10.0662 N   0  0  0  0  0  0  0  0  0  0  0  0
   26.8327   28.3045    8.2201 C   0  0  2  0  0  0  0  0  0  0  0  0
   25.8277   28.6363    9.2001 O   0  0  0  0  0  0  0  0  0  0  0  0
   23.5487   27.5190    5.0528 C   0  0  1  0  0  0  0  0  0  0  0  0
   23.3306   34.5042    6.1570 C   0  0  0  0  0  0  0  0  0  0  0  0
   25.3951   22.6325   10.2085 C   0  0  2  0  0  0  0  0  0  0  0  0
   26.0652   22.1364    9.0046 N   0  0  0  0  0  0  0  0  0  0  0  0
   30.3797   24.9559   10.5732 C   0  0  0  0  0  0  0  0  0  0  0  0
   26.1876   28.5036    6.8392 C   0  0  2  0  0  0  0  0  0  0  0  0
   26.3815   29.9621    6.5699 O   0  0  0  0  0  0  0  0  0  0  0  0
   22.1556   26.7007    5.2290 C   0  0  2  0  0  0  0  0  0  0  0  0
   22.2598   25.8309    6.4448 N   0  0  0  0  0  0  0  0  0  0  0  0
   22.6598   34.2229    4.9219 C   0  0  0  0  0  0  0  0  0  0  0  0
   22.9163   35.0300    3.7826 N   0  0  0  0  0  0  0  0  0  0  0  0
   23.9293   23.1865    9.8920 C   0  0  1  0  0  0  0  0  0  0  0  0
   23.1694   22.1492    9.2913 O   0  0  0  0  0  0  0  0  0  0  0  0
   28.8093   24.6173   10.8719 C   0  0  2  0  0  0  0  0  0  0  0  0
   28.6116   23.2103   11.0785 N   0  0  0  0  0  0  0  0  0  0  0  0
   24.7800   27.9643    7.1568 C   0  0  2  0  0  0  0  0  0  0  0  0
   23.7414   28.2975    6.2475 O   0  0  0  0  0  0  0  0  0  0  0  0
   21.9402   25.8414    3.9467 C   0  0  1  0  0  0  0  0  0  0  0  0
   21.8365   26.7926    2.8278 O   0  0  0  0  0  0  0  0  0  0  0  0
   23.8217   36.1291    3.7991 C   0  0  0  0  0  0  0  0  0  0  0  0
   23.2880   23.6787   11.2220 C   0  0  2  0  0  0  0  0  0  0  0  0
   21.9229   24.2098   10.9908 O   0  0  0  0  0  0  0  0  0  0  0  0
   27.9142   25.1067    9.6600 C   0  0  2  0  0  0  0  0  0  0  0  0
   24.5275   28.4538    8.6027 C   0  0  1  0  0  0  0  0  0  0  0  0
   23.1939   24.8257    3.7405 C   0  0  2  0  0  0  0  0  0  0  0  0
   23.3040   23.8722    4.8554 O   0  0  0  0  0  0  0  0  0  0  0  0
   24.5147   36.4543    4.9911 C   0  0  0  0  0  0  0  0  0  0  0  0
   24.1681   24.8170   11.8679 C   0  0  2  0  0  0  0  0  0  0  0  0
   25.4877   24.2386   12.0654 O   0  0  0  0  0  0  0  0  0  0  0  0
   28.1604   26.6443    9.4752 C   0  0  2  0  0  0  0  0  0  0  0  0
   27.3083   26.9725    8.3845 O   0  0  0  0  0  0  0  0  0  0  0  0
   23.7900   27.4170    9.4485 C   0  0  0  0  0  0  0  0  0  0  0  0
   24.0488   26.0728    9.1206 O   0  0  0  0  0  0  0  0  0  0  0  0
   24.5461   25.6684    3.6208 C   0  0  1  0  0  0  0  0  0  0  0  0
   24.6917   26.5223    4.8635 O   0  0  0  0  0  0  0  0  0  0  0  0
   24.2812   35.6429    6.2082 C   0  0  0  0  0  0  0  0  0  0  0  0
   23.5256   25.2250   13.1276 C   0  0  0  0  0  0  0  0  0  0  0  0
   23.9303   24.4183   14.1166 O   0  0  0  0  0  0  0  0  0  0  0  0
   29.6876   26.9338    9.1568 C   0  0  1  0  0  0  0  0  0  0  0  0
   29.8912   28.3003    9.0061 O   0  0  0  0  0  0  0  0  0  0  0  0
   26.0473   31.1099    7.4457 C   0  0  0  0  0  0  0  0  0  0  0  0
   25.7042   24.6501    3.4375 C   0  0  0  0  0  0  0  0  0  0  0  0
   26.5902   25.0740    2.3820 N   0  0  0  0  0  0  0  0  0  0  0  0
   24.7029   31.6683    6.9678 C   0  0  0  0  0  0  0  0  0  0  0  0
   24.2550   32.7548    7.8982 N   0  0  0  0  0  0  0  0  0  0  0  0
   23.0221   33.5736    7.4295 C   0  0  0  0  0  0  0  0  0  0  0  0
  1  2  1  6  0  0  0
  1  9  1  0  0  0  0
  1 35  1  0  0  0  0
  3  4  1  6  0  0  0
  3 11  1  0  0  0  0
  3 45  1  0  0  0  0
  5  6  1  0  0  0  0
  5 12  1  0  0  0  0
  5 37  1  1  0  0  0
  6 30  1  0  0  0  0
  7 14  1  0  0  0  0
  7 41  1  0  0  0  0
  7 23  1  1  0  0  0
  8 16  2  0  0  0  0
  8 42  1  0  0  0  0
  9 10  1  6  0  0  0
  9 18  1  0  0  0  0
 11 20  1  0  0  0  0
 12 13  1  1  0  0  0
 12 22  1  0  0  0  0
 13 47  1  0  0  0  0
 14 15  1  1  0  0  0
 14 24  1  0  0  0  0
 16 17  1  0  0  0  0
 17 26  2  0  0  0  0
 18 19  1  1  0  0  0
 18 27  1  0  0  0  0
 20 21  1  6  0  0  0
 20 29  1  0  0  0  0
 22 23  1  6  0  0  0
 22 30  1  0  0  0  0
 24 25  1  6  0  0  0
 24 31  1  0  0  0  0
 26 33  1  0  0  0  0
 27 28  1  6  0  0  0
 27 34  1  0  0  0  0
 29  2  1  1  0  0  0
 29 36  1  0  0  0  0
 30 38  1  1  0  0  0
 31 32  1  1  0  0  0
 31 40  1  0  0  0  0
 33 42  2  0  0  0  0
 34 35  1  0  0  0  0
 34 43  1  1  0  0  0
 36 37  1  6  0  0  0
 36 45  1  0  0  0  0
 38 39  1  0  0  0  0
 40 41  1  0  0  0  0
 40 48  1  1  0  0  0
 43 44  1  0  0  0  0
 45 46  1  1  0  0  0
 47 50  1  0  0  0  0
 48 49  1  0  0  0  0
 50 51  1  0  0  0  0
 51 52  1  0  0  0  0
 52  8  1  0  0  0  0
M  END
>  <CHROM.1>
-121.09476905,-72.82885325,110.57034140,-50.95455494,-98.78356556,83.46048984
-22.47655129,-85.08399176,85.78180976,155.53001902,134.44563678,174.87072630
170.76823466,-68.89599611,114.93578872,25.23060224,27.29714996,7.88996881
-1.24018644,-0.81614704,-0.29463646

>  <Name>
2be0_lig

>  <RI>
0

>  <Rbt.Current_Directory>
/home/itssahil/PROJECTS/Mol_Feturizer/New_Systems/rnas/2be0

>  <Rbt.Executable>
rbdock ($Id: //depot/dev/client3/rdock/2013.1/src/exe/rbdock.cxx#4 $)

>  <Rbt.Library>
libRbt.so (2013.1, Build901 2013/11/27)

>  <Rbt.Parameter_File>
/export/apps/rDock/src/rDock_2013.1_src/data/scripts/dock_solv.prm

>  <Rbt.Receptor>
prm/blind_docking_80.prm

>  <SCORE>
34.271

>  <SCORE.INTER>
-2.66892

>  <SCORE.INTER.CONST>
1

>  <SCORE.INTER.POLAR>
-1.64235

>  <SCORE.INTER.ROT>
15

>  <SCORE.INTER.SOLV>
33.8875

>  <SCORE.INTER.VDW>
-21.2006

>  <SCORE.INTER.norm>
-0.0513255

>  <SCORE.INTRA>
3.6408

>  <SCORE.INTRA.DIHEDRAL>
-7.70807

>  <SCORE.INTRA.DIHEDRAL.0>
47.8724

>  <SCORE.INTRA.POLAR>
0

>  <SCORE.INTRA.POLAR.0>
0

>  <SCORE.INTRA.REPUL>
0.015383

>  <SCORE.INTRA.REPUL.0>
0

>  <SCORE.INTRA.SOLV>
2.29536

>  <SCORE.INTRA.SOLV.lig_0>
-115.677

>  <SCORE.INTRA.VDW>
6.27024

>  <SCORE.INTRA.VDW.0>
-7.4833

>  <SCORE.INTRA.norm>
0.0700154

>  <SCORE.RESTR>
33.2991

>  <SCORE.RESTR.CAVITY>
33.2991

>  <SCORE.RESTR.norm>
0.640368

>  <SCORE.SYSTEM>
0

>  <SCORE.SYSTEM.CONST>
0

>  <SCORE.SYSTEM.DIHEDRAL>
0

>  <SCORE.SYSTEM.SOLV>
0

>  <SCORE.SYSTEM.norm>
0

>  <SCORE.heavy>
52

>  <SCORE.norm>
0.659058

>  <RMSD>
32.841

$$$$
2be0_lig
 OpenBabel11021811423D
libRbt.so/2013.1/901 2013/11/27
 52 56  0  0  0  0  0  0  0  0999 V2000
   24.4228   25.4616    8.5147 C   0  0  2  0  0  0  0  0  0  0  0  0
   23.3137   24.7848    7.9718 O   0  0  0  0  0  0  0  0  0  0  0  0
   22.3160   26.0394    3.8728 C   0  0  2  0  0  0  0  0  0  0  0  0
   21.5359   26.6070    2.7376 N   0  0  0  0  0  0  0  0  0  0  0  0
   24.6609   28.4441    7.0217 C   0  0  2  0  0  0  0  0  0  0  0  0
   25.7299   28.0090    6.1566 O   0  0  0  0  0  0  0  0  0  0  0  0
   28.6686   27.1896    9.1914 C   0  0  1  0  0  0  0  0  0  0  0  0
   24.2155   34.4548    5.4859 C   0  0  0  0  0  0  0  0  0  0  0  0
   25.4801   24.4447    9.1093 C   0  0  2  0  0  0  0  0  0  0  0  0
   25.8547   23.4653    8.0870 N   0  0  0  0  0  0  0  0  0  0  0  0
   21.4636   24.8806    4.5649 C   0  0  0  0  0  0  0  0  0  0  0  0
   25.3055   28.8299    8.3627 C   0  0  2  0  0  0  0  0  0  0  0  0
   25.7336   30.2472    8.1498 O   0  0  0  0  0  0  0  0  0  0  0  0
   28.3195   25.6028    9.2282 C   0  0  2  0  0  0  0  0  0  0  0  0
   27.6740   25.2833   10.5424 N   0  0  0  0  0  0  0  0  0  0  0  0
   25.1789   34.5444    4.4283 C   0  0  0  0  0  0  0  0  0  0  0  0
   25.7438   35.8036    4.0963 N   0  0  0  0  0  0  0  0  0  0  0  0
   24.8784   23.7460   10.4152 C   0  0  1  0  0  0  0  0  0  0  0  0
   25.8374   22.8339   10.9276 O   0  0  0  0  0  0  0  0  0  0  0  0
   22.2801   24.2398    5.8270 C   0  0  2  0  0  0  0  0  0  0  0  0
   21.5246   23.1941    6.4572 N   0  0  0  0  0  0  0  0  0  0  0  0
   26.3647   27.7145    8.4444 C   0  0  2  0  0  0  0  0  0  0  0  0
   27.4312   27.9038    9.3627 O   0  0  0  0  0  0  0  0  0  0  0  0
   29.6537   24.8155    9.0574 C   0  0  1  0  0  0  0  0  0  0  0  0
   30.1859   25.1914    7.7372 O   0  0  0  0  0  0  0  0  0  0  0  0
   25.3978   37.0102    4.7691 C   0  0  0  0  0  0  0  0  0  0  0  0
   24.5213   24.8530   11.4492 C   0  0  2  0  0  0  0  0  0  0  0  0
   23.9524   24.2639   12.6855 O   0  0  0  0  0  0  0  0  0  0  0  0
   22.6059   25.3716    6.8864 C   0  0  2  0  0  0  0  0  0  0  0  0
   26.8243   27.5494    6.9762 C   0  0  1  0  0  0  0  0  0  0  0  0
   30.6911   25.2145   10.2449 C   0  0  2  0  0  0  0  0  0  0  0  0
   30.1655   24.8420   11.5675 O   0  0  0  0  0  0  0  0  0  0  0  0
   24.4521   36.9836    5.8236 C   0  0  0  0  0  0  0  0  0  0  0  0
   23.4679   25.8557   10.8388 C   0  0  2  0  0  0  0  0  0  0  0  0
   24.0797   26.3939    9.6343 O   0  0  0  0  0  0  0  0  0  0  0  0
   23.4319   26.4862    6.1554 C   0  0  2  0  0  0  0  0  0  0  0  0
   23.6756   27.4303    7.1911 O   0  0  0  0  0  0  0  0  0  0  0  0
   27.0764   26.0890    6.6050 C   0  0  0  0  0  0  0  0  0  0  0  0
   27.1515   25.8190    5.2257 O   0  0  0  0  0  0  0  0  0  0  0  0
   30.9680   26.7875   10.2021 C   0  0  1  0  0  0  0  0  0  0  0  0
   29.6432   27.5120   10.3237 O   0  0  0  0  0  0  0  0  0  0  0  0
   23.8329   35.6939    6.2079 C   0  0  0  0  0  0  0  0  0  0  0  0
   23.1871   26.8873   11.8503 C   0  0  0  0  0  0  0  0  0  0  0  0
   22.4503   27.8613   11.3016 O   0  0  0  0  0  0  0  0  0  0  0  0
   22.5985   27.1068    4.9563 C   0  0  1  0  0  0  0  0  0  0  0  0
   23.3474   28.0849    4.3128 O   0  0  0  0  0  0  0  0  0  0  0  0
   25.0314   31.3159    7.4007 C   0  0  0  0  0  0  0  0  0  0  0  0
   31.9515   27.1099   11.3598 C   0  0  0  0  0  0  0  0  0  0  0  0
   31.2874   27.0011   12.6349 N   0  0  0  0  0  0  0  0  0  0  0  0
   25.2854   31.0667    5.9105 C   0  0  0  0  0  0  0  0  0  0  0  0
   24.2980   31.8491    5.0985 N   0  0  0  0  0  0  0  0  0  0  0  0
   23.5939   33.0168    5.8409 C   0  0  0  0  0  0  0  0  0  0  0  0
  1  2  1  1  0  0  0
  1  9  1  0  0  0  0
  1 35  1  0  0  0  0
  3  4  1  6  0  0  0
  3 11  1  0  0  0  0
  3 45  1  0  0  0  0
  5  6  1  0  0  0  0
  5 12  1  0  0  0  0
  5 37  1  1  0  0  0
  6 30  1  0  0  0  0
  7 14  1  0  0  0  0
  7 41  1  0  0  0  0
  7 23  1  1  0  0  0
  8 16  2  0  0  0  0
  8 42  1  0  0  0  0
  9 10  1  6  0  0  0
  9 18  1  0  0  0  0
 11 20  1  0  0  0  0
 12 13  1  6  0  0  0
 12 22  1  0  0  0  0
 13 47  1  0  0  0  0
 14 15  1  1  0  0  0
 14 24  1  0  0  0  0
 16 17  1  0  0  0  0
 17 26  2  0  0  0  0
 18 19  1  1  0  0  0
 18 27  1  0  0  0  0
 20 21  1  1  0  0  0
 20 29  1  0  0  0  0
 22 23  1  1  0  0  0
 22 30  1  0  0  0  0
 24 25  1  6  0  0  0
 24 31  1  0  0  0  0
 26 33  1  0  0  0  0
 27 28  1  1  0  0  0
 27 34  1  0  0  0  0
 29  2  1  1  0  0  0
 29 36  1  0  0  0  0
 30 38  1  6  0  0  0
 31 32  1  1  0  0  0
 31 40  1  0  0  0  0
 33 42  2  0  0  0  0
 34 35  1  0  0  0  0
 34 43  1  1  0  0  0
 36 37  1  1  0  0  0
 36 45  1  0  0  0  0
 38 39  1  0  0  0  0
 40 41  1  0  0  0  0
 40 48  1  1  0  0  0
 43 44  1  0  0  0  0
 45 46  1  6  0  0  0
 47 50  1  0  0  0  0
 48 49  1  0  0  0  0
 50 51  1  0  0  0  0
 51 52  1  0  0  0  0
 52  8  1  0  0  0  0
M  END
>  <CHROM.1>
-150.37549816,-29.78739534,-58.90482364,37.74398438,-78.34247232,-158.40389927
137.29030380,47.73214533,171.02342031,165.18732012,-71.67146797,163.56168621
18.47235171,101.30366018,8.55840491,25.57172395,27.60934740,7.91352391,1.21630134
0.54908100,2.79091131

>  <Name>
2be0_lig

>  <RI>
0

>  <Rbt.Current_Directory>
/home/itssahil/PROJECTS/Mol_Feturizer/New_Systems/rnas/2be0

>  <Rbt.Executable>
rbdock ($Id: //depot/dev/client3/rdock/2013.1/src/exe/rbdock.cxx#4 $)

>  <Rbt.Library>
libRbt.so (2013.1, Build901 2013/11/27)

>  <Rbt.Parameter_File>
/export/apps/rDock/src/rDock_2013.1_src/data/scripts/dock_solv.prm

>  <Rbt.Receptor>
prm/blind_docking_80.prm

>  <SCORE>
38.6391

>  <SCORE.INTER>
1.44428

>  <SCORE.INTER.CONST>
1

>  <SCORE.INTER.POLAR>
-0.379163

>  <SCORE.INTER.ROT>
15

>  <SCORE.INTER.SOLV>
28.1607

>  <SCORE.INTER.VDW>
-20.7602

>  <SCORE.INTER.norm>
0.0277746

>  <SCORE.INTRA>
2.28584

>  <SCORE.INTRA.DIHEDRAL>
-23.002

>  <SCORE.INTRA.DIHEDRAL.0>
47.8724

>  <SCORE.INTRA.POLAR>
0

>  <SCORE.INTRA.POLAR.0>
0

>  <SCORE.INTRA.REPUL>
0

>  <SCORE.INTRA.REPUL.0>
0

>  <SCORE.INTRA.SOLV>
6.84998

>  <SCORE.INTRA.SOLV.lig_0>
-115.677

>  <SCORE.INTRA.VDW>
10.3618

>  <SCORE.INTRA.VDW.0>
-7.4833

>  <SCORE.INTRA.norm>
0.0439585

>  <SCORE.RESTR>
34.909

>  <SCORE.RESTR.CAVITY>
34.909

>  <SCORE.RESTR.norm>
0.671326

>  <SCORE.SYSTEM>
0

>  <SCORE.SYSTEM.CONST>
0

>  <SCORE.SYSTEM.DIHEDRAL>
0

>  <SCORE.SYSTEM.SOLV>
0

>  <SCORE.SYSTEM.norm>
0

>  <SCORE.heavy>
52

>  <SCORE.norm>
0.743059

>  <RMSD>
32.885

$$$$
2be0_lig
 OpenBabel11021811423D
libRbt.so/2013.1/901 2013/11/27
 52 56  0  0  0  0  0  0  0  0999 V2000
   24.4889   24.2604   11.2958 C   0  0  2  0  0  0  0  0  0  0  0  0
   24.2500   25.3254   10.4062 O   0  0  0  0  0  0  0  0  0  0  0  0
   21.0132   28.2877   10.7522 C   0  0  2  0  0  0  0  0  0  0  0  0
   20.2238   29.4380   11.2746 N   0  0  0  0  0  0  0  0  0  0  0  0
   24.8256   28.1294    7.9344 C   0  0  2  0  0  0  0  0  0  0  0  0
   24.5790   26.9737    7.1074 O   0  0  0  0  0  0  0  0  0  0  0  0
   29.3593   26.9293    7.9514 C   0  0  1  0  0  0  0  0  0  0  0  0
   24.0005   33.8438    5.4013 C   0  0  0  0  0  0  0  0  0  0  0  0
   25.9644   23.7073   11.1446 C   0  0  2  0  0  0  0  0  0  0  0  0
   26.9228   24.8039   11.2981 N   0  0  0  0  0  0  0  0  0  0  0  0
   21.2316   27.2278   11.9258 C   0  0  0  0  0  0  0  0  0  0  0  0
   26.2967   28.5207    7.7215 C   0  0  2  0  0  0  0  0  0  0  0  0
   26.2559   29.3823    6.4995 O   0  0  0  0  0  0  0  0  0  0  0  0
   29.4368   25.4128    8.5308 C   0  0  2  0  0  0  0  0  0  0  0  0
   28.1692   25.1168    9.2732 N   0  0  0  0  0  0  0  0  0  0  0  0
   25.3998   33.9862    5.1248 C   0  0  0  0  0  0  0  0  0  0  0  0
   25.8703   35.1482    4.4587 N   0  0  0  0  0  0  0  0  0  0  0  0
   26.1200   22.9697    9.7348 C   0  0  1  0  0  0  0  0  0  0  0  0
   27.4499   22.4886    9.6161 O   0  0  0  0  0  0  0  0  0  0  0  0
   22.1076   25.9540   11.3965 C   0  0  2  0  0  0  0  0  0  0  0  0
   22.3093   24.9917   12.4427 N   0  0  0  0  0  0  0  0  0  0  0  0
   26.9070   27.1086    7.6424 C   0  0  2  0  0  0  0  0  0  0  0  0
   28.2100   26.9992    7.0885 O   0  0  0  0  0  0  0  0  0  0  0  0
   30.6706   25.3256    9.4791 C   0  0  1  0  0  0  0  0  0  0  0  0
   31.8495   25.6157    8.6465 O   0  0  0  0  0  0  0  0  0  0  0  0
   25.0104   36.2029    4.0389 C   0  0  0  0  0  0  0  0  0  0  0  0
   25.0779   21.8161    9.6617 C   0  0  2  0  0  0  0  0  0  0  0  0
   25.1715   21.0944    8.3696 O   0  0  0  0  0  0  0  0  0  0  0  0
   23.5108   26.4539   10.8574 C   0  0  2  0  0  0  0  0  0  0  0  0
   25.8324   26.2968    6.8806 C   0  0  1  0  0  0  0  0  0  0  0  0
   30.5225   26.4065   10.6855 C   0  0  2  0  0  0  0  0  0  0  0  0
   29.3458   26.1230   11.5218 O   0  0  0  0  0  0  0  0  0  0  0  0
   23.6180   36.1184    4.2857 C   0  0  0  0  0  0  0  0  0  0  0  0
   23.6154   22.3864    9.8146 C   0  0  2  0  0  0  0  0  0  0  0  0
   23.5890   23.0819   11.0915 O   0  0  0  0  0  0  0  0  0  0  0  0
   23.2405   27.4970    9.7182 C   0  0  2  0  0  0  0  0  0  0  0  0
   24.5519   27.8626    9.3061 O   0  0  0  0  0  0  0  0  0  0  0  0
   25.6779   24.8782    7.4264 C   0  0  0  0  0  0  0  0  0  0  0  0
   24.9863   23.9801    6.5919 O   0  0  0  0  0  0  0  0  0  0  0  0
   30.4008   27.8760   10.0702 C   0  0  1  0  0  0  0  0  0  0  0  0
   29.2206   27.9032    9.1210 O   0  0  0  0  0  0  0  0  0  0  0  0
   23.0767   34.9253    4.9771 C   0  0  0  0  0  0  0  0  0  0  0  0
   22.6798   21.2517    9.7595 C   0  0  0  0  0  0  0  0  0  0  0  0
   22.7844   20.5321   10.8837 O   0  0  0  0  0  0  0  0  0  0  0  0
   22.4153   28.7332   10.2735 C   0  0  1  0  0  0  0  0  0  0  0  0
   22.1752   29.6428    9.2506 O   0  0  0  0  0  0  0  0  0  0  0  0
   25.3986   29.2340    5.2997 C   0  0  0  0  0  0  0  0  0  0  0  0
   30.2514   28.8596   11.2626 C   0  0  0  0  0  0  0  0  0  0  0  0
   31.2901   28.6367   12.2374 N   0  0  0  0  0  0  0  0  0  0  0  0
   24.1581   30.1061    5.5185 C   0  0  0  0  0  0  0  0  0  0  0  0
   24.5608   31.3892    6.1806 N   0  0  0  0  0  0  0  0  0  0  0  0
   23.4965   32.5192    6.1575 C   0  0  0  0  0  0  0  0  0  0  0  0
  1  2  1  6  0  0  0
  1  9  1  0  0  0  0
  1 35  1  0  0  0  0
  3  4  1  1  0  0  0
  3 11  1  0  0  0  0
  3 45  1  0  0  0  0
  5  6  1  0  0  0  0
  5 12  1  0  0  0  0
  5 37  1  1  0  0  0
  6 30  1  0  0  0  0
  7 14  1  0  0  0  0
  7 41  1  0  0  0  0
  7 23  1  6  0  0  0
  8 16  2  0  0  0  0
  8 42  1  0  0  0  0
  9 10  1  6  0  0  0
  9 18  1  0  0  0  0
 11 20  1  0  0  0  0
 12 13  1  6  0  0  0
 12 22  1  0  0  0  0
 13 47  1  0  0  0  0
 14 15  1  1  0  0  0
 14 24  1  0  0  0  0
 16 17  1  0  0  0  0
 17 26  2  0  0  0  0
 18 19  1  1  0  0  0
 18 27  1  0  0  0  0
 20 21  1  1  0  0  0
 20 29  1  0  0  0  0
 22 23  1  6  0  0  0
 22 30  1  0  0  0  0
 24 25  1  6  0  0  0
 24 31  1  0  0  0  0
 26 33  1  0  0  0  0
 27 28  1  6  0  0  0
 27 34  1  0  0  0  0
 29  2  1  6  0  0  0
 29 36  1  0  0  0  0
 30 38  1  1  0  0  0
 31 32  1  6  0  0  0
 31 40  1  0  0  0  0
 33 42  2  0  0  0  0
 34 35  1  0  0  0  0
 34 43  1  1  0  0  0
 36 37  1  1  0  0  0
 36 45  1  0  0  0  0
 38 39  1  0  0  0  0
 40 41  1  0  0  0  0
 40 48  1  1  0  0  0
 43 44  1  0  0  0  0
 45 46  1  6  0  0  0
 47 50  1  0  0  0  0
 48 49  1  0  0  0  0
 50 51  1  0  0  0  0
 51 52  1  0  0  0  0
 52  8  1  0  0  0  0
M  END
>  <CHROM.1>
-139.11392688,-61.42119195,77.91359247,-36.72394625,93.82537368,97.60137835
-56.36824426,79.32878714,71.29806624,143.77030876,51.17278615,39.30216290
165.53987620,-119.83194913,-14.48337534,25.58924158,27.20655198,8.77636806
1.46516012,-0.05768002,2.69869905

>  <Name>
2be0_lig

>  <RI>
0

>  <Rbt.Current_Directory>
/home/itssahil/PROJECTS/Mol_Feturizer/New_Systems/rnas/2be0

>  <Rbt.Executable>
rbdock ($Id: //depot/dev/client3/rdock/2013.1/src/exe/rbdock.cxx#4 $)

>  <Rbt.Library>
libRbt.so (2013.1, Build901 2013/11/27)

>  <Rbt.Parameter_File>
/export/apps/rDock/src/rDock_2013.1_src/data/scripts/dock_solv.prm

>  <Rbt.Receptor>
prm/blind_docking_80.prm

>  <SCORE>
35.0311

>  <SCORE.INTER>
-2.11336

>  <SCORE.INTER.CONST>
1

>  <SCORE.INTER.POLAR>
-0.5769

>  <SCORE.INTER.ROT>
15

>  <SCORE.INTER.SOLV>
27.9006

>  <SCORE.INTER.VDW>
-22.3861

>  <SCORE.INTER.norm>
-0.0406415

>  <SCORE.INTRA>
3.15778

>  <SCORE.INTRA.DIHEDRAL>
-18.6478

>  <SCORE.INTRA.DIHEDRAL.0>
47.8724

>  <SCORE.INTRA.POLAR>
0

>  <SCORE.INTRA.POLAR.0>
0

>  <SCORE.INTRA.REPUL>
0.703544

>  <SCORE.INTRA.REPUL.0>
0

>  <SCORE.INTRA.SOLV>
9.85966

>  <SCORE.INTRA.SOLV.lig_0>
-115.677

>  <SCORE.INTRA.VDW>
4.03415

>  <SCORE.INTRA.VDW.0>
-7.4833

>  <SCORE.INTRA.norm>
0.0607265

>  <SCORE.RESTR>
33.9867

>  <SCORE.RESTR.CAVITY>
33.9867

>  <SCORE.RESTR.norm>
0.65359

>  <SCORE.SYSTEM>
0

>  <SCORE.SYSTEM.CONST>
0

>  <SCORE.SYSTEM.DIHEDRAL>
0

>  <SCORE.SYSTEM.SOLV>
0

>  <SCORE.SYSTEM.norm>
0

>  <SCORE.heavy>
52

>  <SCORE.norm>
0.673675

>  <RMSD>
33.063

$$$$
2be0_lig
 OpenBabel11021811423D
libRbt.so/2013.1/901 2013/11/27
 52 56  0  0  0  0  0  0  0  0999 V2000
   24.8161   33.4047    4.7080 C   0  0  2  0  0  0  0  0  0  0  0  0
   25.0405   33.1893    6.0813 O   0  0  0  0  0  0  0  0  0  0  0  0
   22.9907   31.3884    9.5347 C   0  0  2  0  0  0  0  0  0  0  0  0
   21.8995   30.7917   10.3549 N   0  0  0  0  0  0  0  0  0  0  0  0
   25.8173   29.4874    6.2365 C   0  0  2  0  0  0  0  0  0  0  0  0
   25.7112   28.5774    5.1226 O   0  0  0  0  0  0  0  0  0  0  0  0
   25.9630   25.5965    8.0291 C   0  0  1  0  0  0  0  0  0  0  0  0
   31.1377   25.7618   10.4236 C   0  0  0  0  0  0  0  0  0  0  0  0
   24.3057   34.8780    4.4347 C   0  0  2  0  0  0  0  0  0  0  0  0
   25.2409   35.8425    5.0175 N   0  0  0  0  0  0  0  0  0  0  0  0
   22.5260   32.8229    9.0107 C   0  0  0  0  0  0  0  0  0  0  0  0
   25.8263   28.6284    7.5111 C   0  0  2  0  0  0  0  0  0  0  0  0
   27.2641   28.2455    7.6644 O   0  0  0  0  0  0  0  0  0  0  0  0
   25.8256   24.2504    7.1288 C   0  0  2  0  0  0  0  0  0  0  0  0
   24.6117   23.4946    7.5768 N   0  0  0  0  0  0  0  0  0  0  0  0
   32.4027   25.6959   11.0947 C   0  0  0  0  0  0  0  0  0  0  0  0
   32.4679   25.9157   12.4956 N   0  0  0  0  0  0  0  0  0  0  0  0
   22.8271   35.0512    5.0175 C   0  0  1  0  0  0  0  0  0  0  0  0
   22.3916   36.3789    4.7693 O   0  0  0  0  0  0  0  0  0  0  0  0
   23.6921   33.5068    8.0929 C   0  0  2  0  0  0  0  0  0  0  0  0
   23.2871   34.7994    7.6170 N   0  0  0  0  0  0  0  0  0  0  0  0
   24.7927   27.5677    7.0875 C   0  0  2  0  0  0  0  0  0  0  0  0
   24.7601   26.3630    7.8386 O   0  0  0  0  0  0  0  0  0  0  0  0
   27.1170   23.4028    7.3359 C   0  0  1  0  0  0  0  0  0  0  0  0
   28.2336   24.2306    6.8508 O   0  0  0  0  0  0  0  0  0  0  0  0
   31.3215   26.2061   13.2890 C   0  0  0  0  0  0  0  0  0  0  0  0
   21.9009   34.0011    4.3381 C   0  0  2  0  0  0  0  0  0  0  0  0
   20.5109   34.1105    4.8434 O   0  0  0  0  0  0  0  0  0  0  0  0
   24.0258   32.5683    6.8611 C   0  0  2  0  0  0  0  0  0  0  0  0
   25.0894   27.3601    5.5832 C   0  0  1  0  0  0  0  0  0  0  0  0
   27.2965   23.0381    8.9109 C   0  0  2  0  0  0  0  0  0  0  0  0
   26.1837   22.2110    9.4028 O   0  0  0  0  0  0  0  0  0  0  0  0
   30.0441   26.2829   12.6812 C   0  0  0  0  0  0  0  0  0  0  0  0
   22.4256   32.5409    4.6211 C   0  0  2  0  0  0  0  0  0  0  0  0
   23.7861   32.4989    4.1091 O   0  0  0  0  0  0  0  0  0  0  0  0
   24.4649   31.1739    7.4286 C   0  0  2  0  0  0  0  0  0  0  0  0
   24.7484   30.4280    6.2511 O   0  0  0  0  0  0  0  0  0  0  0  0
   23.8170   27.1700    4.7591 C   0  0  0  0  0  0  0  0  0  0  0  0
   23.1157   28.3498    4.4469 O   0  0  0  0  0  0  0  0  0  0  0  0
   27.3783   24.3874    9.7626 C   0  0  1  0  0  0  0  0  0  0  0  0
   26.1283   25.2005    9.4959 O   0  0  0  0  0  0  0  0  0  0  0  0
   29.9228   26.0622   11.2215 C   0  0  0  0  0  0  0  0  0  0  0  0
   21.5258   31.5972    3.9386 C   0  0  0  0  0  0  0  0  0  0  0  0
   21.3682   30.5041    4.6956 O   0  0  0  0  0  0  0  0  0  0  0  0
   23.2994   30.5257    8.2882 C   0  0  1  0  0  0  0  0  0  0  0  0
   23.7074   29.2965    8.7921 O   0  0  0  0  0  0  0  0  0  0  0  0
   27.9027   27.5009    8.7753 C   0  0  0  0  0  0  0  0  0  0  0  0
   27.5372   23.9784   11.2523 C   0  0  0  0  0  0  0  0  0  0  0  0
   28.8891   23.5552   11.5207 N   0  0  0  0  0  0  0  0  0  0  0  0
   29.4011   27.4220    8.4657 C   0  0  0  0  0  0  0  0  0  0  0  0
   29.7770   25.9996    8.1790 N   0  0  0  0  0  0  0  0  0  0  0  0
   31.0937   25.5075    8.8381 C   0  0  0  0  0  0  0  0  0  0  0  0
  1  2  1  1  0  0  0
  1  9  1  0  0  0  0
  1 35  1  0  0  0  0
  3  4  1  6  0  0  0
  3 11  1  0  0  0  0
  3 45  1  0  0  0  0
  5  6  1  0  0  0  0
  5 12  1  0  0  0  0
  5 37  1  1  0  0  0
  6 30  1  0  0  0  0
  7 14  1  0  0  0  0
  7 41  1  0  0  0  0
  7 23  1  1  0  0  0
  8 16  2  0  0  0  0
  8 42  1  0  0  0  0
  9 10  1  1  0  0  0
  9 18  1  0  0  0  0
 11 20  1  0  0  0  0
 12 13  1  6  0  0  0
 12 22  1  0  0  0  0
 13 47  1  0  0  0  0
 14 15  1  1  0  0  0
 14 24  1  0  0  0  0
 16 17  1  0  0  0  0
 17 26  2  0  0  0  0
 18 19  1  6  0  0  0
 18 27  1  0  0  0  0
 20 21  1  6  0  0  0
 20 29  1  0  0  0  0
 22 23  1  1  0  0  0
 22 30  1  0  0  0  0
 24 25  1  1  0  0  0
 24 31  1  0  0  0  0
 26 33  1  0  0  0  0
 27 28  1  1  0  0  0
 27 34  1  0  0  0  0
 29  2  1  1  0  0  0
 29 36  1  0  0  0  0
 30 38  1  6  0  0  0
 31 32  1  1  0  0  0
 31 40  1  0  0  0  0
 33 42  2  0  0  0  0
 34 35  1  0  0  0  0
 34 43  1  6  0  0  0
 36 37  1  6  0  0  0
 36 45  1  0  0  0  0
 38 39  1  0  0  0  0
 40 41  1  0  0  0  0
 40 48  1  1  0  0  0
 43 44  1  0  0  0  0
 45 46  1  1  0  0  0
 47 50  1  0  0  0  0
 48 49  1  0  0  0  0
 50 51  1  0  0  0  0
 51 52  1  0  0  0  0
 52  8  1  0  0  0  0
M  END
>  <CHROM.1>
96.65307375,163.46764424,-108.52328195,174.87419336,-177.92254229,-53.43381410
-125.36857124,-37.07020658,-142.91138890,144.06738618,76.80951768,-112.38431742
-136.43089219,52.78903849,-163.40908369,25.65923665,28.84128800,7.59222627
-2.32141346,0.67660889,-3.09831068

>  <Name>
2be0_lig

>  <RI>
0

>  <Rbt.Current_Directory>
/home/itssahil/PROJECTS/Mol_Feturizer/New_Systems/rnas/2be0

>  <Rbt.Executable>
rbdock ($Id: //depot/dev/client3/rdock/2013.1/src/exe/rbdock.cxx#4 $)

>  <Rbt.Library>
libRbt.so (2013.1, Build901 2013/11/27)

>  <Rbt.Parameter_File>
/export/apps/rDock/src/rDock_2013.1_src/data/scripts/dock_solv.prm

>  <Rbt.Receptor>
prm/blind_docking_80.prm

>  <SCORE>
29.2675

>  <SCORE.INTER>
-1.28385

>  <SCORE.INTER.CONST>
1

>  <SCORE.INTER.POLAR>
-1.16759

>  <SCORE.INTER.ROT>
15

>  <SCORE.INTER.SOLV>
26.3383

>  <SCORE.INTER.VDW>
-19.3434

>  <SCORE.INTER.norm>
-0.0246895

>  <SCORE.INTRA>
5.98575

>  <SCORE.INTRA.DIHEDRAL>
-9.38469

>  <SCORE.INTRA.DIHEDRAL.0>
47.8724

>  <SCORE.INTRA.POLAR>
0

>  <SCORE.INTRA.POLAR.0>
0

>  <SCORE.INTRA.REPUL>
0.352592

>  <SCORE.INTRA.REPUL.0>
0

>  <SCORE.INTRA.SOLV>
10.0336

>  <SCORE.INTRA.SOLV.lig_0>
-115.677

>  <SCORE.INTRA.VDW>
3.89835

>  <SCORE.INTRA.VDW.0>
-7.4833

>  <SCORE.INTRA.norm>
0.115111

>  <SCORE.RESTR>
24.5656

>  <SCORE.RESTR.CAVITY>
24.5656

>  <SCORE.RESTR.norm>
0.472416

>  <SCORE.SYSTEM>
0

>  <SCORE.SYSTEM.CONST>
0

>  <SCORE.SYSTEM.DIHEDRAL>
0

>  <SCORE.SYSTEM.SOLV>
0

>  <SCORE.SYSTEM.norm>
0

>  <SCORE.heavy>
52

>  <SCORE.norm>
0.562837

>  <RMSD>
33.074

$$$$
2be0_lig
 OpenBabel11021811423D
libRbt.so/2013.1/901 2013/11/27
 52 56  0  0  0  0  0  0  0  0999 V2000
   25.5609   23.0461    8.7880 C   0  0  2  0  0  0  0  0  0  0  0  0
   24.8293   24.0586    8.1380 O   0  0  0  0  0  0  0  0  0  0  0  0
   27.0627   24.4051    4.3614 C   0  0  2  0  0  0  0  0  0  0  0  0
   27.3392   24.6786    2.9232 N   0  0  0  0  0  0  0  0  0  0  0  0
   24.4823   26.8998    7.2671 C   0  0  2  0  0  0  0  0  0  0  0  0
   23.8872   26.5161    6.0105 O   0  0  0  0  0  0  0  0  0  0  0  0
   25.0586   31.2198    5.6345 C   0  0  1  0  0  0  0  0  0  0  0  0
   21.3068   33.3357    6.1418 C   0  0  0  0  0  0  0  0  0  0  0  0
   25.2803   23.0461   10.3458 C   0  0  2  0  0  0  0  0  0  0  0  0
   23.8392   22.9539   10.5897 N   0  0  0  0  0  0  0  0  0  0  0  0
   25.8752   23.3442    4.4728 C   0  0  0  0  0  0  0  0  0  0  0  0
   24.3163   28.4230    7.3891 C   0  0  2  0  0  0  0  0  0  0  0  0
   22.9468   28.5799    7.9698 O   0  0  0  0  0  0  0  0  0  0  0  0
   25.3328   31.4438    7.2207 C   0  0  2  0  0  0  0  0  0  0  0  0
   24.0242   31.7066    7.9020 N   0  0  0  0  0  0  0  0  0  0  0  0
   21.6862   32.6290    4.9538 C   0  0  0  0  0  0  0  0  0  0  0  0
   21.6914   33.3043    3.7052 N   0  0  0  0  0  0  0  0  0  0  0  0
   25.9162   24.3556   11.0065 C   0  0  1  0  0  0  0  0  0  0  0  0
   25.6473   24.3401   12.3999 O   0  0  0  0  0  0  0  0  0  0  0  0
   25.5306   23.0269    6.0382 C   0  0  2  0  0  0  0  0  0  0  0  0
   24.4649   22.0716    6.1521 N   0  0  0  0  0  0  0  0  0  0  0  0
   24.5731   28.8064    5.9194 C   0  0  2  0  0  0  0  0  0  0  0  0
   24.1611   30.1020    5.5094 O   0  0  0  0  0  0  0  0  0  0  0  0
   26.2938   32.6614    7.3726 C   0  0  1  0  0  0  0  0  0  0  0  0
   27.5413   32.2879    6.6858 O   0  0  0  0  0  0  0  0  0  0  0  0
   21.3309   34.6747    3.5634 C   0  0  0  0  0  0  0  0  0  0  0  0
   27.4443   24.3670   10.7114 C   0  0  2  0  0  0  0  0  0  0  0  0
   28.0914   25.5653   11.2983 O   0  0  0  0  0  0  0  0  0  0  0  0
   25.1247   24.3659    6.7810 C   0  0  2  0  0  0  0  0  0  0  0  0
   23.9047   27.6570    5.1280 C   0  0  1  0  0  0  0  0  0  0  0  0
   25.6264   33.9841    6.7011 C   0  0  2  0  0  0  0  0  0  0  0  0
   24.3787   34.3632    7.3822 O   0  0  0  0  0  0  0  0  0  0  0  0
   20.9481   35.4248    4.7026 C   0  0  0  0  0  0  0  0  0  0  0  0
   27.7034   24.3664    9.1557 C   0  0  2  0  0  0  0  0  0  0  0  0
   27.0448   23.1763    8.6412 O   0  0  0  0  0  0  0  0  0  0  0  0
   26.3166   25.3742    6.6328 C   0  0  2  0  0  0  0  0  0  0  0  0
   25.8525   26.5188    7.3383 O   0  0  0  0  0  0  0  0  0  0  0  0
   24.7101   27.2536    3.8940 C   0  0  0  0  0  0  0  0  0  0  0  0
   25.7747   28.1112    3.5587 O   0  0  0  0  0  0  0  0  0  0  0  0
   25.3295   33.7034    5.1564 C   0  0  1  0  0  0  0  0  0  0  0  0
   24.4327   32.4869    5.0530 O   0  0  0  0  0  0  0  0  0  0  0  0
   20.9255   34.7657    6.0289 C   0  0  0  0  0  0  0  0  0  0  0  0
   29.1592   24.3556    8.9400 C   0  0  0  0  0  0  0  0  0  0  0  0
   29.4289   24.7671    7.6948 O   0  0  0  0  0  0  0  0  0  0  0  0
   26.6036   25.6828    5.1032 C   0  0  1  0  0  0  0  0  0  0  0  0
   27.6681   26.5688    4.9885 O   0  0  0  0  0  0  0  0  0  0  0  0
   21.6620   28.7650    7.2548 C   0  0  0  0  0  0  0  0  0  0  0  0
   24.6858   34.9908    4.5736 C   0  0  0  0  0  0  0  0  0  0  0  0
   23.4149   35.2520    5.2023 N   0  0  0  0  0  0  0  0  0  0  0  0
   21.6904   30.1619    6.6260 C   0  0  0  0  0  0  0  0  0  0  0  0
   20.8104   31.0827    7.4161 N   0  0  0  0  0  0  0  0  0  0  0  0
   21.3115   32.5468    7.5410 C   0  0  0  0  0  0  0  0  0  0  0  0
  1  2  1  6  0  0  0
  1  9  1  0  0  0  0
  1 35  1  0  0  0  0
  3  4  1  6  0  0  0
  3 11  1  0  0  0  0
  3 45  1  0  0  0  0
  5  6  1  0  0  0  0
  5 12  1  0  0  0  0
  5 37  1  6  0  0  0
  6 30  1  0  0  0  0
  7 14  1  0  0  0  0
  7 41  1  0  0  0  0
  7 23  1  1  0  0  0
  8 16  2  0  0  0  0
  8 42  1  0  0  0  0
  9 10  1  6  0  0  0
  9 18  1  0  0  0  0
 11 20  1  0  0  0  0
 12 13  1  6  0  0  0
 12 22  1  0  0  0  0
 13 47  1  0  0  0  0
 14 15  1  1  0  0  0
 14 24  1  0  0  0  0
 16 17  1  0  0  0  0
 17 26  2  0  0  0  0
 18 19  1  1  0  0  0
 18 27  1  0  0  0  0
 20 21  1  6  0  0  0
 20 29  1  0  0  0  0
 22 23  1  6  0  0  0
 22 30  1  0  0  0  0
 24 25  1  6  0  0  0
 24 31  1  0  0  0  0
 26 33  1  0  0  0  0
 27 28  1  6  0  0  0
 27 34  1  0  0  0  0
 29  2  1  1  0  0  0
 29 36  1  0  0  0  0
 30 38  1  6  0  0  0
 31 32  1  1  0  0  0
 31 40  1  0  0  0  0
 33 42  2  0  0  0  0
 34 35  1  0  0  0  0
 34 43  1  1  0  0  0
 36 37  1  1  0  0  0
 36 45  1  0  0  0  0
 38 39  1  0  0  0  0
 40 41  1  0  0  0  0
 40 48  1  1  0  0  0
 43 44  1  0  0  0  0
 45 46  1  1  0  0  0
 47 50  1  0  0  0  0
 48 49  1  0  0  0  0
 50 51  1  0  0  0  0
 51 52  1  0  0  0  0
 52  8  1  0  0  0  0
M  END
>  <CHROM.1>
169.13263839,-29.56294573,-64.58050049,-92.57981390,-69.38722002,88.96083191
34.80320117,-126.31066625,-160.92661505,-37.60794138,-63.93741050,-104.98966836
144.11065295,66.91094332,-38.26042119,24.85429470,28.37224066,6.79130791
0.55669036,-1.17575623,1.89416999

>  <Name>
2be0_lig

>  <RI>
0

>  <Rbt.Current_Directory>
/home/itssahil/PROJECTS/Mol_Feturizer/New_Systems/rnas/2be0

>  <Rbt.Executable>
rbdock ($Id: //depot/dev/client3/rdock/2013.1/src/exe/rbdock.cxx#4 $)

>  <Rbt.Library>
libRbt.so (2013.1, Build901 2013/11/27)

>  <Rbt.Parameter_File>
/export/apps/rDock/src/rDock_2013.1_src/data/scripts/dock_solv.prm

>  <Rbt.Receptor>
prm/blind_docking_80.prm

>  <SCORE>
104.939

>  <SCORE.INTER>
58.241

>  <SCORE.INTER.CONST>
1

>  <SCORE.INTER.POLAR>
-1.79541

>  <SCORE.INTER.ROT>
15

>  <SCORE.INTER.SOLV>
29.7159

>  <SCORE.INTER.VDW>
21.3067

>  <SCORE.INTER.norm>
1.12002

>  <SCORE.INTRA>
8.1774

>  <SCORE.INTRA.DIHEDRAL>
-18.1203

>  <SCORE.INTRA.DIHEDRAL.0>
47.8724

>  <SCORE.INTRA.POLAR>
0

>  <SCORE.INTRA.POLAR.0>
0

>  <SCORE.INTRA.REPUL>
0

>  <SCORE.INTRA.REPUL.0>
0

>  <SCORE.INTRA.SOLV>
14.5043

>  <SCORE.INTRA.SOLV.lig_0>
-115.677

>  <SCORE.INTRA.VDW>
9.98536

>  <SCORE.INTRA.VDW.0>
-7.4833

>  <SCORE.INTRA.norm>
0.157258

>  <SCORE.RESTR>
38.5208

>  <SCORE.RESTR.CAVITY>
38.5208

>  <SCORE.RESTR.norm>
0.740784

>  <SCORE.SYSTEM>
0

>  <SCORE.SYSTEM.CONST>
0

>  <SCORE.SYSTEM.DIHEDRAL>
0

>  <SCORE.SYSTEM.SOLV>
0

>  <SCORE.SYSTEM.norm>
0

>  <SCORE.heavy>
52

>  <SCORE.norm>
2.01806

>  <RMSD>
33.096

$$$$
2be0_lig
 OpenBabel11021811423D
libRbt.so/2013.1/901 2013/11/27
 52 56  0  0  0  0  0  0  0  0999 V2000
   23.9721   32.0827    6.0380 C   0  0  2  0  0  0  0  0  0  0  0  0
   23.8038   32.2716    7.4232 O   0  0  0  0  0  0  0  0  0  0  0  0
   22.4248   29.7641   10.7672 C   0  0  2  0  0  0  0  0  0  0  0  0
   21.5737   28.8229   11.5477 N   0  0  0  0  0  0  0  0  0  0  0  0
   25.7202   29.0991    7.3698 C   0  0  2  0  0  0  0  0  0  0  0  0
   26.0999   28.8147    6.0077 O   0  0  0  0  0  0  0  0  0  0  0  0
   25.5132   24.7715    8.5428 C   0  0  1  0  0  0  0  0  0  0  0  0
   31.0263   25.9116   10.8657 C   0  0  0  0  0  0  0  0  0  0  0  0
   25.0344   33.0961    5.4461 C   0  0  2  0  0  0  0  0  0  0  0  0
   26.2898   32.9900    6.1925 N   0  0  0  0  0  0  0  0  0  0  0  0
   21.5401   31.0112   10.3087 C   0  0  0  0  0  0  0  0  0  0  0  0
   25.9326   27.8032    8.1686 C   0  0  2  0  0  0  0  0  0  0  0  0
   27.3799   27.8562    8.5425 O   0  0  0  0  0  0  0  0  0  0  0  0
   26.6851   25.1613    9.5993 C   0  0  2  0  0  0  0  0  0  0  0  0
   28.0023   24.7135    9.0424 N   0  0  0  0  0  0  0  0  0  0  0  0
   30.3651   24.9810   11.7326 C   0  0  0  0  0  0  0  0  0  0  0  0
   30.0665   25.3550   13.0691 N   0  0  0  0  0  0  0  0  0  0  0  0
   24.4401   34.5798    5.4829 C   0  0  1  0  0  0  0  0  0  0  0  0
   25.4093   35.4725    4.9558 O   0  0  0  0  0  0  0  0  0  0  0  0
   22.4352   32.0630    9.4355 C   0  0  2  0  0  0  0  0  0  0  0  0
   21.6511   33.1912    9.0187 N   0  0  0  0  0  0  0  0  0  0  0  0
   25.4521   26.7926    7.1100 C   0  0  2  0  0  0  0  0  0  0  0  0
   25.8180   25.4340    7.3023 O   0  0  0  0  0  0  0  0  0  0  0  0
   26.3753   24.4391   10.9452 C   0  0  1  0  0  0  0  0  0  0  0  0
   25.0784   24.9639   11.4035 O   0  0  0  0  0  0  0  0  0  0  0  0
   30.3961   26.6308   13.6092 C   0  0  0  0  0  0  0  0  0  0  0  0
   23.1201   34.6052    4.6587 C   0  0  2  0  0  0  0  0  0  0  0  0
   22.5175   35.9601    4.6594 O   0  0  0  0  0  0  0  0  0  0  0  0
   23.0327   31.3328    8.1630 C   0  0  2  0  0  0  0  0  0  0  0  0
   25.9637   27.3968    5.7806 C   0  0  1  0  0  0  0  0  0  0  0  0
   26.3091   22.8308   10.7111 C   0  0  2  0  0  0  0  0  0  0  0  0
   27.6020   22.2992   10.2524 O   0  0  0  0  0  0  0  0  0  0  0  0
   31.0492   27.5923   12.7994 C   0  0  0  0  0  0  0  0  0  0  0  0
   22.0756   33.5896    5.2630 C   0  0  2  0  0  0  0  0  0  0  0  0
   22.7235   32.2879    5.2386 O   0  0  0  0  0  0  0  0  0  0  0  0
   23.8810   30.1138    8.6666 C   0  0  2  0  0  0  0  0  0  0  0  0
   24.3720   29.5486    7.4571 O   0  0  0  0  0  0  0  0  0  0  0  0
   24.9642   27.2224    4.6383 C   0  0  0  0  0  0  0  0  0  0  0  0
   23.8010   28.0100    4.7258 O   0  0  0  0  0  0  0  0  0  0  0  0
   25.1794   22.4970    9.6317 C   0  0  1  0  0  0  0  0  0  0  0  0
   25.4932   23.2546    8.3579 O   0  0  0  0  0  0  0  0  0  0  0  0
   31.3836   27.2505   11.3973 C   0  0  0  0  0  0  0  0  0  0  0  0
   20.8616   33.6424    4.4326 C   0  0  0  0  0  0  0  0  0  0  0  0
   20.3582   34.8828    4.4565 O   0  0  0  0  0  0  0  0  0  0  0  0
   22.9752   29.0990    9.4834 C   0  0  1  0  0  0  0  0  0  0  0  0
   23.7430   28.0306    9.9311 O   0  0  0  0  0  0  0  0  0  0  0  0
   28.5321   27.2398    7.8434 C   0  0  0  0  0  0  0  0  0  0  0  0
   25.1700   20.9558    9.4418 C   0  0  0  0  0  0  0  0  0  0  0  0
   25.1346   20.6174    8.0408 N   0  0  0  0  0  0  0  0  0  0  0  0
   29.7533   27.3994    8.7547 C   0  0  0  0  0  0  0  0  0  0  0  0
   30.8411   26.4750    8.2976 N   0  0  0  0  0  0  0  0  0  0  0  0
   31.3505   25.4619    9.3580 C   0  0  0  0  0  0  0  0  0  0  0  0
  1  2  1  1  0  0  0
  1  9  1  0  0  0  0
  1 35  1  0  0  0  0
  3  4  1  6  0  0  0
  3 11  1  0  0  0  0
  3 45  1  0  0  0  0
  5  6  1  0  0  0  0
  5 12  1  0  0  0  0
  5 37  1  6  0  0  0
  6 30  1  0  0  0  0
  7 14  1  0  0  0  0
  7 41  1  0  0  0  0
  7 23  1  6  0  0  0
  8 16  2  0  0  0  0
  8 42  1  0  0  0  0
  9 10  1  1  0  0  0
  9 18  1  0  0  0  0
 11 20  1  0  0  0  0
 12 13  1  6  0  0  0
 12 22  1  0  0  0  0
 13 47  1  0  0  0  0
 14 15  1  6  0  0  0
 14 24  1  0  0  0  0
 16 17  1  0  0  0  0
 17 26  2  0  0  0  0
 18 19  1  6  0  0  0
 18 27  1  0  0  0  0
 20 21  1  6  0  0  0
 20 29  1  0  0  0  0
 22 23  1  1  0  0  0
 22 30  1  0  0  0  0
 24 25  1  6  0  0  0
 24 31  1  0  0  0  0
 26 33  1  0  0  0  0
 27 28  1  1  0  0  0
 27 34  1  0  0  0  0
 29  2  1  1  0  0  0
 29 36  1  0  0  0  0
 30 38  1  6  0  0  0
 31 32  1  6  0  0  0
 31 40  1  0  0  0  0
 33 42  2  0  0  0  0
 34 35  1  0  0  0  0
 34 43  1  6  0  0  0
 36 37  1  6  0  0  0
 36 45  1  0  0  0  0
 38 39  1  0  0  0  0
 40 41  1  0  0  0  0
 40 48  1  6  0  0  0
 43 44  1  0  0  0  0
 45 46  1  1  0  0  0
 47 50  1  0  0  0  0
 48 49  1  0  0  0  0
 50 51  1  0  0  0  0
 51 52  1  0  0  0  0
 52  8  1  0  0  0  0
M  END
>  <CHROM.1>
-171.21563521,-168.34691301,-82.69153508,-95.12154978,-170.91073419,54.00990553
-153.71250624,-45.29944202,-60.41525330,138.01163065,-133.81312894,164.05600157
-122.42983719,-20.91318415,128.03383257,25.53526927,28.44863950,8.25205375
-2.08224695,0.29867271,2.85333825

>  <Name>
2be0_lig

>  <RI>
0

>  <Rbt.Current_Directory>
/home/itssahil/PROJECTS/Mol_Feturizer/New_Systems/rnas/2be0

>  <Rbt.Executable>
rbdock ($Id: //depot/dev/client3/rdock/2013.1/src/exe/rbdock.cxx#4 $)

>  <Rbt.Library>
libRbt.so (2013.1, Build901 2013/11/27)

>  <Rbt.Parameter_File>
/export/apps/rDock/src/rDock_2013.1_src/data/scripts/dock_solv.prm

>  <Rbt.Receptor>
prm/blind_docking_80.prm

>  <SCORE>
32.1943

>  <SCORE.INTER>
10.1995

>  <SCORE.INTER.CONST>
1

>  <SCORE.INTER.POLAR>
0

>  <SCORE.INTER.ROT>
15

>  <SCORE.INTER.SOLV>
31.0107

>  <SCORE.INTER.VDW>
-17.1372

>  <SCORE.INTER.norm>
0.196145

>  <SCORE.INTRA>
-6.76635

>  <SCORE.INTRA.DIHEDRAL>
-21.8215

>  <SCORE.INTRA.DIHEDRAL.0>
47.8724

>  <SCORE.INTRA.POLAR>
0

>  <SCORE.INTRA.POLAR.0>
0

>  <SCORE.INTRA.REPUL>
0

>  <SCORE.INTRA.REPUL.0>
0

>  <SCORE.INTRA.SOLV>
3.19701

>  <SCORE.INTRA.SOLV.lig_0>
-115.677

>  <SCORE.INTRA.VDW>
2.54589

>  <SCORE.INTRA.VDW.0>
-7.4833

>  <SCORE.INTRA.norm>
-0.130122

>  <SCORE.RESTR>
28.7611

>  <SCORE.RESTR.CAVITY>
28.7611

>  <SCORE.RESTR.norm>
0.553099

>  <SCORE.SYSTEM>
0

>  <SCORE.SYSTEM.CONST>
0

>  <SCORE.SYSTEM.DIHEDRAL>
0

>  <SCORE.SYSTEM.SOLV>
0

>  <SCORE.SYSTEM.norm>
0

>  <SCORE.heavy>
52

>  <SCORE.norm>
0.619121

>  <RMSD>
33.126

$$$$
2be0_lig
 OpenBabel11021811423D
libRbt.so/2013.1/901 2013/11/27
 52 56  0  0  0  0  0  0  0  0999 V2000
   26.9992   23.9191    9.7950 C   0  0  2  0  0  0  0  0  0  0  0  0
   25.7565   24.3850   10.2654 O   0  0  0  0  0  0  0  0  0  0  0  0
   22.4856   21.4412   10.3473 C   0  0  2  0  0  0  0  0  0  0  0  0
   21.5389   20.4209   10.8784 N   0  0  0  0  0  0  0  0  0  0  0  0
   22.6836   26.2591   10.4742 C   0  0  2  0  0  0  0  0  0  0  0  0
   22.1991   25.9125    9.1607 O   0  0  0  0  0  0  0  0  0  0  0  0
   24.5983   28.7829    7.4960 C   0  0  1  0  0  0  0  0  0  0  0  0
   22.7764   33.0513    6.5108 C   0  0  0  0  0  0  0  0  0  0  0  0
   28.1835   24.8451   10.2908 C   0  0  2  0  0  0  0  0  0  0  0  0
   28.1370   24.9708   11.7491 N   0  0  0  0  0  0  0  0  0  0  0  0
   23.9823   20.9543   10.6135 C   0  0  0  0  0  0  0  0  0  0  0  0
   23.7405   27.3582   10.2807 C   0  0  2  0  0  0  0  0  0  0  0  0
   22.9318   28.6154   10.2281 O   0  0  0  0  0  0  0  0  0  0  0  0
   24.2612   28.1771    6.0261 C   0  0  2  0  0  0  0  0  0  0  0  0
   25.5369   27.7059    5.3966 N   0  0  0  0  0  0  0  0  0  0  0  0
   22.6440   32.9825    5.0851 C   0  0  0  0  0  0  0  0  0  0  0  0
   23.2681   33.9651    4.2727 N   0  0  0  0  0  0  0  0  0  0  0  0
   28.0944   26.2665    9.5647 C   0  0  1  0  0  0  0  0  0  0  0  0
   29.1589   27.0829   10.0280 O   0  0  0  0  0  0  0  0  0  0  0  0
   25.0541   22.0549   10.0571 C   0  0  2  0  0  0  0  0  0  0  0  0
   26.4051   21.6275   10.2887 N   0  0  0  0  0  0  0  0  0  0  0  0
   24.4060   26.8220    8.9992 C   0  0  2  0  0  0  0  0  0  0  0  0
   25.2112   27.7303    8.2621 O   0  0  0  0  0  0  0  0  0  0  0  0
   23.6084   29.3113    5.1796 C   0  0  1  0  0  0  0  0  0  0  0  0
   22.3660   29.6811    5.8774 O   0  0  0  0  0  0  0  0  0  0  0  0
   24.0339   35.0404    4.8068 C   0  0  0  0  0  0  0  0  0  0  0  0
   28.1638   26.0420    8.0262 C   0  0  2  0  0  0  0  0  0  0  0  0
   28.0815   27.3298    7.2955 O   0  0  0  0  0  0  0  0  0  0  0  0
   24.8097   23.4496   10.7675 C   0  0  2  0  0  0  0  0  0  0  0  0
   23.2179   26.2432    8.1946 C   0  0  1  0  0  0  0  0  0  0  0  0
   24.6221   30.5789    5.0721 C   0  0  2  0  0  0  0  0  0  0  0  0
   25.8664   30.2165    4.3760 O   0  0  0  0  0  0  0  0  0  0  0  0
   24.2006   35.1596    6.2085 C   0  0  0  0  0  0  0  0  0  0  0  0
   26.9772   25.1176    7.5519 C   0  0  2  0  0  0  0  0  0  0  0  0
   27.1102   23.8794    8.3029 O   0  0  0  0  0  0  0  0  0  0  0  0
   23.3273   23.8759   10.4849 C   0  0  2  0  0  0  0  0  0  0  0  0
   23.2261   25.1293   11.1499 O   0  0  0  0  0  0  0  0  0  0  0  0
   23.5810   24.9487    7.4689 C   0  0  0  0  0  0  0  0  0  0  0  0
   24.2399   25.1100    6.2356 O   0  0  0  0  0  0  0  0  0  0  0  0
   24.9644   31.1111    6.5392 C   0  0  1  0  0  0  0  0  0  0  0  0
   25.5515   29.9674    7.3404 O   0  0  0  0  0  0  0  0  0  0  0  0
   23.5683   34.1597    7.1001 C   0  0  0  0  0  0  0  0  0  0  0  0
   27.1078   24.9246    6.0987 C   0  0  0  0  0  0  0  0  0  0  0  0
   26.4505   23.8163    5.7349 O   0  0  0  0  0  0  0  0  0  0  0  0
   22.3142   22.8012   11.0646 C   0  0  1  0  0  0  0  0  0  0  0  0
   21.0063   23.1879   10.7973 O   0  0  0  0  0  0  0  0  0  0  0  0
   23.3536   29.9600    9.7693 C   0  0  0  0  0  0  0  0  0  0  0  0
   25.9397   32.3084    6.3748 C   0  0  0  0  0  0  0  0  0  0  0  0
   26.9060   32.3263    7.4447 N   0  0  0  0  0  0  0  0  0  0  0  0
   22.1033   30.8454    9.7507 C   0  0  0  0  0  0  0  0  0  0  0  0
   22.3681   32.0650    8.9206 N   0  0  0  0  0  0  0  0  0  0  0  0
   22.0607   31.9252    7.4053 C   0  0  0  0  0  0  0  0  0  0  0  0
  1  2  1  6  0  0  0
  1  9  1  0  0  0  0
  1 35  1  0  0  0  0
  3  4  1  1  0  0  0
  3 11  1  0  0  0  0
  3 45  1  0  0  0  0
  5  6  1  0  0  0  0
  5 12  1  0  0  0  0
  5 37  1  6  0  0  0
  6 30  1  0  0  0  0
  7 14  1  0  0  0  0
  7 41  1  0  0  0  0
  7 23  1  1  0  0  0
  8 16  2  0  0  0  0
  8 42  1  0  0  0  0
  9 10  1  1  0  0  0
  9 18  1  0  0  0  0
 11 20  1  0  0  0  0
 12 13  1  6  0  0  0
 12 22  1  0  0  0  0
 13 47  1  0  0  0  0
 14 15  1  6  0  0  0
 14 24  1  0  0  0  0
 16 17  1  0  0  0  0
 17 26  2  0  0  0  0
 18 19  1  1  0  0  0
 18 27  1  0  0  0  0
 20 21  1  1  0  0  0
 20 29  1  0  0  0  0
 22 23  1  6  0  0  0
 22 30  1  0  0  0  0
 24 25  1  1  0  0  0
 24 31  1  0  0  0  0
 26 33  1  0  0  0  0
 27 28  1  6  0  0  0
 27 34  1  0  0  0  0
 29  2  1  6  0  0  0
 29 36  1  0  0  0  0
 30 38  1  1  0  0  0
 31 32  1  1  0  0  0
 31 40  1  0  0  0  0
 33 42  2  0  0  0  0
 34 35  1  0  0  0  0
 34 43  1  6  0  0  0
 36 37  1  1  0  0  0
 36 45  1  0  0  0  0
 38 39  1  0  0  0  0
 40 41  1  0  0  0  0
 40 48  1  6  0  0  0
 43 44  1  0  0  0  0
 45 46  1  6  0  0  0
 47 50  1  0  0  0  0
 48 49  1  0  0  0  0
 50 51  1  0  0  0  0
 51 52  1  0  0  0  0
 52  8  1  0  0  0  0
M  END
>  <CHROM.1>
-137.03009636,4.40163610,-87.50091425,-165.43125023,172.89941469,-73.08978349
-27.76450205,161.37732935,158.33103592,130.72184027,-144.20321979,-163.02117915
88.48837358,-161.79207443,175.98594159,24.65414106,27.37101026,8.22352464
-1.49516923,0.30693735,-0.41375895

>  <Name>
2be0_lig

>  <RI>
0

>  <Rbt.Current_Directory>
/home/itssahil/PROJECTS/Mol_Feturizer/New_Systems/rnas/2be0

>  <Rbt.Executable>
rbdock ($Id: //depot/dev/client3/rdock/2013.1/src/exe/rbdock.cxx#4 $)

>  <Rbt.Library>
libRbt.so (2013.1, Build901 2013/11/27)

>  <Rbt.Parameter_File>
/export/apps/rDock/src/rDock_2013.1_src/data/scripts/dock_solv.prm

>  <Rbt.Receptor>
prm/blind_docking_80.prm

>  <SCORE>
77.3097

>  <SCORE.INTER>
36.9215

>  <SCORE.INTER.CONST>
1

>  <SCORE.INTER.POLAR>
-0.824621

>  <SCORE.INTER.ROT>
15

>  <SCORE.INTER.SOLV>
38.7379

>  <SCORE.INTER.VDW>
0.850421

>  <SCORE.INTER.norm>
0.710029

>  <SCORE.INTRA>
3.35934

>  <SCORE.INTRA.DIHEDRAL>
-10.0647

>  <SCORE.INTRA.DIHEDRAL.0>
47.8724

>  <SCORE.INTRA.POLAR>
0

>  <SCORE.INTRA.POLAR.0>
0

>  <SCORE.INTRA.REPUL>
0.0875899

>  <SCORE.INTRA.REPUL.0>
0

>  <SCORE.INTRA.SOLV>
8.71882

>  <SCORE.INTRA.SOLV.lig_0>
-115.677

>  <SCORE.INTRA.VDW>
3.59433

>  <SCORE.INTRA.VDW.0>
-7.4833

>  <SCORE.INTRA.norm>
0.0646027

>  <SCORE.RESTR>
37.0288

>  <SCORE.RESTR.CAVITY>
37.0288

>  <SCORE.RESTR.norm>
0.712093

>  <SCORE.SYSTEM>
0

>  <SCORE.SYSTEM.CONST>
0

>  <SCORE.SYSTEM.DIHEDRAL>
0

>  <SCORE.SYSTEM.SOLV>
0

>  <SCORE.SYSTEM.norm>
0

>  <SCORE.heavy>
52

>  <SCORE.norm>
1.48672

>  <RMSD>
33.161

$$$$
2be0_lig
 OpenBabel11021811423D
libRbt.so/2013.1/901 2013/11/27
 52 56  0  0  0  0  0  0  0  0999 V2000
   23.3054   32.2840    8.3167 C   0  0  2  0  0  0  0  0  0  0  0  0
   22.3449   31.4534    7.7081 O   0  0  0  0  0  0  0  0  0  0  0  0
   21.8243   29.1540    3.9916 C   0  0  2  0  0  0  0  0  0  0  0  0
   22.0774   28.6586    2.6096 N   0  0  0  0  0  0  0  0  0  0  0  0
   23.7154   28.1045    8.2760 C   0  0  2  0  0  0  0  0  0  0  0  0
   24.9498   27.9584    9.0075 O   0  0  0  0  0  0  0  0  0  0  0  0
   26.0165   24.2003    7.7361 C   0  0  1  0  0  0  0  0  0  0  0  0
   23.6392   24.8964   13.5478 C   0  0  0  0  0  0  0  0  0  0  0  0
   23.1133   33.7947    7.8845 C   0  0  2  0  0  0  0  0  0  0  0  0
   21.7383   34.2175    8.1588 N   0  0  0  0  0  0  0  0  0  0  0  0
   21.6666   30.7421    3.9568 C   0  0  0  0  0  0  0  0  0  0  0  0
   23.4101   26.7368    7.6445 C   0  0  2  0  0  0  0  0  0  0  0  0
   22.6977   25.9999    8.7339 O   0  0  0  0  0  0  0  0  0  0  0  0
   25.4045   24.0470    9.2339 C   0  0  2  0  0  0  0  0  0  0  0  0
   25.1923   25.4147    9.8085 N   0  0  0  0  0  0  0  0  0  0  0  0
   22.7579   23.7661   13.5225 C   0  0  0  0  0  0  0  0  0  0  0  0
   22.7049   22.8906   14.6386 N   0  0  0  0  0  0  0  0  0  0  0  0
   23.4949   33.9648    6.3413 C   0  0  1  0  0  0  0  0  0  0  0  0
   23.3088   35.3225    5.9724 O   0  0  0  0  0  0  0  0  0  0  0  0
   21.4012   31.3281    5.4588 C   0  0  2  0  0  0  0  0  0  0  0  0
   21.2552   32.7562    5.4409 N   0  0  0  0  0  0  0  0  0  0  0  0
   24.8447   26.3308    7.2571 C   0  0  2  0  0  0  0  0  0  0  0  0
   25.0698   24.9599    6.9631 O   0  0  0  0  0  0  0  0  0  0  0  0
   26.4265   23.2371   10.0875 C   0  0  1  0  0  0  0  0  0  0  0  0
   26.5432   21.9175    9.4453 O   0  0  0  0  0  0  0  0  0  0  0  0
   23.4973   23.0755   15.8073 C   0  0  0  0  0  0  0  0  0  0  0  0
   24.9690   33.5071    6.1423 C   0  0  2  0  0  0  0  0  0  0  0  0
   25.3809   33.6386    4.7238 O   0  0  0  0  0  0  0  0  0  0  0  0
   22.6027   30.9293    6.4111 C   0  0  2  0  0  0  0  0  0  0  0  0
   25.6976   26.8679    8.4310 C   0  0  1  0  0  0  0  0  0  0  0  0
   27.8599   24.0056   10.1163 C   0  0  2  0  0  0  0  0  0  0  0  0
   27.7508   25.3257   10.7566 O   0  0  0  0  0  0  0  0  0  0  0  0
   24.3860   24.1756   15.8903 C   0  0  0  0  0  0  0  0  0  0  0  0
   25.1403   32.0011    6.5784 C   0  0  2  0  0  0  0  0  0  0  0  0
   24.7193   31.9373    7.9689 O   0  0  0  0  0  0  0  0  0  0  0  0
   22.7210   29.3657    6.4012 C   0  0  2  0  0  0  0  0  0  0  0  0
   23.8075   29.1248    7.2871 O   0  0  0  0  0  0  0  0  0  0  0  0
   27.0348   27.4417    7.9651 C   0  0  0  0  0  0  0  0  0  0  0  0
   27.8304   28.0185    8.9727 O   0  0  0  0  0  0  0  0  0  0  0  0
   28.4005   24.1777    8.6227 C   0  0  1  0  0  0  0  0  0  0  0  0
   27.3585   24.9269    7.8179 O   0  0  0  0  0  0  0  0  0  0  0  0
   24.4789   25.1182   14.7513 C   0  0  0  0  0  0  0  0  0  0  0  0
   26.5528   31.6336    6.3887 C   0  0  0  0  0  0  0  0  0  0  0  0
   27.3357   32.5911    6.9015 O   0  0  0  0  0  0  0  0  0  0  0  0
   23.0086   28.8340    4.9342 C   0  0  1  0  0  0  0  0  0  0  0  0
   23.1003   27.4473    4.9405 O   0  0  0  0  0  0  0  0  0  0  0  0
   22.5967   24.5356    8.9382 C   0  0  0  0  0  0  0  0  0  0  0  0
   29.7594   24.9241    8.7119 C   0  0  0  0  0  0  0  0  0  0  0  0
   29.5928   26.2071    9.3482 N   0  0  0  0  0  0  0  0  0  0  0  0
   22.8466   24.2672   10.4257 C   0  0  0  0  0  0  0  0  0  0  0  0
   22.6022   25.5228   11.2071 N   0  0  0  0  0  0  0  0  0  0  0  0
   23.6774   25.8709   12.2714 C   0  0  0  0  0  0  0  0  0  0  0  0
  1  2  1  6  0  0  0
  1  9  1  0  0  0  0
  1 35  1  0  0  0  0
  3  4  1  6  0  0  0
  3 11  1  0  0  0  0
  3 45  1  0  0  0  0
  5  6  1  0  0  0  0
  5 12  1  0  0  0  0
  5 37  1  6  0  0  0
  6 30  1  0  0  0  0
  7 14  1  0  0  0  0
  7 41  1  0  0  0  0
  7 23  1  6  0  0  0
  8 16  2  0  0  0  0
  8 42  1  0  0  0  0
  9 10  1  6  0  0  0
  9 18  1  0  0  0  0
 11 20  1  0  0  0  0
 12 13  1  1  0  0  0
 12 22  1  0  0  0  0
 13 47  1  0  0  0  0
 14 15  1  1  0  0  0
 14 24  1  0  0  0  0
 16 17  1  0  0  0  0
 17 26  2  0  0  0  0
 18 19  1  1  0  0  0
 18 27  1  0  0  0  0
 20 21  1  6  0  0  0
 20 29  1  0  0  0  0
 22 23  1  1  0  0  0
 22 30  1  0  0  0  0
 24 25  1  6  0  0  0
 24 31  1  0  0  0  0
 26 33  1  0  0  0  0
 27 28  1  6  0  0  0
 27 34  1  0  0  0  0
 29  2  1  1  0  0  0
 29 36  1  0  0  0  0
 30 38  1  6  0  0  0
 31 32  1  6  0  0  0
 31 40  1  0  0  0  0
 33 42  2  0  0  0  0
 34 35  1  0  0  0  0
 34 43  1  1  0  0  0
 36 37  1  1  0  0  0
 36 45  1  0  0  0  0
 38 39  1  0  0  0  0
 40 41  1  0  0  0  0
 40 48  1  1  0  0  0
 43 44  1  0  0  0  0
 45 46  1  1  0  0  0
 47 50  1  0  0  0  0
 48 49  1  0  0  0  0
 50 51  1  0  0  0  0
 51 52  1  0  0  0  0
 52  8  1  0  0  0  0
M  END
>  <CHROM.1>
86.33617343,175.99889256,68.03060854,-154.93964170,135.25077646,-120.28188155
-124.90371088,60.25131404,46.67362815,134.78371833,-59.10653805,20.60367936
-134.44792871,-71.75714845,6.31558438,24.52680740,27.91612471,8.41860076
1.79767346,0.63196605,-0.73788550

>  <Name>
2be0_lig

>  <RI>
0

>  <Rbt.Current_Directory>
/home/itssahil/PROJECTS/Mol_Feturizer/New_Systems/rnas/2be0

>  <Rbt.Executable>
rbdock ($Id: //depot/dev/client3/rdock/2013.1/src/exe/rbdock.cxx#4 $)

>  <Rbt.Library>
libRbt.so (2013.1, Build901 2013/11/27)

>  <Rbt.Parameter_File>
/export/apps/rDock/src/rDock_2013.1_src/data/scripts/dock_solv.prm

>  <Rbt.Receptor>
prm/blind_docking_80.prm

>  <SCORE>
91.5186

>  <SCORE.INTER>
17.2919

>  <SCORE.INTER.CONST>
1

>  <SCORE.INTER.POLAR>
0

>  <SCORE.INTER.ROT>
15

>  <SCORE.INTER.SOLV>
24.0704

>  <SCORE.INTER.VDW>
-10.0956

>  <SCORE.INTER.norm>
0.332536

>  <SCORE.INTRA>
28.9728

>  <SCORE.INTRA.DIHEDRAL>
-8.59443

>  <SCORE.INTRA.DIHEDRAL.0>
47.8724

>  <SCORE.INTRA.POLAR>
0

>  <SCORE.INTRA.POLAR.0>
0

>  <SCORE.INTRA.REPUL>
0

>  <SCORE.INTRA.REPUL.0>
0

>  <SCORE.INTRA.SOLV>
17.3338

>  <SCORE.INTRA.SOLV.lig_0>
-115.677

>  <SCORE.INTRA.VDW>
24.6031

>  <SCORE.INTRA.VDW.0>
-7.4833

>  <SCORE.INTRA.norm>
0.55717

>  <SCORE.RESTR>
45.2539

>  <SCORE.RESTR.CAVITY>
45.2539

>  <SCORE.RESTR.norm>
0.870268

>  <SCORE.SYSTEM>
0

>  <SCORE.SYSTEM.CONST>
0

>  <SCORE.SYSTEM.DIHEDRAL>
0

>  <SCORE.SYSTEM.SOLV>
0

>  <SCORE.SYSTEM.norm>
0

>  <SCORE.heavy>
52

>  <SCORE.norm>
1.75997

>  <RMSD>
33.227

$$$$
2be0_lig
 OpenBabel11021811423D
libRbt.so/2013.1/901 2013/11/27
 52 56  0  0  0  0  0  0  0  0999 V2000
   30.5321   28.5665    9.9973 C   0  0  2  0  0  0  0  0  0  0  0  0
   29.8979   27.9606    8.8957 O   0  0  0  0  0  0  0  0  0  0  0  0
   27.3322   24.4885    8.0399 C   0  0  2  0  0  0  0  0  0  0  0  0
   26.5499   23.2411    8.2671 N   0  0  0  0  0  0  0  0  0  0  0  0
   26.3861   29.1131    8.8180 C   0  0  2  0  0  0  0  0  0  0  0  0
   25.0617   29.1722    9.3862 O   0  0  0  0  0  0  0  0  0  0  0  0
   23.0444   28.4167    5.9365 C   0  0  1  0  0  0  0  0  0  0  0  0
   23.9110   35.0829    6.0002 C   0  0  0  0  0  0  0  0  0  0  0  0
   32.1057   28.4230    9.9031 C   0  0  2  0  0  0  0  0  0  0  0  0
   32.5748   28.9447    8.6177 N   0  0  0  0  0  0  0  0  0  0  0  0
   28.8416   24.2501    8.5016 C   0  0  0  0  0  0  0  0  0  0  0  0
   26.2104   28.8899    7.3074 C   0  0  2  0  0  0  0  0  0  0  0  0
   26.0223   30.2728    6.7693 O   0  0  0  0  0  0  0  0  0  0  0  0
   22.0214   27.3597    5.2456 C   0  0  2  0  0  0  0  0  0  0  0  0
   22.6157   26.8912    3.9522 N   0  0  0  0  0  0  0  0  0  0  0  0
   23.3282   36.3885    6.1032 C   0  0  0  0  0  0  0  0  0  0  0  0
   23.7611   37.4226    5.2323 N   0  0  0  0  0  0  0  0  0  0  0  0
   32.5195   26.8934   10.1148 C   0  0  1  0  0  0  0  0  0  0  0  0
   33.9313   26.7853   10.0192 O   0  0  0  0  0  0  0  0  0  0  0  0
   29.7320   25.6024    8.2816 C   0  0  2  0  0  0  0  0  0  0  0  0
   31.0932   25.4004    8.6912 N   0  0  0  0  0  0  0  0  0  0  0  0
   25.0174   27.9164    7.3503 C   0  0  2  0  0  0  0  0  0  0  0  0
   24.2925   27.7310    6.1433 O   0  0  0  0  0  0  0  0  0  0  0  0
   20.6678   28.0931    5.0029 C   0  0  1  0  0  0  0  0  0  0  0  0
   20.1724   28.4906    6.3311 O   0  0  0  0  0  0  0  0  0  0  0  0
   24.7657   37.2316    4.2411 C   0  0  0  0  0  0  0  0  0  0  0  0
   31.9953   26.4261   11.5037 C   0  0  2  0  0  0  0  0  0  0  0  0
   32.3466   25.0077   11.7563 O   0  0  0  0  0  0  0  0  0  0  0  0
   29.1022   26.8003    9.1050 C   0  0  2  0  0  0  0  0  0  0  0  0
   24.1591   28.4540    8.5201 C   0  0  1  0  0  0  0  0  0  0  0  0
   20.9011   29.3906    4.0500 C   0  0  2  0  0  0  0  0  0  0  0  0
   21.3967   29.0008    2.7207 O   0  0  0  0  0  0  0  0  0  0  0  0
   25.3770   35.9623    4.0917 C   0  0  0  0  0  0  0  0  0  0  0  0
   30.4271   26.5770   11.5782 C   0  0  2  0  0  0  0  0  0  0  0  0
   30.1478   27.9807   11.3199 O   0  0  0  0  0  0  0  0  0  0  0  0
   27.6217   26.9848    8.6223 C   0  0  2  0  0  0  0  0  0  0  0  0
   27.1664   28.0790    9.4090 O   0  0  0  0  0  0  0  0  0  0  0  0
   23.5405   27.3323    9.3526 C   0  0  0  0  0  0  0  0  0  0  0  0
   22.8734   27.7431   10.5220 O   0  0  0  0  0  0  0  0  0  0  0  0
   21.9483   30.3779    4.7439 C   0  0  1  0  0  0  0  0  0  0  0  0
   23.2298   29.6132    5.0040 O   0  0  0  0  0  0  0  0  0  0  0  0
   24.9608   34.8500    4.9771 C   0  0  0  0  0  0  0  0  0  0  0  0
   29.9944   26.1423   12.9161 C   0  0  0  0  0  0  0  0  0  0  0  0
   30.5953   26.8951   13.8460 O   0  0  0  0  0  0  0  0  0  0  0  0
   26.7793   25.6650    8.8786 C   0  0  1  0  0  0  0  0  0  0  0  0
   25.4735   25.8409    8.4365 O   0  0  0  0  0  0  0  0  0  0  0  0
   26.2880   31.5649    7.4446 C   0  0  0  0  0  0  0  0  0  0  0  0
   22.1390   31.5867    3.7879 C   0  0  0  0  0  0  0  0  0  0  0  0
   22.9387   32.6089    4.4158 N   0  0  0  0  0  0  0  0  0  0  0  0
   25.6143   32.6592    6.6103 C   0  0  0  0  0  0  0  0  0  0  0  0
   24.1280   32.5765    6.7859 N   0  0  0  0  0  0  0  0  0  0  0  0
   23.4008   33.9317    6.9976 C   0  0  0  0  0  0  0  0  0  0  0  0
  1  2  1  6  0  0  0
  1  9  1  0  0  0  0
  1 35  1  0  0  0  0
  3  4  1  1  0  0  0
  3 11  1  0  0  0  0
  3 45  1  0  0  0  0
  5  6  1  0  0  0  0
  5 12  1  0  0  0  0
  5 37  1  1  0  0  0
  6 30  1  0  0  0  0
  7 14  1  0  0  0  0
  7 41  1  0  0  0  0
  7 23  1  6  0  0  0
  8 16  2  0  0  0  0
  8 42  1  0  0  0  0
  9 10  1  6  0  0  0
  9 18  1  0  0  0  0
 11 20  1  0  0  0  0
 12 13  1  6  0  0  0
 12 22  1  0  0  0  0
 13 47  1  0  0  0  0
 14 15  1  6  0  0  0
 14 24  1  0  0  0  0
 16 17  1  0  0  0  0
 17 26  2  0  0  0  0
 18 19  1  1  0  0  0
 18 27  1  0  0  0  0
 20 21  1  1  0  0  0
 20 29  1  0  0  0  0
 22 23  1  6  0  0  0
 22 30  1  0  0  0  0
 24 25  1  1  0  0  0
 24 31  1  0  0  0  0
 26 33  1  0  0  0  0
 27 28  1  6  0  0  0
 27 34  1  0  0  0  0
 29  2  1  6  0  0  0
 29 36  1  0  0  0  0
 30 38  1  1  0  0  0
 31 32  1  6  0  0  0
 31 40  1  0  0  0  0
 33 42  2  0  0  0  0
 34 35  1  0  0  0  0
 34 43  1  1  0  0  0
 36 37  1  1  0  0  0
 36 45  1  0  0  0  0
 38 39  1  0  0  0  0
 40 41  1  0  0  0  0
 40 48  1  6  0  0  0
 43 44  1  0  0  0  0
 45 46  1  6  0  0  0
 47 50  1  0  0  0  0
 48 49  1  0  0  0  0
 50 51  1  0  0  0  0
 51 52  1  0  0  0  0
 52  8  1  0  0  0  0
M  END
>  <CHROM.1>
112.71846690,116.41292987,-138.49627700,14.23652142,-166.23864331,-100.34847130
-118.73317074,56.77012153,59.01109185,137.27560629,172.64187351,72.49710608
135.96892119,43.99634558,-179.32845416,26.30290156,28.95964931,7.74852882
-0.66994388,-0.47385086,-0.21610197

>  <Name>
2be0_lig

>  <RI>
0

>  <Rbt.Current_Directory>
/home/itssahil/PROJECTS/Mol_Feturizer/New_Systems/rnas/2be0

>  <Rbt.Executable>
rbdock ($Id: //depot/dev/client3/rdock/2013.1/src/exe/rbdock.cxx#4 $)

>  <Rbt.Library>
libRbt.so (2013.1, Build901 2013/11/27)

>  <Rbt.Parameter_File>
/export/apps/rDock/src/rDock_2013.1_src/data/scripts/dock_solv.prm

>  <Rbt.Receptor>
prm/blind_docking_80.prm

>  <SCORE>
57.6863

>  <SCORE.INTER>
5.20507

>  <SCORE.INTER.CONST>
1

>  <SCORE.INTER.POLAR>
-0.17765

>  <SCORE.INTER.ROT>
15

>  <SCORE.INTER.SOLV>
30.3279

>  <SCORE.INTER.VDW>
-19.6471

>  <SCORE.INTER.norm>
0.100097

>  <SCORE.INTRA>
19.8688

>  <SCORE.INTRA.DIHEDRAL>
-0.0729564

>  <SCORE.INTRA.DIHEDRAL.0>
47.8724

>  <SCORE.INTRA.POLAR>
0

>  <SCORE.INTRA.POLAR.0>
0

>  <SCORE.INTRA.REPUL>
0.101637

>  <SCORE.INTRA.REPUL.0>
0

>  <SCORE.INTRA.SOLV>
9.74595

>  <SCORE.INTRA.SOLV.lig_0>
-115.677

>  <SCORE.INTRA.VDW>
14.5241

>  <SCORE.INTRA.VDW.0>
-7.4833

>  <SCORE.INTRA.norm>
0.382092

>  <SCORE.RESTR>
32.6125

>  <SCORE.RESTR.CAVITY>
32.6125

>  <SCORE.RESTR.norm>
0.627163

>  <SCORE.SYSTEM>
0

>  <SCORE.SYSTEM.CONST>
0

>  <SCORE.SYSTEM.DIHEDRAL>
0

>  <SCORE.SYSTEM.SOLV>
0

>  <SCORE.SYSTEM.norm>
0

>  <SCORE.heavy>
52

>  <SCORE.norm>
1.10935

>  <RMSD>
33.251

$$$$
