ligand
  PyMOL2.2          3D                             0

 27 29  0  0  0  0  0  0  0  0999 V2000
   13.4420   -4.5190   10.7230 N   0  0  0  0  0  0  0  0  0  0  0  0
   14.0540   -5.5030   11.6180 C   0  0  0  0  0  0  0  0  0  0  0  0
   15.3780   -5.0830   12.2610 C   0  0  0  0  0  0  0  0  0  0  0  0
   15.7870   -5.7090   13.2380 O   0  0  0  0  0  0  0  0  0  0  0  0
   14.1990   -6.8490   10.9280 C   0  0  0  0  0  0  0  0  0  0  0  0
   12.8510   -7.4100   10.5090 C   0  0  0  0  0  0  0  0  0  0  0  0
   13.0350   -9.0680    9.8290 S   0  0  0  0  0  0  0  0  0  0  0  0
   13.9650   -9.8520   11.1630 C   0  0  0  0  0  0  0  0  0  0  0  0
   14.3760   -8.7930    8.6480 C   0  0  0  0  0  0  0  0  0  0  0  0
   13.8360   -8.2820    7.3250 C   0  0  0  0  0  0  0  0  0  0  0  0
   13.2210   -7.0250    7.4920 O   0  0  0  0  0  0  0  0  0  0  0  0
   14.9250   -8.0550    6.2950 C   0  0  0  0  0  0  0  0  0  0  0  0
   15.0530   -9.2210    5.5210 O   0  0  0  0  0  0  0  0  0  0  0  0
   14.3930   -6.9050    5.4640 C   0  0  0  0  0  0  0  0  0  0  0  0
   13.8430   -7.4550    4.2880 O   0  0  0  0  0  0  0  0  0  0  0  0
   13.3050   -6.2440    6.3130 C   0  0  0  0  0  0  0  0  0  0  0  0
   16.0550   -4.1380   11.8470 O   0  0  0  0  0  0  0  0  0  0  0  0
   17.2200   -3.3610    8.2570 N   0  0  0  0  0  0  0  0  0  0  0  0
   17.2280   -4.7020    7.9590 C   0  0  0  0  0  0  0  0  0  0  0  0
   16.0880   -5.2860    7.4520 N   0  0  0  0  0  0  0  0  0  0  0  0
   14.9660   -4.5620    7.2410 C   0  0  0  0  0  0  0  0  0  0  0  0
   14.9470   -3.2040    7.5240 C   0  0  0  0  0  0  0  0  0  0  0  0
   16.0890   -2.6010    8.0470 C   0  0  0  0  0  0  0  0  0  0  0  0
   16.1080   -1.3000    8.3380 N   0  0  0  0  0  0  0  0  0  0  0  0
   13.7130   -2.7300    7.2130 N   0  0  0  0  0  0  0  0  0  0  0  0
   12.9750   -3.7560    6.7300 C   0  0  0  0  0  0  0  0  0  0  0  0
   13.7390   -4.8970    6.7340 N   0  0  0  0  0  0  0  0  0  0  0  0
  1  2  1  0  0  0  0
  2  3  1  0  0  0  0
  2  5  1  0  0  0  0
  3  4  4  0  0  0  0
  3 17  4  0  0  0  0
  5  6  1  0  0  0  0
  6  7  1  0  0  0  0
  7  8  1  0  0  0  0
  7  9  1  0  0  0  0
  9 10  1  0  0  0  0
 10 11  1  0  0  0  0
 10 12  1  0  0  0  0
 11 16  1  0  0  0  0
 12 13  1  0  0  0  0
 12 14  1  0  0  0  0
 14 15  1  0  0  0  0
 14 16  1  0  0  0  0
 16 27  1  0  0  0  0
 18 19  4  0  0  0  0
 19 20  4  0  0  0  0
 20 21  4  0  0  0  0
 21 22  4  0  0  0  0
 22 23  4  0  0  0  0
 18 23  4  0  0  0  0
 23 24  1  0  0  0  0
 22 25  4  0  0  0  0
 25 26  4  0  0  0  0
 21 27  4  0  0  0  0
 26 27  4  0  0  0  0
M  END
$$$$
