ligand
 OpenBabel11021811483D
libRbt.so/2013.1/901 2013/11/27
 27 29  0  0  0  0  0  0  0  0999 V2000
   13.8571   -4.4438   10.3146 N   0  0  0  0  0  0  0  0  0  0  0  0
   13.6598   -5.4343   11.3747 C   0  0  2  0  0  0  0  0  0  0  0  0
   14.6366   -5.3523   12.5503 C   0  0  0  0  0  0  0  0  0  0  0  0
   15.4187   -4.4042   12.6058 O   0  0  0  0  0  0  0  0  0  0  0  0
   13.6284   -6.8422   10.8040 C   0  0  0  0  0  0  0  0  0  0  0  0
   12.2789   -7.1641   10.1855 C   0  0  0  0  0  0  0  0  0  0  0  0
   12.2857   -8.8161    9.4670 S   0  0  2  0  0  0  0  0  0  0  0  0
   12.9522   -9.7584   10.8552 C   0  0  0  0  0  0  0  0  0  0  0  0
   13.7644   -8.7190    8.4312 C   0  0  0  0  0  0  0  0  0  0  0  0
   13.4211   -8.2080    7.0441 C   0  0  1  0  0  0  0  0  0  0  0  0
   12.9087   -6.8969    7.1107 O   0  0  0  0  0  0  0  0  0  0  0  0
   14.6323   -8.1131    6.1373 C   0  0  1  0  0  0  0  0  0  0  0  0
   14.7373   -9.3116    5.4110 O   0  0  0  0  0  0  0  0  0  0  0  0
   14.3014   -6.9498    5.2243 C   0  0  1  0  0  0  0  0  0  0  0  0
   13.8354   -7.4892    4.0078 O   0  0  0  0  0  0  0  0  0  0  0  0
   13.1920   -6.1671    5.9299 C   0  0  2  0  0  0  0  0  0  0  0  0
   14.6806   -6.1995   13.4465 O   0  0  0  0  0  0  0  0  0  0  0  0
   17.3768   -3.4264    7.4771 N   0  0  0  0  0  0  0  0  0  0  0  0
   17.3252   -4.7475    7.1038 C   0  0  0  0  0  0  0  0  0  0  0  0
   16.1183   -5.2940    6.7264 N   0  0  0  0  0  0  0  0  0  0  0  0
   14.9880   -4.5524    6.7150 C   0  0  0  0  0  0  0  0  0  0  0  0
   15.0269   -3.2134    7.0760 C   0  0  0  0  0  0  0  0  0  0  0  0
   16.2383   -2.6489    7.4700 C   0  0  0  0  0  0  0  0  0  0  0  0
   16.3151   -1.3676    7.8303 N   0  0  0  0  0  0  0  0  0  0  0  0
   13.7685   -2.7149    6.9666 N   0  0  0  0  0  0  0  0  0  0  0  0
   12.9569   -3.7063    6.5318 C   0  0  0  0  0  0  0  0  0  0  0  0
   13.6984   -4.8498    6.3640 N   0  0  0  0  0  0  0  0  0  0  0  0
  2  1  1  6  0  0  0
  2  3  1  0  0  0  0
  2  5  1  0  0  0  0
  3  4  1  0  0  0  0
  3 17  1  0  0  0  0
  5  6  1  0  0  0  0
  7  6  1  1  0  0  0
  7  8  1  0  0  0  0
  7  9  1  0  0  0  0
 10  9  1  1  0  0  0
 10 11  1  0  0  0  0
 10 12  1  0  0  0  0
 11 16  1  0  0  0  0
 12 13  1  6  0  0  0
 12 14  1  0  0  0  0
 14 15  1  6  0  0  0
 14 16  1  0  0  0  0
 16 27  1  1  0  0  0
 18 19  2  0  0  0  0
 18 23  1  0  0  0  0
 19 20  1  0  0  0  0
 20 21  2  0  0  0  0
 21 22  1  0  0  0  0
 21 27  1  0  0  0  0
 22 23  2  0  0  0  0
 22 25  1  0  0  0  0
 23 24  1  0  0  0  0
 25 26  2  0  0  0  0
 26 27  1  0  0  0  0
M  END
>  <CHROM.1>
7.27854027,-79.16250701,178.06209745,50.03858975,-89.36804826,62.76550873
83.98280953,14.25015600,-6.02331192,8.28768334,-2.29769054,-1.13420502,-1.72471908

>  <Name>
ligand

>  <RI>
0

>  <Rbt.Current_Directory>
/home/itssahil/PROJECTS/Mol_Feturizer/New_Systems/rnas/3GX5

>  <Rbt.Executable>
rbdock ($Id: //depot/dev/client3/rdock/2013.1/src/exe/rbdock.cxx#4 $)

>  <Rbt.Library>
libRbt.so (2013.1, Build901 2013/11/27)

>  <Rbt.Parameter_File>
/export/apps/rDock/src/rDock_2013.1_src/data/scripts/dock_solv.prm

>  <Rbt.Receptor>
prm/pocket_docking_3.prm

>  <SCORE>
-15.4566

>  <SCORE.INTER>
-17.2774

>  <SCORE.INTER.CONST>
1

>  <SCORE.INTER.POLAR>
0

>  <SCORE.INTER.ROT>
7

>  <SCORE.INTER.SOLV>
20.4508

>  <SCORE.INTER.VDW>
-26.6019

>  <SCORE.INTER.norm>
-0.639904

>  <SCORE.INTRA>
1.82079

>  <SCORE.INTRA.DIHEDRAL>
1.57113

>  <SCORE.INTRA.DIHEDRAL.0>
4.28829

>  <SCORE.INTRA.POLAR>
0

>  <SCORE.INTRA.POLAR.0>
0

>  <SCORE.INTRA.REPUL>
0

>  <SCORE.INTRA.REPUL.0>
0

>  <SCORE.INTRA.SOLV>
0.0436356

>  <SCORE.INTRA.SOLV.lig_0>
-48.6018

>  <SCORE.INTRA.VDW>
1.01341

>  <SCORE.INTRA.VDW.0>
-2.1506

>  <SCORE.INTRA.norm>
0.0674368

>  <SCORE.RESTR>
0

>  <SCORE.RESTR.CAVITY>
0

>  <SCORE.RESTR.norm>
0

>  <SCORE.SYSTEM>
0

>  <SCORE.SYSTEM.CONST>
0

>  <SCORE.SYSTEM.DIHEDRAL>
0

>  <SCORE.SYSTEM.SOLV>
0

>  <SCORE.SYSTEM.norm>
0

>  <SCORE.heavy>
27

>  <SCORE.norm>
-0.572468

>  <RMSD>
0.648

$$$$
ligand
 OpenBabel11021811483D
libRbt.so/2013.1/901 2013/11/27
 27 29  0  0  0  0  0  0  0  0999 V2000
   13.5056   -4.5320    9.5481 N   0  0  0  0  0  0  0  0  0  0  0  0
   13.8049   -5.4398   10.6573 C   0  0  2  0  0  0  0  0  0  0  0  0
   15.0464   -5.0931   11.4828 C   0  0  0  0  0  0  0  0  0  0  0  0
   15.9720   -4.4935   10.9374 O   0  0  0  0  0  0  0  0  0  0  0  0
   13.8675   -6.8805   10.1786 C   0  0  0  0  0  0  0  0  0  0  0  0
   12.4890   -7.4122    9.8255 C   0  0  0  0  0  0  0  0  0  0  0  0
   12.5935   -9.1120    9.2384 S   0  0  2  0  0  0  0  0  0  0  0  0
   13.4740   -9.8674   10.6215 C   0  0  0  0  0  0  0  0  0  0  0  0
   13.9543   -8.9696    8.0566 C   0  0  0  0  0  0  0  0  0  0  0  0
   13.4634   -8.4224    6.7290 C   0  0  1  0  0  0  0  0  0  0  0  0
   12.9365   -7.1253    6.8909 O   0  0  0  0  0  0  0  0  0  0  0  0
   14.5748   -8.2725    5.7089 C   0  0  1  0  0  0  0  0  0  0  0  0
   14.6277   -9.4449    4.9357 O   0  0  0  0  0  0  0  0  0  0  0  0
   14.1322   -7.0883    4.8736 C   0  0  1  0  0  0  0  0  0  0  0  0
   13.5556   -7.5987    3.6925 O   0  0  0  0  0  0  0  0  0  0  0  0
   13.0857   -6.3524    5.7130 C   0  0  2  0  0  0  0  0  0  0  0  0
   15.1654   -5.3930   12.6738 O   0  0  0  0  0  0  0  0  0  0  0  0
   17.2456   -3.7102    7.4826 N   0  0  0  0  0  0  0  0  0  0  0  0
   17.1704   -5.0418    7.1532 C   0  0  0  0  0  0  0  0  0  0  0  0
   15.9750   -5.5576    6.7029 N   0  0  0  0  0  0  0  0  0  0  0  0
   14.8792   -4.7760    6.5775 C   0  0  0  0  0  0  0  0  0  0  0  0
   14.9434   -3.4265    6.8930 C   0  0  0  0  0  0  0  0  0  0  0  0
   16.1426   -2.8923    7.3596 C   0  0  0  0  0  0  0  0  0  0  0  0
   16.2424   -1.6018    7.6794 N   0  0  0  0  0  0  0  0  0  0  0  0
   13.7177   -2.8866    6.6688 N   0  0  0  0  0  0  0  0  0  0  0  0
   12.9030   -3.8635    6.2076 C   0  0  0  0  0  0  0  0  0  0  0  0
   13.6092   -5.0390    6.1383 N   0  0  0  0  0  0  0  0  0  0  0  0
  2  1  1  6  0  0  0
  2  3  1  0  0  0  0
  2  5  1  0  0  0  0
  3  4  1  0  0  0  0
  3 17  1  0  0  0  0
  5  6  1  0  0  0  0
  7  6  1  1  0  0  0
  7  8  1  0  0  0  0
  7  9  1  0  0  0  0
 10  9  1  1  0  0  0
 10 11  1  0  0  0  0
 10 12  1  0  0  0  0
 11 16  1  0  0  0  0
 12 13  1  6  0  0  0
 12 14  1  0  0  0  0
 14 15  1  6  0  0  0
 14 16  1  0  0  0  0
 16 27  1  1  0  0  0
 18 19  2  0  0  0  0
 18 23  1  0  0  0  0
 19 20  1  0  0  0  0
 20 21  2  0  0  0  0
 21 22  1  0  0  0  0
 21 27  1  0  0  0  0
 22 23  2  0  0  0  0
 22 25  1  0  0  0  0
 23 24  1  0  0  0  0
 25 26  2  0  0  0  0
 26 27  1  0  0  0  0
M  END
>  <CHROM.1>
-28.63009919,-71.45950253,179.16012837,54.45823557,-81.29978107,62.06074843
72.54031130,14.30860465,-6.15547512,7.89501703,0.21518686,1.17238871,1.57240020

>  <Name>
ligand

>  <RI>
0

>  <Rbt.Current_Directory>
/home/itssahil/PROJECTS/Mol_Feturizer/New_Systems/rnas/3GX5

>  <Rbt.Executable>
rbdock ($Id: //depot/dev/client3/rdock/2013.1/src/exe/rbdock.cxx#4 $)

>  <Rbt.Library>
libRbt.so (2013.1, Build901 2013/11/27)

>  <Rbt.Parameter_File>
/export/apps/rDock/src/rDock_2013.1_src/data/scripts/dock_solv.prm

>  <Rbt.Receptor>
prm/pocket_docking_4.prm

>  <SCORE>
-15.6262

>  <SCORE.INTER>
-16.0305

>  <SCORE.INTER.CONST>
1

>  <SCORE.INTER.POLAR>
0

>  <SCORE.INTER.ROT>
7

>  <SCORE.INTER.SOLV>
19.1198

>  <SCORE.INTER.VDW>
-25.3269

>  <SCORE.INTER.norm>
-0.593722

>  <SCORE.INTRA>
0.404313

>  <SCORE.INTRA.DIHEDRAL>
0.114357

>  <SCORE.INTRA.DIHEDRAL.0>
4.28829

>  <SCORE.INTRA.POLAR>
0

>  <SCORE.INTRA.POLAR.0>
0

>  <SCORE.INTRA.REPUL>
0

>  <SCORE.INTRA.REPUL.0>
0

>  <SCORE.INTRA.SOLV>
2.07729

>  <SCORE.INTRA.SOLV.lig_0>
-48.6018

>  <SCORE.INTRA.VDW>
-0.691512

>  <SCORE.INTRA.VDW.0>
-2.1506

>  <SCORE.INTRA.norm>
0.0149745

>  <SCORE.RESTR>
0

>  <SCORE.RESTR.CAVITY>
0

>  <SCORE.RESTR.norm>
0

>  <SCORE.SYSTEM>
0

>  <SCORE.SYSTEM.CONST>
0

>  <SCORE.SYSTEM.DIHEDRAL>
0

>  <SCORE.SYSTEM.SOLV>
0

>  <SCORE.SYSTEM.norm>
0

>  <SCORE.heavy>
27

>  <SCORE.norm>
-0.578748

>  <RMSD>
0.778

$$$$
ligand
 OpenBabel11021811483D
libRbt.so/2013.1/901 2013/11/27
 27 29  0  0  0  0  0  0  0  0999 V2000
   13.7939   -3.9314   10.1604 N   0  0  0  0  0  0  0  0  0  0  0  0
   13.6950   -5.1970   10.8901 C   0  0  2  0  0  0  0  0  0  0  0  0
   14.9427   -5.6107   11.6743 C   0  0  0  0  0  0  0  0  0  0  0  0
   14.8462   -5.7952   12.8869 O   0  0  0  0  0  0  0  0  0  0  0  0
   13.2453   -6.3204    9.9712 C   0  0  0  0  0  0  0  0  0  0  0  0
   13.1268   -7.6385   10.7169 C   0  0  0  0  0  0  0  0  0  0  0  0
   12.5994   -8.9539    9.6049 S   0  0  2  0  0  0  0  0  0  0  0  0
   13.0903  -10.3970   10.5721 C   0  0  0  0  0  0  0  0  0  0  0  0
   13.9466   -8.9266    8.3995 C   0  0  0  0  0  0  0  0  0  0  0  0
   13.4526   -8.4499    7.0461 C   0  0  1  0  0  0  0  0  0  0  0  0
   12.8791   -7.1668    7.1506 O   0  0  0  0  0  0  0  0  0  0  0  0
   14.5700   -8.3015    6.0324 C   0  0  1  0  0  0  0  0  0  0  0  0
   14.6727   -9.5009    5.3071 O   0  0  0  0  0  0  0  0  0  0  0  0
   14.0964   -7.1675    5.1459 C   0  0  1  0  0  0  0  0  0  0  0  0
   13.5518   -7.7442    3.9802 O   0  0  0  0  0  0  0  0  0  0  0  0
   13.0151   -6.4363    5.9444 C   0  0  2  0  0  0  0  0  0  0  0  0
   16.0474   -5.7633   11.1459 O   0  0  0  0  0  0  0  0  0  0  0  0
   17.1164   -3.5393    7.4291 N   0  0  0  0  0  0  0  0  0  0  0  0
   17.0974   -4.8777    7.1200 C   0  0  0  0  0  0  0  0  0  0  0  0
   15.9086   -5.4663    6.7487 N   0  0  0  0  0  0  0  0  0  0  0  0
   14.7645   -4.7493    6.6809 C   0  0  0  0  0  0  0  0  0  0  0  0
   14.7707   -3.3938    6.9766 C   0  0  0  0  0  0  0  0  0  0  0  0
   15.9633   -2.7864    7.3638 C   0  0  0  0  0  0  0  0  0  0  0  0
   16.0086   -1.4877    7.6622 N   0  0  0  0  0  0  0  0  0  0  0  0
   13.5051   -2.9268    6.8208 N   0  0  0  0  0  0  0  0  0  0  0  0
   12.7211   -3.9545    6.4208 C   0  0  0  0  0  0  0  0  0  0  0  0
   13.4876   -5.0895    6.3223 N   0  0  0  0  0  0  0  0  0  0  0  0
  2  1  1  6  0  0  0
  2  3  1  0  0  0  0
  2  5  1  0  0  0  0
  3  4  1  0  0  0  0
  3 17  1  0  0  0  0
  5  6  1  0  0  0  0
  7  6  1  1  0  0  0
  7  8  1  0  0  0  0
  7  9  1  0  0  0  0
 10  9  1  1  0  0  0
 10 11  1  0  0  0  0
 10 12  1  0  0  0  0
 11 16  1  0  0  0  0
 12 13  1  6  0  0  0
 12 14  1  0  0  0  0
 14 15  1  6  0  0  0
 14 16  1  0  0  0  0
 16 27  1  1  0  0  0
 18 19  2  0  0  0  0
 18 23  1  0  0  0  0
 19 20  1  0  0  0  0
 20 21  2  0  0  0  0
 21 22  1  0  0  0  0
 21 27  1  0  0  0  0
 22 23  2  0  0  0  0
 22 25  1  0  0  0  0
 23 24  1  0  0  0  0
 25 26  2  0  0  0  0
 26 27  1  0  0  0  0
M  END
>  <CHROM.1>
121.88930225,-179.52979749,-179.76296677,161.59545343,-112.49459734,57.90034089
77.06739791,14.23376520,-6.20385724,8.11141781,-0.31376308,1.21657626,1.55602883

>  <Name>
ligand

>  <RI>
0

>  <Rbt.Current_Directory>
/home/itssahil/PROJECTS/Mol_Feturizer/New_Systems/rnas/3GX5

>  <Rbt.Executable>
rbdock ($Id: //depot/dev/client3/rdock/2013.1/src/exe/rbdock.cxx#4 $)

>  <Rbt.Library>
libRbt.so (2013.1, Build901 2013/11/27)

>  <Rbt.Parameter_File>
/export/apps/rDock/src/rDock_2013.1_src/data/scripts/dock_solv.prm

>  <Rbt.Receptor>
prm/pocket_docking_2.prm

>  <SCORE>
-13.4964

>  <SCORE.INTER>
-13.7346

>  <SCORE.INTER.CONST>
1

>  <SCORE.INTER.POLAR>
0

>  <SCORE.INTER.ROT>
7

>  <SCORE.INTER.SOLV>
21.6591

>  <SCORE.INTER.VDW>
-24.6428

>  <SCORE.INTER.norm>
-0.50869

>  <SCORE.INTRA>
0.230934

>  <SCORE.INTRA.DIHEDRAL>
2.90917

>  <SCORE.INTRA.DIHEDRAL.0>
4.28829

>  <SCORE.INTRA.POLAR>
0

>  <SCORE.INTRA.POLAR.0>
0

>  <SCORE.INTRA.REPUL>
0

>  <SCORE.INTRA.REPUL.0>
0

>  <SCORE.INTRA.SOLV>
0.410724

>  <SCORE.INTRA.SOLV.lig_0>
-48.6018

>  <SCORE.INTRA.VDW>
-1.42901

>  <SCORE.INTRA.VDW.0>
-2.1506

>  <SCORE.INTRA.norm>
0.00855313

>  <SCORE.RESTR>
0.00727708

>  <SCORE.RESTR.CAVITY>
0.00727708

>  <SCORE.RESTR.norm>
0.000269522

>  <SCORE.SYSTEM>
0

>  <SCORE.SYSTEM.CONST>
0

>  <SCORE.SYSTEM.DIHEDRAL>
0

>  <SCORE.SYSTEM.SOLV>
0

>  <SCORE.SYSTEM.norm>
0

>  <SCORE.heavy>
27

>  <SCORE.norm>
-0.499868

>  <RMSD>
0.794

$$$$
ligand
 OpenBabel11021811483D
libRbt.so/2013.1/901 2013/11/27
 27 29  0  0  0  0  0  0  0  0999 V2000
   13.5866   -4.0382    9.8917 N   0  0  0  0  0  0  0  0  0  0  0  0
   13.9064   -4.7915   11.1058 C   0  0  2  0  0  0  0  0  0  0  0  0
   15.3544   -4.6864   11.5907 C   0  0  0  0  0  0  0  0  0  0  0  0
   16.2560   -4.6273   10.7557 O   0  0  0  0  0  0  0  0  0  0  0  0
   13.4946   -6.2475   10.9663 C   0  0  0  0  0  0  0  0  0  0  0  0
   14.1616   -6.9044    9.7701 C   0  0  0  0  0  0  0  0  0  0  0  0
   13.4803   -8.5473    9.4840 S   0  0  2  0  0  0  0  0  0  0  0  0
   14.4466   -9.4988   10.6757 C   0  0  0  0  0  0  0  0  0  0  0  0
   14.3450   -9.0026    7.9629 C   0  0  0  0  0  0  0  0  0  0  0  0
   13.6420   -8.4268    6.7475 C   0  0  1  0  0  0  0  0  0  0  0  0
   13.1272   -7.1461    7.0320 O   0  0  0  0  0  0  0  0  0  0  0  0
   14.5759   -8.2244    5.5705 C   0  0  1  0  0  0  0  0  0  0  0  0
   14.5242   -9.3722    4.7612 O   0  0  0  0  0  0  0  0  0  0  0  0
   13.9885   -7.0255    4.8538 C   0  0  1  0  0  0  0  0  0  0  0  0
   13.2405   -7.5127    3.7624 O   0  0  0  0  0  0  0  0  0  0  0  0
   13.0763   -6.3361    5.8708 C   0  0  2  0  0  0  0  0  0  0  0  0
   15.6619   -4.6635   12.7856 O   0  0  0  0  0  0  0  0  0  0  0  0
   17.3274   -3.7557    7.5101 N   0  0  0  0  0  0  0  0  0  0  0  0
   17.2127   -5.0938    7.2214 C   0  0  0  0  0  0  0  0  0  0  0  0
   15.9983   -5.5904    6.8012 N   0  0  0  0  0  0  0  0  0  0  0  0
   14.9220   -4.7837    6.6661 C   0  0  0  0  0  0  0  0  0  0  0  0
   15.0260   -3.4277    6.9405 C   0  0  0  0  0  0  0  0  0  0  0  0
   16.2449   -2.9124    7.3763 C   0  0  0  0  0  0  0  0  0  0  0  0
   16.3830   -1.6162    7.6563 N   0  0  0  0  0  0  0  0  0  0  0  0
   13.8122   -2.8619    6.7153 N   0  0  0  0  0  0  0  0  0  0  0  0
   12.9661   -3.8297    6.2933 C   0  0  0  0  0  0  0  0  0  0  0  0
   13.6400   -5.0253    6.2504 N   0  0  0  0  0  0  0  0  0  0  0  0
  2  1  1  6  0  0  0
  2  3  1  0  0  0  0
  2  5  1  0  0  0  0
  3  4  1  0  0  0  0
  3 17  1  0  0  0  0
  5  6  1  0  0  0  0
  7  6  1  1  0  0  0
  7  8  1  0  0  0  0
  7  9  1  0  0  0  0
 10  9  1  1  0  0  0
 10 11  1  0  0  0  0
 10 12  1  0  0  0  0
 11 16  1  0  0  0  0
 12 13  1  6  0  0  0
 12 14  1  0  0  0  0
 14 15  1  6  0  0  0
 14 16  1  0  0  0  0
 16 27  1  1  0  0  0
 18 19  2  0  0  0  0
 18 23  1  0  0  0  0
 19 20  1  0  0  0  0
 20 21  2  0  0  0  0
 21 22  1  0  0  0  0
 21 27  1  0  0  0  0
 22 23  2  0  0  0  0
 22 25  1  0  0  0  0
 23 24  1  0  0  0  0
 25 26  2  0  0  0  0
 26 27  1  0  0  0  0
M  END
>  <CHROM.1>
-36.29265032,57.53758204,-171.78034739,-82.63385415,-83.20411386,36.91208487
63.13948436,14.54250285,-5.97248410,7.98887309,0.66316069,1.24570509,1.77790683

>  <Name>
ligand

>  <RI>
0

>  <Rbt.Current_Directory>
/home/itssahil/PROJECTS/Mol_Feturizer/New_Systems/rnas/3GX5

>  <Rbt.Executable>
rbdock ($Id: //depot/dev/client3/rdock/2013.1/src/exe/rbdock.cxx#4 $)

>  <Rbt.Library>
libRbt.so (2013.1, Build901 2013/11/27)

>  <Rbt.Parameter_File>
/export/apps/rDock/src/rDock_2013.1_src/data/scripts/dock_solv.prm

>  <Rbt.Receptor>
prm/pocket_docking_3.prm

>  <SCORE>
-14.7469

>  <SCORE.INTER>
-14.113

>  <SCORE.INTER.CONST>
1

>  <SCORE.INTER.POLAR>
0

>  <SCORE.INTER.ROT>
7

>  <SCORE.INTER.SOLV>
20.7299

>  <SCORE.INTER.VDW>
-24.5853

>  <SCORE.INTER.norm>
-0.522703

>  <SCORE.INTRA>
-0.633884

>  <SCORE.INTRA.DIHEDRAL>
2.18701

>  <SCORE.INTRA.DIHEDRAL.0>
4.28829

>  <SCORE.INTRA.POLAR>
0

>  <SCORE.INTRA.POLAR.0>
0

>  <SCORE.INTRA.REPUL>
0

>  <SCORE.INTRA.REPUL.0>
0

>  <SCORE.INTRA.SOLV>
1.22012

>  <SCORE.INTRA.SOLV.lig_0>
-48.6018

>  <SCORE.INTRA.VDW>
-2.33745

>  <SCORE.INTRA.VDW.0>
-2.1506

>  <SCORE.INTRA.norm>
-0.0234772

>  <SCORE.RESTR>
0

>  <SCORE.RESTR.CAVITY>
0

>  <SCORE.RESTR.norm>
0

>  <SCORE.SYSTEM>
0

>  <SCORE.SYSTEM.CONST>
0

>  <SCORE.SYSTEM.DIHEDRAL>
0

>  <SCORE.SYSTEM.SOLV>
0

>  <SCORE.SYSTEM.norm>
0

>  <SCORE.heavy>
27

>  <SCORE.norm>
-0.54618

>  <RMSD>
0.828

$$$$
ligand
 OpenBabel11021811483D
libRbt.so/2013.1/901 2013/11/27
 27 29  0  0  0  0  0  0  0  0999 V2000
   14.5380   -4.6764    9.9632 N   0  0  0  0  0  0  0  0  0  0  0  0
   13.7116   -5.2268   11.0392 C   0  0  2  0  0  0  0  0  0  0  0  0
   14.3662   -5.2730   12.4220 C   0  0  0  0  0  0  0  0  0  0  0  0
   15.2709   -4.4788   12.6761 O   0  0  0  0  0  0  0  0  0  0  0  0
   13.1664   -6.5937   10.6608 C   0  0  0  0  0  0  0  0  0  0  0  0
   14.1989   -7.6865   10.8779 C   0  0  0  0  0  0  0  0  0  0  0  0
   13.7456   -9.1788    9.9763 S   0  0  2  0  0  0  0  0  0  0  0  0
   14.8723  -10.3624   10.7436 C   0  0  0  0  0  0  0  0  0  0  0  0
   14.6177   -8.8997    8.4174 C   0  0  0  0  0  0  0  0  0  0  0  0
   13.6680   -8.3886    7.3497 C   0  0  1  0  0  0  0  0  0  0  0  0
   13.1930   -7.1039    7.6814 O   0  0  0  0  0  0  0  0  0  0  0  0
   14.3365   -8.2257    5.9988 C   0  0  1  0  0  0  0  0  0  0  0  0
   14.1468   -9.4091    5.2648 O   0  0  0  0  0  0  0  0  0  0  0  0
   13.5876   -7.0684    5.3698 C   0  0  1  0  0  0  0  0  0  0  0  0
   12.6437   -7.6143    4.4759 O   0  0  0  0  0  0  0  0  0  0  0  0
   12.8871   -6.3473    6.5234 C   0  0  2  0  0  0  0  0  0  0  0  0
   14.0314   -6.0769   13.2964 O   0  0  0  0  0  0  0  0  0  0  0  0
   17.2418   -3.6811    7.6835 N   0  0  0  0  0  0  0  0  0  0  0  0
   17.0945   -5.0411    7.5573 C   0  0  0  0  0  0  0  0  0  0  0  0
   15.8563   -5.5582    7.2456 N   0  0  0  0  0  0  0  0  0  0  0  0
   14.7879   -4.7510    7.0597 C   0  0  0  0  0  0  0  0  0  0  0  0
   14.9243   -3.3748    7.1701 C   0  0  0  0  0  0  0  0  0  0  0  0
   16.1680   -2.8372    7.4950 C   0  0  0  0  0  0  0  0  0  0  0  0
   16.3376   -1.5204    7.6166 N   0  0  0  0  0  0  0  0  0  0  0  0
   13.7112   -2.8144    6.9283 N   0  0  0  0  0  0  0  0  0  0  0  0
   12.8333   -3.8071    6.6553 C   0  0  0  0  0  0  0  0  0  0  0  0
   13.4862   -5.0131    6.7256 N   0  0  0  0  0  0  0  0  0  0  0  0
  2  1  1  6  0  0  0
  2  3  1  0  0  0  0
  2  5  1  0  0  0  0
  3  4  1  0  0  0  0
  3 17  1  0  0  0  0
  5  6  1  0  0  0  0
  7  6  1  1  0  0  0
  7  8  1  0  0  0  0
  7  9  1  0  0  0  0
 10  9  1  1  0  0  0
 10 11  1  0  0  0  0
 10 12  1  0  0  0  0
 11 16  1  0  0  0  0
 12 13  1  6  0  0  0
 12 14  1  0  0  0  0
 14 15  1  6  0  0  0
 14 16  1  0  0  0  0
 16 27  1  1  0  0  0
 18 19  2  0  0  0  0
 18 23  1  0  0  0  0
 19 20  1  0  0  0  0
 20 21  2  0  0  0  0
 21 22  1  0  0  0  0
 21 27  1  0  0  0  0
 22 23  2  0  0  0  0
 22 25  1  0  0  0  0
 23 24  1  0  0  0  0
 25 26  2  0  0  0  0
 26 27  1  0  0  0  0
M  END
>  <CHROM.1>
25.12992865,80.74912505,-162.60823307,-166.37341058,-100.38494651,66.36500665
52.53185642,14.36973646,-6.18960717,8.44222159,-1.99455425,-1.29486977,-1.32498003

>  <Name>
ligand

>  <RI>
0

>  <Rbt.Current_Directory>
/home/itssahil/PROJECTS/Mol_Feturizer/New_Systems/rnas/3GX5

>  <Rbt.Executable>
rbdock ($Id: //depot/dev/client3/rdock/2013.1/src/exe/rbdock.cxx#4 $)

>  <Rbt.Library>
libRbt.so (2013.1, Build901 2013/11/27)

>  <Rbt.Parameter_File>
/export/apps/rDock/src/rDock_2013.1_src/data/scripts/dock_solv.prm

>  <Rbt.Receptor>
prm/pocket_docking_2.prm

>  <SCORE>
-10.7058

>  <SCORE.INTER>
-13.4182

>  <SCORE.INTER.CONST>
1

>  <SCORE.INTER.POLAR>
0

>  <SCORE.INTER.ROT>
7

>  <SCORE.INTER.SOLV>
17.49

>  <SCORE.INTER.VDW>
-23.0422

>  <SCORE.INTER.norm>
-0.496972

>  <SCORE.INTRA>
2.71242

>  <SCORE.INTRA.DIHEDRAL>
5.406

>  <SCORE.INTRA.DIHEDRAL.0>
4.28829

>  <SCORE.INTRA.POLAR>
0

>  <SCORE.INTRA.POLAR.0>
0

>  <SCORE.INTRA.REPUL>
0

>  <SCORE.INTRA.REPUL.0>
0

>  <SCORE.INTRA.SOLV>
3.23639

>  <SCORE.INTRA.SOLV.lig_0>
-48.6018

>  <SCORE.INTRA.VDW>
-1.60877

>  <SCORE.INTRA.VDW.0>
-2.1506

>  <SCORE.INTRA.norm>
0.10046

>  <SCORE.RESTR>
0

>  <SCORE.RESTR.CAVITY>
0

>  <SCORE.RESTR.norm>
0

>  <SCORE.SYSTEM>
0

>  <SCORE.SYSTEM.CONST>
0

>  <SCORE.SYSTEM.DIHEDRAL>
0

>  <SCORE.SYSTEM.SOLV>
0

>  <SCORE.SYSTEM.norm>
0

>  <SCORE.heavy>
27

>  <SCORE.norm>
-0.396512

>  <RMSD>
0.848

$$$$
ligand
 OpenBabel11021811483D
libRbt.so/2013.1/901 2013/11/27
 27 29  0  0  0  0  0  0  0  0999 V2000
   13.3754   -5.1997   10.5890 N   0  0  0  0  0  0  0  0  0  0  0  0
   13.9365   -5.7408   11.8284 C   0  0  2  0  0  0  0  0  0  0  0  0
   15.4568   -5.6350   11.9710 C   0  0  0  0  0  0  0  0  0  0  0  0
   16.1030   -5.1207   11.0591 O   0  0  0  0  0  0  0  0  0  0  0  0
   13.4775   -7.1717   12.0535 C   0  0  0  0  0  0  0  0  0  0  0  0
   13.9698   -8.0958   10.9530 C   0  0  0  0  0  0  0  0  0  0  0  0
   12.8623   -8.0415    9.5332 S   0  0  2  0  0  0  0  0  0  0  0  0
   11.7815   -9.4332    9.9260 C   0  0  0  0  0  0  0  0  0  0  0  0
   13.9032   -8.8147    8.2733 C   0  0  0  0  0  0  0  0  0  0  0  0
   13.5220   -8.3327    6.8857 C   0  0  1  0  0  0  0  0  0  0  0  0
   12.9368   -7.0522    6.9482 O   0  0  0  0  0  0  0  0  0  0  0  0
   14.7196   -8.1752    5.9696 C   0  0  1  0  0  0  0  0  0  0  0  0
   14.8872   -9.3704    5.2496 O   0  0  0  0  0  0  0  0  0  0  0  0
   14.3171   -7.0383    5.0522 C   0  0  1  0  0  0  0  0  0  0  0  0
   13.8740   -7.6109    3.8423 O   0  0  0  0  0  0  0  0  0  0  0  0
   13.1701   -6.3150    5.7611 C   0  0  2  0  0  0  0  0  0  0  0  0
   16.0684   -6.0483   12.9599 O   0  0  0  0  0  0  0  0  0  0  0  0
   17.1405   -3.3976    7.5338 N   0  0  0  0  0  0  0  0  0  0  0  0
   17.1546   -4.7321    7.2085 C   0  0  0  0  0  0  0  0  0  0  0  0
   15.9975   -5.3274    6.7565 N   0  0  0  0  0  0  0  0  0  0  0  0
   14.8526   -4.6206    6.6256 C   0  0  0  0  0  0  0  0  0  0  0  0
   14.8262   -3.2689    6.9370 C   0  0  0  0  0  0  0  0  0  0  0  0
   15.9860   -2.6549    7.4052 C   0  0  0  0  0  0  0  0  0  0  0  0
   15.9991   -1.3597    7.7212 N   0  0  0  0  0  0  0  0  0  0  0  0
   13.5681   -2.8122    6.7077 N   0  0  0  0  0  0  0  0  0  0  0  0
   12.8213   -3.8422    6.2473 C   0  0  0  0  0  0  0  0  0  0  0  0
   13.6042   -4.9686    6.1838 N   0  0  0  0  0  0  0  0  0  0  0  0
  2  1  1  6  0  0  0
  2  3  1  0  0  0  0
  2  5  1  0  0  0  0
  3  4  1  0  0  0  0
  3 17  1  0  0  0  0
  5  6  1  0  0  0  0
  7  6  1  1  0  0  0
  7  8  1  0  0  0  0
  7  9  1  0  0  0  0
 10  9  1  1  0  0  0
 10 11  1  0  0  0  0
 10 12  1  0  0  0  0
 11 16  1  0  0  0  0
 12 13  1  6  0  0  0
 12 14  1  0  0  0  0
 14 15  1  6  0  0  0
 14 16  1  0  0  0  0
 16 27  1  1  0  0  0
 18 19  2  0  0  0  0
 18 23  1  0  0  0  0
 19 20  1  0  0  0  0
 20 21  2  0  0  0  0
 21 22  1  0  0  0  0
 21 27  1  0  0  0  0
 22 23  2  0  0  0  0
 22 25  1  0  0  0  0
 23 24  1  0  0  0  0
 25 26  2  0  0  0  0
 26 27  1  0  0  0  0
M  END
>  <CHROM.1>
-0.28595004,62.88580125,-84.10596294,-93.48982733,-153.15717278,26.23495954
78.38249443,14.36755709,-6.10836431,8.17454394,-1.76751287,-1.14541894,-1.47120144

>  <Name>
ligand

>  <RI>
0

>  <Rbt.Current_Directory>
/home/itssahil/PROJECTS/Mol_Feturizer/New_Systems/rnas/3GX5

>  <Rbt.Executable>
rbdock ($Id: //depot/dev/client3/rdock/2013.1/src/exe/rbdock.cxx#4 $)

>  <Rbt.Library>
libRbt.so (2013.1, Build901 2013/11/27)

>  <Rbt.Parameter_File>
/export/apps/rDock/src/rDock_2013.1_src/data/scripts/dock_solv.prm

>  <Rbt.Receptor>
prm/pocket_docking_2.prm

>  <SCORE>
-8.21517

>  <SCORE.INTER>
-13.058

>  <SCORE.INTER.CONST>
1

>  <SCORE.INTER.POLAR>
0

>  <SCORE.INTER.ROT>
7

>  <SCORE.INTER.SOLV>
19.4608

>  <SCORE.INTER.VDW>
-23.4589

>  <SCORE.INTER.norm>
-0.48363

>  <SCORE.INTRA>
4.80884

>  <SCORE.INTRA.DIHEDRAL>
8.46128

>  <SCORE.INTRA.DIHEDRAL.0>
4.28829

>  <SCORE.INTRA.POLAR>
0

>  <SCORE.INTRA.POLAR.0>
0

>  <SCORE.INTRA.REPUL>
0.0877019

>  <SCORE.INTRA.REPUL.0>
0

>  <SCORE.INTRA.SOLV>
1.20427

>  <SCORE.INTRA.SOLV.lig_0>
-48.6018

>  <SCORE.INTRA.VDW>
-0.462444

>  <SCORE.INTRA.VDW.0>
-2.1506

>  <SCORE.INTRA.norm>
0.178105

>  <SCORE.RESTR>
0.0339979

>  <SCORE.RESTR.CAVITY>
0.0339979

>  <SCORE.RESTR.norm>
0.00125918

>  <SCORE.SYSTEM>
0

>  <SCORE.SYSTEM.CONST>
0

>  <SCORE.SYSTEM.DIHEDRAL>
0

>  <SCORE.SYSTEM.SOLV>
0

>  <SCORE.SYSTEM.norm>
0

>  <SCORE.heavy>
27

>  <SCORE.norm>
-0.304265

>  <RMSD>
0.870

$$$$
ligand
 OpenBabel11021811483D
libRbt.so/2013.1/901 2013/11/27
 27 29  0  0  0  0  0  0  0  0999 V2000
   13.7871   -4.4365   10.4590 N   0  0  0  0  0  0  0  0  0  0  0  0
   13.4542   -5.3924   11.5170 C   0  0  2  0  0  0  0  0  0  0  0  0
   14.5844   -5.7198   12.4959 C   0  0  0  0  0  0  0  0  0  0  0  0
   14.3360   -6.4249   13.4731 O   0  0  0  0  0  0  0  0  0  0  0  0
   12.8677   -6.6668   10.9332 C   0  0  0  0  0  0  0  0  0  0  0  0
   13.7281   -7.2126    9.8066 C   0  0  0  0  0  0  0  0  0  0  0  0
   13.0912   -8.7956    9.2289 S   0  0  2  0  0  0  0  0  0  0  0  0
   13.8687   -9.9013   10.4256 C   0  0  0  0  0  0  0  0  0  0  0  0
   14.1690   -9.0853    7.8065 C   0  0  0  0  0  0  0  0  0  0  0  0
   13.5713   -8.4911    6.5444 C   0  0  1  0  0  0  0  0  0  0  0  0
   13.0322   -7.2150    6.8035 O   0  0  0  0  0  0  0  0  0  0  0  0
   14.6017   -8.2705    5.4546 C   0  0  1  0  0  0  0  0  0  0  0  0
   14.6209   -9.4058    4.6264 O   0  0  0  0  0  0  0  0  0  0  0  0
   14.0757   -7.0608    4.7088 C   0  0  1  0  0  0  0  0  0  0  0  0
   13.4243   -7.5314    3.5503 O   0  0  0  0  0  0  0  0  0  0  0  0
   13.0792   -6.3873    5.6547 C   0  0  2  0  0  0  0  0  0  0  0  0
   15.7372   -5.3033   12.3534 O   0  0  0  0  0  0  0  0  0  0  0  0
   17.2674   -3.7688    7.3928 N   0  0  0  0  0  0  0  0  0  0  0  0
   17.1906   -5.0920    7.0314 C   0  0  0  0  0  0  0  0  0  0  0  0
   15.9874   -5.6025    6.5963 N   0  0  0  0  0  0  0  0  0  0  0  0
   14.8852   -4.8238    6.5168 C   0  0  0  0  0  0  0  0  0  0  0  0
   14.9505   -3.4825    6.8650 C   0  0  0  0  0  0  0  0  0  0  0  0
   16.1579   -2.9539    7.3167 C   0  0  0  0  0  0  0  0  0  0  0  0
   16.2592   -1.6714    7.6669 N   0  0  0  0  0  0  0  0  0  0  0  0
   13.7173   -2.9436    6.6835 N   0  0  0  0  0  0  0  0  0  0  0  0
   12.8965   -3.9127    6.2168 C   0  0  0  0  0  0  0  0  0  0  0  0
   13.6065   -5.0824    6.1010 N   0  0  0  0  0  0  0  0  0  0  0  0
  2  1  1  6  0  0  0
  2  3  1  0  0  0  0
  2  5  1  0  0  0  0
  3  4  1  0  0  0  0
  3 17  1  0  0  0  0
  5  6  1  0  0  0  0
  7  6  1  1  0  0  0
  7  8  1  0  0  0  0
  7  9  1  0  0  0  0
 10  9  1  1  0  0  0
 10 11  1  0  0  0  0
 10 12  1  0  0  0  0
 11 16  1  0  0  0  0
 12 13  1  6  0  0  0
 12 14  1  0  0  0  0
 14 15  1  6  0  0  0
 14 16  1  0  0  0  0
 16 27  1  1  0  0  0
 18 19  2  0  0  0  0
 18 23  1  0  0  0  0
 19 20  1  0  0  0  0
 20 21  2  0  0  0  0
 21 22  1  0  0  0  0
 21 27  1  0  0  0  0
 22 23  2  0  0  0  0
 22 25  1  0  0  0  0
 23 24  1  0  0  0  0
 25 26  2  0  0  0  0
 26 27  1  0  0  0  0
M  END
>  <CHROM.1>
173.78751938,49.70654157,175.06239602,-84.46514016,-89.80044863,42.61564595
69.35086366,14.32523906,-6.22961148,8.02747803,-1.58075442,-1.22958082,-1.62895304

>  <Name>
ligand

>  <RI>
0

>  <Rbt.Current_Directory>
/home/itssahil/PROJECTS/Mol_Feturizer/New_Systems/rnas/3GX5

>  <Rbt.Executable>
rbdock ($Id: //depot/dev/client3/rdock/2013.1/src/exe/rbdock.cxx#4 $)

>  <Rbt.Library>
libRbt.so (2013.1, Build901 2013/11/27)

>  <Rbt.Parameter_File>
/export/apps/rDock/src/rDock_2013.1_src/data/scripts/dock_solv.prm

>  <Rbt.Receptor>
prm/pocket_docking_4.prm

>  <SCORE>
-15.4124

>  <SCORE.INTER>
-15.5924

>  <SCORE.INTER.CONST>
1

>  <SCORE.INTER.POLAR>
0

>  <SCORE.INTER.ROT>
7

>  <SCORE.INTER.SOLV>
20.2715

>  <SCORE.INTER.VDW>
-25.4187

>  <SCORE.INTER.norm>
-0.577495

>  <SCORE.INTRA>
0.180024

>  <SCORE.INTRA.DIHEDRAL>
2.45959

>  <SCORE.INTRA.DIHEDRAL.0>
4.28829

>  <SCORE.INTRA.POLAR>
0

>  <SCORE.INTRA.POLAR.0>
0

>  <SCORE.INTRA.REPUL>
0

>  <SCORE.INTRA.REPUL.0>
0

>  <SCORE.INTRA.SOLV>
-0.291325

>  <SCORE.INTRA.SOLV.lig_0>
-48.6018

>  <SCORE.INTRA.VDW>
-0.90411

>  <SCORE.INTRA.VDW.0>
-2.1506

>  <SCORE.INTRA.norm>
0.00666755

>  <SCORE.RESTR>
0

>  <SCORE.RESTR.CAVITY>
0

>  <SCORE.RESTR.norm>
0

>  <SCORE.SYSTEM>
0

>  <SCORE.SYSTEM.CONST>
0

>  <SCORE.SYSTEM.DIHEDRAL>
0

>  <SCORE.SYSTEM.SOLV>
0

>  <SCORE.SYSTEM.norm>
0

>  <SCORE.heavy>
27

>  <SCORE.norm>
-0.570828

>  <RMSD>
0.909

$$$$
ligand
 OpenBabel11021811483D
libRbt.so/2013.1/901 2013/11/27
 27 29  0  0  0  0  0  0  0  0999 V2000
   13.7616   -4.5467   10.6798 N   0  0  0  0  0  0  0  0  0  0  0  0
   13.4213   -5.5583   11.6821 C   0  0  2  0  0  0  0  0  0  0  0  0
   14.5412   -5.9308   12.6566 C   0  0  0  0  0  0  0  0  0  0  0  0
   14.2596   -6.5820   13.6618 O   0  0  0  0  0  0  0  0  0  0  0  0
   12.8492   -6.8033   11.0251 C   0  0  0  0  0  0  0  0  0  0  0  0
   13.7217   -7.2799    9.8767 C   0  0  0  0  0  0  0  0  0  0  0  0
   13.1498   -8.8735    9.2614 S   0  0  2  0  0  0  0  0  0  0  0  0
   14.0034   -9.9763   10.4078 C   0  0  0  0  0  0  0  0  0  0  0  0
   14.2111   -9.0669    7.8106 C   0  0  0  0  0  0  0  0  0  0  0  0
   13.5563   -8.4718    6.5776 C   0  0  1  0  0  0  0  0  0  0  0  0
   13.0010   -7.2100    6.8703 O   0  0  0  0  0  0  0  0  0  0  0  0
   14.5421   -8.2184    5.4541 C   0  0  1  0  0  0  0  0  0  0  0  0
   14.5546   -9.3441    4.6129 O   0  0  0  0  0  0  0  0  0  0  0  0
   13.9651   -7.0120    4.7414 C   0  0  1  0  0  0  0  0  0  0  0  0
   13.2820   -7.4837    3.6017 O   0  0  0  0  0  0  0  0  0  0  0  0
   12.9898   -6.3694    5.7300 C   0  0  2  0  0  0  0  0  0  0  0  0
   15.7181   -5.6025   12.4836 O   0  0  0  0  0  0  0  0  0  0  0  0
   17.1878   -3.6786    7.3283 N   0  0  0  0  0  0  0  0  0  0  0  0
   17.1254   -4.9984    6.9522 C   0  0  0  0  0  0  0  0  0  0  0  0
   15.9167   -5.5306    6.5606 N   0  0  0  0  0  0  0  0  0  0  0  0
   14.7950   -4.7763    6.5377 C   0  0  0  0  0  0  0  0  0  0  0  0
   14.8450   -3.4385    6.9013 C   0  0  0  0  0  0  0  0  0  0  0  0
   16.0582   -2.8883    7.3097 C   0  0  0  0  0  0  0  0  0  0  0  0
   16.1455   -1.6085    7.6731 N   0  0  0  0  0  0  0  0  0  0  0  0
   13.5936   -2.9256    6.7788 N   0  0  0  0  0  0  0  0  0  0  0  0
   12.7758   -3.9071    6.3334 C   0  0  0  0  0  0  0  0  0  0  0  0
   13.5061   -5.0587    6.1720 N   0  0  0  0  0  0  0  0  0  0  0  0
  2  1  1  6  0  0  0
  2  3  1  0  0  0  0
  2  5  1  0  0  0  0
  3  4  1  0  0  0  0
  3 17  1  0  0  0  0
  5  6  1  0  0  0  0
  7  6  1  1  0  0  0
  7  8  1  0  0  0  0
  7  9  1  0  0  0  0
 10  9  1  1  0  0  0
 10 11  1  0  0  0  0
 10 12  1  0  0  0  0
 11 16  1  0  0  0  0
 12 13  1  6  0  0  0
 12 14  1  0  0  0  0
 14 15  1  6  0  0  0
 14 16  1  0  0  0  0
 16 27  1  1  0  0  0
 18 19  2  0  0  0  0
 18 23  1  0  0  0  0
 19 20  1  0  0  0  0
 20 21  2  0  0  0  0
 21 22  1  0  0  0  0
 21 27  1  0  0  0  0
 22 23  2  0  0  0  0
 22 25  1  0  0  0  0
 23 24  1  0  0  0  0
 25 26  2  0  0  0  0
 26 27  1  0  0  0  0
M  END
>  <CHROM.1>
166.94679352,49.33845778,172.28585606,-85.13569928,-90.15931215,44.88644370
69.72849429,14.27728939,-6.25348221,8.08114745,-1.63277209,-1.25020720,-1.57354388

>  <Name>
ligand

>  <RI>
0

>  <Rbt.Current_Directory>
/home/itssahil/PROJECTS/Mol_Feturizer/New_Systems/rnas/3GX5

>  <Rbt.Executable>
rbdock ($Id: //depot/dev/client3/rdock/2013.1/src/exe/rbdock.cxx#4 $)

>  <Rbt.Library>
libRbt.so (2013.1, Build901 2013/11/27)

>  <Rbt.Parameter_File>
/export/apps/rDock/src/rDock_2013.1_src/data/scripts/dock_solv.prm

>  <Rbt.Receptor>
prm/pocket_docking_6.prm

>  <SCORE>
-15.377

>  <SCORE.INTER>
-15.5629

>  <SCORE.INTER.CONST>
1

>  <SCORE.INTER.POLAR>
0

>  <SCORE.INTER.ROT>
7

>  <SCORE.INTER.SOLV>
20.5612

>  <SCORE.INTER.VDW>
-25.4957

>  <SCORE.INTER.norm>
-0.576405

>  <SCORE.INTRA>
0.185892

>  <SCORE.INTRA.DIHEDRAL>
2.47825

>  <SCORE.INTRA.DIHEDRAL.0>
4.28829

>  <SCORE.INTRA.POLAR>
0

>  <SCORE.INTRA.POLAR.0>
0

>  <SCORE.INTRA.REPUL>
0

>  <SCORE.INTRA.REPUL.0>
0

>  <SCORE.INTRA.SOLV>
-0.364674

>  <SCORE.INTRA.SOLV.lig_0>
-48.6018

>  <SCORE.INTRA.VDW>
-0.870896

>  <SCORE.INTRA.VDW.0>
-2.1506

>  <SCORE.INTRA.norm>
0.00688489

>  <SCORE.RESTR>
0

>  <SCORE.RESTR.CAVITY>
0

>  <SCORE.RESTR.norm>
0

>  <SCORE.SYSTEM>
0

>  <SCORE.SYSTEM.CONST>
0

>  <SCORE.SYSTEM.DIHEDRAL>
0

>  <SCORE.SYSTEM.SOLV>
0

>  <SCORE.SYSTEM.norm>
0

>  <SCORE.heavy>
27

>  <SCORE.norm>
-0.56952

>  <RMSD>
0.940

$$$$
ligand
 OpenBabel11021811483D
libRbt.so/2013.1/901 2013/11/27
 27 29  0  0  0  0  0  0  0  0999 V2000
   16.0368   -5.0334   10.7926 N   0  0  0  0  0  0  0  0  0  0  0  0
   14.8181   -5.7433   11.1858 C   0  0  2  0  0  0  0  0  0  0  0  0
   14.6613   -6.0142   12.6841 C   0  0  0  0  0  0  0  0  0  0  0  0
   14.6653   -5.0610   13.4621 O   0  0  0  0  0  0  0  0  0  0  0  0
   14.6574   -7.0285   10.3913 C   0  0  0  0  0  0  0  0  0  0  0  0
   13.1941   -7.3908   10.2049 C   0  0  0  0  0  0  0  0  0  0  0  0
   13.0307   -9.0538    9.5318 S   0  0  2  0  0  0  0  0  0  0  0  0
   14.0382   -9.9712   10.7160 C   0  0  0  0  0  0  0  0  0  0  0  0
   14.1941   -8.9661    8.1507 C   0  0  0  0  0  0  0  0  0  0  0  0
   13.5169   -8.4227    6.9060 C   0  0  1  0  0  0  0  0  0  0  0  0
   12.9493   -7.1584    7.1615 O   0  0  0  0  0  0  0  0  0  0  0  0
   14.4857   -8.1967    5.7620 C   0  0  1  0  0  0  0  0  0  0  0  0
   14.5022   -9.3511    4.9606 O   0  0  0  0  0  0  0  0  0  0  0  0
   13.8848   -7.0233    5.0150 C   0  0  1  0  0  0  0  0  0  0  0  0
   13.1940   -7.5430    3.9012 O   0  0  0  0  0  0  0  0  0  0  0  0
   12.9135   -6.3584    5.9927 C   0  0  2  0  0  0  0  0  0  0  0  0
   14.5362   -7.1495   13.1512 O   0  0  0  0  0  0  0  0  0  0  0  0
   17.0966   -3.5616    7.4411 N   0  0  0  0  0  0  0  0  0  0  0  0
   17.0464   -4.8943    7.1119 C   0  0  0  0  0  0  0  0  0  0  0  0
   15.8397   -5.4549    6.7549 N   0  0  0  0  0  0  0  0  0  0  0  0
   14.7083   -4.7159    6.7208 C   0  0  0  0  0  0  0  0  0  0  0  0
   14.7456   -3.3656    7.0371 C   0  0  0  0  0  0  0  0  0  0  0  0
   15.9567   -2.7865    7.4101 C   0  0  0  0  0  0  0  0  0  0  0  0
   16.0321   -1.4938    7.7277 N   0  0  0  0  0  0  0  0  0  0  0  0
   13.4862   -2.8729    6.9135 N   0  0  0  0  0  0  0  0  0  0  0  0
   12.6755   -3.8794    6.5132 C   0  0  0  0  0  0  0  0  0  0  0  0
   13.4185   -5.0268    6.3821 N   0  0  0  0  0  0  0  0  0  0  0  0
  2  1  1  1  0  0  0
  2  3  1  0  0  0  0
  2  5  1  0  0  0  0
  3  4  1  0  0  0  0
  3 17  1  0  0  0  0
  5  6  1  0  0  0  0
  7  6  1  1  0  0  0
  7  8  1  0  0  0  0
  7  9  1  0  0  0  0
 10  9  1  1  0  0  0
 10 11  1  0  0  0  0
 10 12  1  0  0  0  0
 11 16  1  0  0  0  0
 12 13  1  6  0  0  0
 12 14  1  0  0  0  0
 14 15  1  6  0  0  0
 14 16  1  0  0  0  0
 16 27  1  1  0  0  0
 18 19  2  0  0  0  0
 18 23  1  0  0  0  0
 19 20  1  0  0  0  0
 20 21  2  0  0  0  0
 21 22  1  0  0  0  0
 21 27  1  0  0  0  0
 22 23  2  0  0  0  0
 22 25  1  0  0  0  0
 23 24  1  0  0  0  0
 25 26  2  0  0  0  0
 26 27  1  0  0  0  0
M  END
>  <CHROM.1>
58.08952522,-150.12380331,-169.66722717,52.70891936,-86.96433962,56.71287529
69.77049636,14.36660380,-6.27671699,8.25024178,-1.50392457,-1.23129103,-1.30490831

>  <Name>
ligand

>  <RI>
0

>  <Rbt.Current_Directory>
/home/itssahil/PROJECTS/Mol_Feturizer/New_Systems/rnas/3GX5

>  <Rbt.Executable>
rbdock ($Id: //depot/dev/client3/rdock/2013.1/src/exe/rbdock.cxx#4 $)

>  <Rbt.Library>
libRbt.so (2013.1, Build901 2013/11/27)

>  <Rbt.Parameter_File>
/export/apps/rDock/src/rDock_2013.1_src/data/scripts/dock_solv.prm

>  <Rbt.Receptor>
prm/pocket_docking_2.prm

>  <SCORE>
-12.1885

>  <SCORE.INTER>
-14.1644

>  <SCORE.INTER.CONST>
1

>  <SCORE.INTER.POLAR>
0

>  <SCORE.INTER.ROT>
7

>  <SCORE.INTER.SOLV>
16.5599

>  <SCORE.INTER.VDW>
-23.2295

>  <SCORE.INTER.norm>
-0.524606

>  <SCORE.INTRA>
1.79114

>  <SCORE.INTRA.DIHEDRAL>
3.01876

>  <SCORE.INTRA.DIHEDRAL.0>
4.28829

>  <SCORE.INTRA.POLAR>
0

>  <SCORE.INTRA.POLAR.0>
0

>  <SCORE.INTRA.REPUL>
0

>  <SCORE.INTRA.REPUL.0>
0

>  <SCORE.INTRA.SOLV>
-0.847465

>  <SCORE.INTRA.SOLV.lig_0>
-48.6018

>  <SCORE.INTRA.VDW>
0.705494

>  <SCORE.INTRA.VDW.0>
-2.1506

>  <SCORE.INTRA.norm>
0.0663386

>  <SCORE.RESTR>
0.184749

>  <SCORE.RESTR.CAVITY>
0.184749

>  <SCORE.RESTR.norm>
0.00684257

>  <SCORE.SYSTEM>
0

>  <SCORE.SYSTEM.CONST>
0

>  <SCORE.SYSTEM.DIHEDRAL>
0

>  <SCORE.SYSTEM.SOLV>
0

>  <SCORE.SYSTEM.norm>
0

>  <SCORE.heavy>
27

>  <SCORE.norm>
-0.451425

>  <RMSD>
0.999

$$$$
ligand
 OpenBabel11021811483D
libRbt.so/2013.1/901 2013/11/27
 27 29  0  0  0  0  0  0  0  0999 V2000
   13.1989   -5.8861   11.2552 N   0  0  0  0  0  0  0  0  0  0  0  0
   14.1408   -6.5116   12.1854 C   0  0  2  0  0  0  0  0  0  0  0  0
   15.5847   -6.0099   12.1061 C   0  0  0  0  0  0  0  0  0  0  0  0
   15.8575   -5.1135   11.3088 O   0  0  0  0  0  0  0  0  0  0  0  0
   14.0947   -8.0259   12.0692 C   0  0  0  0  0  0  0  0  0  0  0  0
   14.5714   -8.4962   10.7058 C   0  0  0  0  0  0  0  0  0  0  0  0
   13.3143   -8.1915    9.4519 S   0  0  2  0  0  0  0  0  0  0  0  0
   12.1604   -9.5260    9.8349 C   0  0  0  0  0  0  0  0  0  0  0  0
   14.1214   -8.8993    7.9971 C   0  0  0  0  0  0  0  0  0  0  0  0
   13.5086   -8.3554    6.7197 C   0  0  1  0  0  0  0  0  0  0  0  0
   12.9684   -7.0718    6.9356 O   0  0  0  0  0  0  0  0  0  0  0  0
   14.5268   -8.1740    5.6113 C   0  0  1  0  0  0  0  0  0  0  0  0
   14.5407   -9.3401    4.8270 O   0  0  0  0  0  0  0  0  0  0  0  0
   13.9893   -6.9952    4.8255 C   0  0  1  0  0  0  0  0  0  0  0  0
   13.3271   -7.5115    3.6928 O   0  0  0  0  0  0  0  0  0  0  0  0
   13.0008   -6.2886    5.7555 C   0  0  2  0  0  0  0  0  0  0  0  0
   16.4936   -6.4683   12.8036 O   0  0  0  0  0  0  0  0  0  0  0  0
   17.0621   -3.6621    7.7617 N   0  0  0  0  0  0  0  0  0  0  0  0
   16.9698   -5.0099    7.5130 C   0  0  0  0  0  0  0  0  0  0  0  0
   15.8062   -5.5180    6.9785 N   0  0  0  0  0  0  0  0  0  0  0  0
   14.7581   -4.7132    6.6931 C   0  0  0  0  0  0  0  0  0  0  0  0
   14.8415   -3.3481    6.9257 C   0  0  0  0  0  0  0  0  0  0  0  0
   16.0081   -2.8207    7.4755 C   0  0  0  0  0  0  0  0  0  0  0  0
   16.1242   -1.5151    7.7198 N   0  0  0  0  0  0  0  0  0  0  0  0
   13.6650   -2.7870    6.5446 N   0  0  0  0  0  0  0  0  0  0  0  0
   12.8637   -3.7673    6.0676 C   0  0  0  0  0  0  0  0  0  0  0  0
   13.5287   -4.9661    6.1459 N   0  0  0  0  0  0  0  0  0  0  0  0
  2  1  1  6  0  0  0
  2  3  1  0  0  0  0
  2  5  1  0  0  0  0
  3  4  1  0  0  0  0
  3 17  1  0  0  0  0
  5  6  1  0  0  0  0
  7  6  1  1  0  0  0
  7  8  1  0  0  0  0
  7  9  1  0  0  0  0
 10  9  1  1  0  0  0
 10 11  1  0  0  0  0
 10 12  1  0  0  0  0
 11 16  1  0  0  0  0
 12 13  1  6  0  0  0
 12 14  1  0  0  0  0
 14 15  1  6  0  0  0
 14 16  1  0  0  0  0
 16 27  1  1  0  0  0
 18 19  2  0  0  0  0
 18 23  1  0  0  0  0
 19 20  1  0  0  0  0
 20 21  2  0  0  0  0
 21 22  1  0  0  0  0
 21 27  1  0  0  0  0
 22 23  2  0  0  0  0
 22 25  1  0  0  0  0
 23 24  1  0  0  0  0
 25 26  2  0  0  0  0
 26 27  1  0  0  0  0
M  END
>  <CHROM.1>
1.59178390,64.95599330,-75.07031749,-75.96996500,-160.01171231,27.34795120
60.72820670,14.41336222,-6.28257456,8.15731973,-1.37728207,-1.15640115,-1.17989669

>  <Name>
ligand

>  <RI>
0

>  <Rbt.Current_Directory>
/home/itssahil/PROJECTS/Mol_Feturizer/New_Systems/rnas/3GX5

>  <Rbt.Executable>
rbdock ($Id: //depot/dev/client3/rdock/2013.1/src/exe/rbdock.cxx#4 $)

>  <Rbt.Library>
libRbt.so (2013.1, Build901 2013/11/27)

>  <Rbt.Parameter_File>
/export/apps/rDock/src/rDock_2013.1_src/data/scripts/dock_solv.prm

>  <Rbt.Receptor>
prm/pocket_docking_2.prm

>  <SCORE>
-9.46969

>  <SCORE.INTER>
-12.4232

>  <SCORE.INTER.CONST>
1

>  <SCORE.INTER.POLAR>
0

>  <SCORE.INTER.ROT>
7

>  <SCORE.INTER.SOLV>
18.623

>  <SCORE.INTER.VDW>
-22.7564

>  <SCORE.INTER.norm>
-0.460117

>  <SCORE.INTRA>
2.95346

>  <SCORE.INTRA.DIHEDRAL>
5.16743

>  <SCORE.INTRA.DIHEDRAL.0>
4.28829

>  <SCORE.INTRA.POLAR>
0

>  <SCORE.INTRA.POLAR.0>
0

>  <SCORE.INTRA.REPUL>
0

>  <SCORE.INTRA.REPUL.0>
0

>  <SCORE.INTRA.SOLV>
1.4027

>  <SCORE.INTRA.SOLV.lig_0>
-48.6018

>  <SCORE.INTRA.VDW>
-0.331599

>  <SCORE.INTRA.VDW.0>
-2.1506

>  <SCORE.INTRA.norm>
0.109388

>  <SCORE.RESTR>
0

>  <SCORE.RESTR.CAVITY>
0

>  <SCORE.RESTR.norm>
0

>  <SCORE.SYSTEM>
0

>  <SCORE.SYSTEM.CONST>
0

>  <SCORE.SYSTEM.DIHEDRAL>
0

>  <SCORE.SYSTEM.SOLV>
0

>  <SCORE.SYSTEM.norm>
0

>  <SCORE.heavy>
27

>  <SCORE.norm>
-0.350729

>  <RMSD>
1.024

$$$$
ligand
 OpenBabel11021811483D
libRbt.so/2013.1/901 2013/11/27
 27 29  0  0  0  0  0  0  0  0999 V2000
   12.8201   -5.8247   11.9213 N   0  0  0  0  0  0  0  0  0  0  0  0
   13.8059   -6.7139   11.3038 C   0  0  2  0  0  0  0  0  0  0  0  0
   15.2725   -6.3708   11.5762 C   0  0  0  0  0  0  0  0  0  0  0  0
   16.1483   -7.0096   10.9943 O   0  0  0  0  0  0  0  0  0  0  0  0
   13.5573   -6.8474    9.8107 C   0  0  0  0  0  0  0  0  0  0  0  0
   12.2965   -7.6444    9.5234 C   0  0  0  0  0  0  0  0  0  0  0  0
   12.7050   -9.3353    9.0554 S   0  0  2  0  0  0  0  0  0  0  0  0
   13.6553   -9.8404   10.5048 C   0  0  0  0  0  0  0  0  0  0  0  0
   14.0597   -9.0382    7.8955 C   0  0  0  0  0  0  0  0  0  0  0  0
   13.5378   -8.4764    6.5859 C   0  0  1  0  0  0  0  0  0  0  0  0
   13.0111   -7.1830    6.7752 O   0  0  0  0  0  0  0  0  0  0  0  0
   14.6259   -8.3109    5.5432 C   0  0  1  0  0  0  0  0  0  0  0  0
   14.6648   -9.4737    4.7549 O   0  0  0  0  0  0  0  0  0  0  0  0
   14.1615   -7.1181    4.7324 C   0  0  1  0  0  0  0  0  0  0  0  0
   13.5602   -7.6159    3.5583 O   0  0  0  0  0  0  0  0  0  0  0  0
   13.1319   -6.3955    5.6038 C   0  0  2  0  0  0  0  0  0  0  0  0
   15.6195   -5.4830   12.3599 O   0  0  0  0  0  0  0  0  0  0  0  0
   17.2425   -3.8131    7.5662 N   0  0  0  0  0  0  0  0  0  0  0  0
   17.1545   -5.1493    7.2598 C   0  0  0  0  0  0  0  0  0  0  0  0
   15.9758   -5.6468    6.7490 N   0  0  0  0  0  0  0  0  0  0  0  0
   14.9087   -4.8429    6.5425 C   0  0  0  0  0  0  0  0  0  0  0  0
   14.9871   -3.4888    6.8340 C   0  0  0  0  0  0  0  0  0  0  0  0
   16.1691   -2.9726    7.3609 C   0  0  0  0  0  0  0  0  0  0  0  0
   16.2812   -1.6782    7.6601 N   0  0  0  0  0  0  0  0  0  0  0  0
   13.7904   -2.9256    6.5259 N   0  0  0  0  0  0  0  0  0  0  0  0
   12.9810   -3.8929    6.0364 C   0  0  0  0  0  0  0  0  0  0  0  0
   13.6612   -5.0858    6.0333 N   0  0  0  0  0  0  0  0  0  0  0  0
  2  1  1  6  0  0  0
  2  3  1  0  0  0  0
  2  5  1  0  0  0  0
  3  4  1  0  0  0  0
  3 17  1  0  0  0  0
  5  6  1  0  0  0  0
  7  6  1  1  0  0  0
  7  8  1  0  0  0  0
  7  9  1  0  0  0  0
 10  9  1  1  0  0  0
 10 11  1  0  0  0  0
 10 12  1  0  0  0  0
 11 16  1  0  0  0  0
 12 13  1  6  0  0  0
 12 14  1  0  0  0  0
 14 15  1  6  0  0  0
 14 16  1  0  0  0  0
 16 27  1  1  0  0  0
 18 19  2  0  0  0  0
 18 23  1  0  0  0  0
 19 20  1  0  0  0  0
 20 21  2  0  0  0  0
 21 22  1  0  0  0  0
 21 27  1  0  0  0  0
 22 23  2  0  0  0  0
 22 25  1  0  0  0  0
 23 24  1  0  0  0  0
 25 26  2  0  0  0  0
 26 27  1  0  0  0  0
M  END
>  <CHROM.1>
-173.88120571,-70.35640941,-101.31735452,56.89114657,-73.14895437,67.03895736
67.24919982,14.34093524,-6.45052122,7.89861773,-2.07061647,-1.16280340,-1.44771735

>  <Name>
ligand

>  <RI>
0

>  <Rbt.Current_Directory>
/home/itssahil/PROJECTS/Mol_Feturizer/New_Systems/rnas/3GX5

>  <Rbt.Executable>
rbdock ($Id: //depot/dev/client3/rdock/2013.1/src/exe/rbdock.cxx#4 $)

>  <Rbt.Library>
libRbt.so (2013.1, Build901 2013/11/27)

>  <Rbt.Parameter_File>
/export/apps/rDock/src/rDock_2013.1_src/data/scripts/dock_solv.prm

>  <Rbt.Receptor>
prm/pocket_docking_2.prm

>  <SCORE>
-10.0581

>  <SCORE.INTER>
-13.1642

>  <SCORE.INTER.CONST>
1

>  <SCORE.INTER.POLAR>
0

>  <SCORE.INTER.ROT>
7

>  <SCORE.INTER.SOLV>
20.0298

>  <SCORE.INTER.VDW>
-23.7194

>  <SCORE.INTER.norm>
-0.487564

>  <SCORE.INTRA>
3.04532

>  <SCORE.INTRA.DIHEDRAL>
4.19983

>  <SCORE.INTRA.DIHEDRAL.0>
4.28829

>  <SCORE.INTRA.POLAR>
0

>  <SCORE.INTRA.POLAR.0>
0

>  <SCORE.INTRA.REPUL>
0

>  <SCORE.INTRA.REPUL.0>
0

>  <SCORE.INTRA.SOLV>
-0.0282074

>  <SCORE.INTRA.SOLV.lig_0>
-48.6018

>  <SCORE.INTRA.VDW>
0.959503

>  <SCORE.INTRA.VDW.0>
-2.1506

>  <SCORE.INTRA.norm>
0.112789

>  <SCORE.RESTR>
0.0608447

>  <SCORE.RESTR.CAVITY>
0.0608447

>  <SCORE.RESTR.norm>
0.00225351

>  <SCORE.SYSTEM>
0

>  <SCORE.SYSTEM.CONST>
0

>  <SCORE.SYSTEM.DIHEDRAL>
0

>  <SCORE.SYSTEM.SOLV>
0

>  <SCORE.SYSTEM.norm>
0

>  <SCORE.heavy>
27

>  <SCORE.norm>
-0.372521

>  <RMSD>
1.088

$$$$
ligand
 OpenBabel11021811483D
libRbt.so/2013.1/901 2013/11/27
 27 29  0  0  0  0  0  0  0  0999 V2000
   14.7041   -4.8682   10.8471 N   0  0  0  0  0  0  0  0  0  0  0  0
   14.6427   -5.9717   11.8076 C   0  0  2  0  0  0  0  0  0  0  0  0
   14.8351   -5.5855   13.2761 C   0  0  0  0  0  0  0  0  0  0  0  0
   15.4495   -4.5532   13.5416 O   0  0  0  0  0  0  0  0  0  0  0  0
   15.6010   -7.0848   11.4184 C   0  0  0  0  0  0  0  0  0  0  0  0
   15.5287   -7.3900    9.9322 C   0  0  0  0  0  0  0  0  0  0  0  0
   14.2485   -8.6117    9.5947 S   0  0  2  0  0  0  0  0  0  0  0  0
   14.8643   -9.9914   10.5828 C   0  0  0  0  0  0  0  0  0  0  0  0
   14.7513   -9.1706    7.9505 C   0  0  0  0  0  0  0  0  0  0  0  0
   13.8280   -8.6125    6.8832 C   0  0  1  0  0  0  0  0  0  0  0  0
   13.3057   -7.3655    7.2811 O   0  0  0  0  0  0  0  0  0  0  0  0
   14.5415   -8.3418    5.5732 C   0  0  1  0  0  0  0  0  0  0  0  0
   14.4120   -9.4771    4.7551 O   0  0  0  0  0  0  0  0  0  0  0  0
   13.7847   -7.1637    4.9941 C   0  0  1  0  0  0  0  0  0  0  0  0
   12.8900   -7.6714    4.0298 O   0  0  0  0  0  0  0  0  0  0  0  0
   13.0221   -6.5402    6.1651 C   0  0  2  0  0  0  0  0  0  0  0  0
   14.4056   -6.2670   14.2109 O   0  0  0  0  0  0  0  0  0  0  0  0
   17.2928   -3.8308    7.5210 N   0  0  0  0  0  0  0  0  0  0  0  0
   17.1920   -5.1789    7.2771 C   0  0  0  0  0  0  0  0  0  0  0  0
   15.9694   -5.7110    6.9308 N   0  0  0  0  0  0  0  0  0  0  0  0
   14.8714   -4.9295    6.8247 C   0  0  0  0  0  0  0  0  0  0  0  0
   14.9605   -3.5642    7.0544 C   0  0  0  0  0  0  0  0  0  0  0  0
   16.1880   -3.0128    7.4156 C   0  0  0  0  0  0  0  0  0  0  0  0
   16.3126   -1.7064    7.6510 N   0  0  0  0  0  0  0  0  0  0  0  0
   13.7259   -3.0288    6.8721 N   0  0  0  0  0  0  0  0  0  0  0  0
   12.8806   -4.0248    6.5198 C   0  0  0  0  0  0  0  0  0  0  0  0
   13.5762   -5.2081    6.4789 N   0  0  0  0  0  0  0  0  0  0  0  0
  2  1  1  6  0  0  0
  2  3  1  0  0  0  0
  2  5  1  0  0  0  0
  3  4  1  0  0  0  0
  3 17  1  0  0  0  0
  5  6  1  0  0  0  0
  7  6  1  1  0  0  0
  7  8  1  0  0  0  0
  7  9  1  0  0  0  0
 10  9  1  1  0  0  0
 10 11  1  0  0  0  0
 10 12  1  0  0  0  0
 11 16  1  0  0  0  0
 12 13  1  6  0  0  0
 12 14  1  0  0  0  0
 14 15  1  6  0  0  0
 14 16  1  0  0  0  0
 16 27  1  1  0  0  0
 18 19  2  0  0  0  0
 18 23  1  0  0  0  0
 19 20  1  0  0  0  0
 20 21  2  0  0  0  0
 21 22  1  0  0  0  0
 21 27  1  0  0  0  0
 22 23  2  0  0  0  0
 22 25  1  0  0  0  0
 23 24  1  0  0  0  0
 25 26  2  0  0  0  0
 26 27  1  0  0  0  0
M  END
>  <CHROM.1>
-24.12059349,-44.45365713,-87.80076428,-60.08471125,-105.76781333,29.74874269
55.53149909,14.69123052,-6.29431770,8.37513444,-0.94548729,-1.31704916,-1.09554454

>  <Name>
ligand

>  <RI>
0

>  <Rbt.Current_Directory>
/home/itssahil/PROJECTS/Mol_Feturizer/New_Systems/rnas/3GX5

>  <Rbt.Executable>
rbdock ($Id: //depot/dev/client3/rdock/2013.1/src/exe/rbdock.cxx#4 $)

>  <Rbt.Library>
libRbt.so (2013.1, Build901 2013/11/27)

>  <Rbt.Parameter_File>
/export/apps/rDock/src/rDock_2013.1_src/data/scripts/dock_solv.prm

>  <Rbt.Receptor>
prm/pocket_docking_2.prm

>  <SCORE>
-10.0128

>  <SCORE.INTER>
-13.6095

>  <SCORE.INTER.CONST>
1

>  <SCORE.INTER.POLAR>
0

>  <SCORE.INTER.ROT>
7

>  <SCORE.INTER.SOLV>
17.2137

>  <SCORE.INTER.VDW>
-23.0776

>  <SCORE.INTER.norm>
-0.504057

>  <SCORE.INTRA>
3.59671

>  <SCORE.INTRA.DIHEDRAL>
8.14625

>  <SCORE.INTRA.DIHEDRAL.0>
4.28829

>  <SCORE.INTRA.POLAR>
0

>  <SCORE.INTRA.POLAR.0>
0

>  <SCORE.INTRA.REPUL>
0

>  <SCORE.INTRA.REPUL.0>
0

>  <SCORE.INTRA.SOLV>
0.174749

>  <SCORE.INTRA.SOLV.lig_0>
-48.6018

>  <SCORE.INTRA.VDW>
-0.563794

>  <SCORE.INTRA.VDW.0>
-2.1506

>  <SCORE.INTRA.norm>
0.133211

>  <SCORE.RESTR>
0

>  <SCORE.RESTR.CAVITY>
0

>  <SCORE.RESTR.norm>
0

>  <SCORE.SYSTEM>
0

>  <SCORE.SYSTEM.CONST>
0

>  <SCORE.SYSTEM.DIHEDRAL>
0

>  <SCORE.SYSTEM.SOLV>
0

>  <SCORE.SYSTEM.norm>
0

>  <SCORE.heavy>
27

>  <SCORE.norm>
-0.370845

>  <RMSD>
1.096

$$$$
ligand
 OpenBabel11021811483D
libRbt.so/2013.1/901 2013/11/27
 27 29  0  0  0  0  0  0  0  0999 V2000
   13.8764   -4.6720   10.2544 N   0  0  0  0  0  0  0  0  0  0  0  0
   14.2514   -5.7810   11.1337 C   0  0  2  0  0  0  0  0  0  0  0  0
   14.5500   -5.4046   12.5870 C   0  0  0  0  0  0  0  0  0  0  0  0
   15.2550   -4.4217   12.8116 O   0  0  0  0  0  0  0  0  0  0  0  0
   15.4013   -6.5788   10.5420 C   0  0  0  0  0  0  0  0  0  0  0  0
   15.0848   -7.0550    9.1347 C   0  0  0  0  0  0  0  0  0  0  0  0
   13.9575   -8.4595    9.1763 S   0  0  2  0  0  0  0  0  0  0  0  0
   14.8503   -9.5440   10.3103 C   0  0  0  0  0  0  0  0  0  0  0  0
   14.3692   -9.2592    7.6079 C   0  0  0  0  0  0  0  0  0  0  0  0
   13.6234   -8.6096    6.4568 C   0  0  1  0  0  0  0  0  0  0  0  0
   13.1059   -7.3573    6.8443 O   0  0  0  0  0  0  0  0  0  0  0  0
   14.5183   -8.3165    5.2687 C   0  0  1  0  0  0  0  0  0  0  0  0
   14.4522   -9.4067    4.3844 O   0  0  0  0  0  0  0  0  0  0  0  0
   13.8978   -7.0781    4.6544 C   0  0  1  0  0  0  0  0  0  0  0  0
   13.1208   -7.4980    3.5553 O   0  0  0  0  0  0  0  0  0  0  0  0
   13.0114   -6.4704    5.7436 C   0  0  2  0  0  0  0  0  0  0  0  0
   14.1193   -6.0470   13.5486 O   0  0  0  0  0  0  0  0  0  0  0  0
   17.3171   -3.9275    7.2966 N   0  0  0  0  0  0  0  0  0  0  0  0
   17.2089   -5.2386    6.9013 C   0  0  0  0  0  0  0  0  0  0  0  0
   15.9776   -5.7295    6.5264 N   0  0  0  0  0  0  0  0  0  0  0  0
   14.8781   -4.9431    6.5386 C   0  0  0  0  0  0  0  0  0  0  0  0
   14.9742   -3.6133    6.9220 C   0  0  0  0  0  0  0  0  0  0  0  0
   16.2108   -3.1049    7.3138 C   0  0  0  0  0  0  0  0  0  0  0  0
   16.3425   -1.8341    7.6952 N   0  0  0  0  0  0  0  0  0  0  0  0
   13.7359   -3.0628    6.8334 N   0  0  0  0  0  0  0  0  0  0  0  0
   12.8811   -4.0130    6.3897 C   0  0  0  0  0  0  0  0  0  0  0  0
   13.5744   -5.1823    6.1952 N   0  0  0  0  0  0  0  0  0  0  0  0
  2  1  1  6  0  0  0
  2  3  1  0  0  0  0
  2  5  1  0  0  0  0
  3  4  1  0  0  0  0
  3 17  1  0  0  0  0
  5  6  1  0  0  0  0
  7  6  1  6  0  0  0
  7  8  1  0  0  0  0
  7  9  1  0  0  0  0
 10  9  1  1  0  0  0
 10 11  1  0  0  0  0
 10 12  1  0  0  0  0
 11 16  1  0  0  0  0
 12 13  1  6  0  0  0
 12 14  1  0  0  0  0
 14 15  1  6  0  0  0
 14 16  1  0  0  0  0
 16 27  1  1  0  0  0
 18 19  2  0  0  0  0
 18 23  1  0  0  0  0
 19 20  1  0  0  0  0
 20 21  2  0  0  0  0
 21 22  1  0  0  0  0
 21 27  1  0  0  0  0
 22 23  2  0  0  0  0
 22 25  1  0  0  0  0
 23 24  1  0  0  0  0
 25 26  2  0  0  0  0
 26 27  1  0  0  0  0
M  END
>  <CHROM.1>
-45.06720526,-54.53481323,-76.50012599,-52.72363165,-83.19915841,15.91454178
65.81657803,14.56185073,-6.20297883,7.96938788,-1.07603742,-1.30648292,-1.37521397

>  <Name>
ligand

>  <RI>
0

>  <Rbt.Current_Directory>
/home/itssahil/PROJECTS/Mol_Feturizer/New_Systems/rnas/3GX5

>  <Rbt.Executable>
rbdock ($Id: //depot/dev/client3/rdock/2013.1/src/exe/rbdock.cxx#4 $)

>  <Rbt.Library>
libRbt.so (2013.1, Build901 2013/11/27)

>  <Rbt.Parameter_File>
/export/apps/rDock/src/rDock_2013.1_src/data/scripts/dock_solv.prm

>  <Rbt.Receptor>
prm/pocket_docking_2.prm

>  <SCORE>
-10.849

>  <SCORE.INTER>
-13.6202

>  <SCORE.INTER.CONST>
1

>  <SCORE.INTER.POLAR>
0

>  <SCORE.INTER.ROT>
7

>  <SCORE.INTER.SOLV>
18.0847

>  <SCORE.INTER.VDW>
-23.3751

>  <SCORE.INTER.norm>
-0.504454

>  <SCORE.INTRA>
2.73337

>  <SCORE.INTRA.DIHEDRAL>
5.86498

>  <SCORE.INTRA.DIHEDRAL.0>
4.28829

>  <SCORE.INTRA.POLAR>
0

>  <SCORE.INTRA.POLAR.0>
0

>  <SCORE.INTRA.REPUL>
0

>  <SCORE.INTRA.REPUL.0>
0

>  <SCORE.INTRA.SOLV>
0.597917

>  <SCORE.INTRA.SOLV.lig_0>
-48.6018

>  <SCORE.INTRA.VDW>
-0.498073

>  <SCORE.INTRA.VDW.0>
-2.1506

>  <SCORE.INTRA.norm>
0.101236

>  <SCORE.RESTR>
0.0378893

>  <SCORE.RESTR.CAVITY>
0.0378893

>  <SCORE.RESTR.norm>
0.00140331

>  <SCORE.SYSTEM>
0

>  <SCORE.SYSTEM.CONST>
0

>  <SCORE.SYSTEM.DIHEDRAL>
0

>  <SCORE.SYSTEM.SOLV>
0

>  <SCORE.SYSTEM.norm>
0

>  <SCORE.heavy>
27

>  <SCORE.norm>
-0.401814

>  <RMSD>
1.118

$$$$
ligand
 OpenBabel11021811483D
libRbt.so/2013.1/901 2013/11/27
 27 29  0  0  0  0  0  0  0  0999 V2000
   14.7570   -6.5053   13.6407 N   0  0  0  0  0  0  0  0  0  0  0  0
   15.0125   -6.0024   12.2895 C   0  0  2  0  0  0  0  0  0  0  0  0
   14.9546   -4.4817   12.1248 C   0  0  0  0  0  0  0  0  0  0  0  0
   15.5534   -3.7749   12.9345 O   0  0  0  0  0  0  0  0  0  0  0  0
   14.1085   -6.6839   11.2760 C   0  0  0  0  0  0  0  0  0  0  0  0
   14.3143   -8.1888   11.2670 C   0  0  0  0  0  0  0  0  0  0  0  0
   13.2069   -8.9757   10.0839 S   0  0  2  0  0  0  0  0  0  0  0  0
   13.4044  -10.7028   10.5711 C   0  0  0  0  0  0  0  0  0  0  0  0
   14.2426   -8.9603    8.6021 C   0  0  0  0  0  0  0  0  0  0  0  0
   13.4664   -8.4444    7.4044 C   0  0  1  0  0  0  0  0  0  0  0  0
   12.9554   -7.1564    7.6612 O   0  0  0  0  0  0  0  0  0  0  0  0
   14.3303   -8.2874    6.1686 C   0  0  1  0  0  0  0  0  0  0  0  0
   14.2448   -9.4704    5.4147 O   0  0  0  0  0  0  0  0  0  0  0  0
   13.6913   -7.1260    5.4344 C   0  0  1  0  0  0  0  0  0  0  0  0
   12.8880   -7.6670    4.4097 O   0  0  0  0  0  0  0  0  0  0  0  0
   12.8309   -6.3992    6.4703 C   0  0  2  0  0  0  0  0  0  0  0  0
   14.3280   -3.9285   11.2170 O   0  0  0  0  0  0  0  0  0  0  0  0
   17.1559   -3.7070    7.6807 N   0  0  0  0  0  0  0  0  0  0  0  0
   17.0401   -5.0559    7.4478 C   0  0  0  0  0  0  0  0  0  0  0  0
   15.8046   -5.5828    7.1418 N   0  0  0  0  0  0  0  0  0  0  0  0
   14.7084   -4.7956    7.0643 C   0  0  0  0  0  0  0  0  0  0  0  0
   14.8121   -3.4296    7.2832 C   0  0  0  0  0  0  0  0  0  0  0  0
   16.0530   -2.8832    7.6039 C   0  0  0  0  0  0  0  0  0  0  0  0
   16.1920   -1.5762    7.8278 N   0  0  0  0  0  0  0  0  0  0  0  0
   13.5755   -2.8880    7.1352 N   0  0  0  0  0  0  0  0  0  0  0  0
   12.7144   -3.8811    6.8144 C   0  0  0  0  0  0  0  0  0  0  0  0
   13.4017   -5.0685    6.7594 N   0  0  0  0  0  0  0  0  0  0  0  0
  2  1  1  1  0  0  0
  2  3  1  0  0  0  0
  2  5  1  0  0  0  0
  3  4  1  0  0  0  0
  3 17  1  0  0  0  0
  5  6  1  0  0  0  0
  7  6  1  1  0  0  0
  7  8  1  0  0  0  0
  7  9  1  0  0  0  0
 10  9  1  1  0  0  0
 10 11  1  0  0  0  0
 10 12  1  0  0  0  0
 11 16  1  0  0  0  0
 12 13  1  6  0  0  0
 12 14  1  0  0  0  0
 14 15  1  6  0  0  0
 14 16  1  0  0  0  0
 16 27  1  1  0  0  0
 18 19  2  0  0  0  0
 18 23  1  0  0  0  0
 19 20  1  0  0  0  0
 20 21  2  0  0  0  0
 21 22  1  0  0  0  0
 21 27  1  0  0  0  0
 22 23  2  0  0  0  0
 22 25  1  0  0  0  0
 23 24  1  0  0  0  0
 25 26  2  0  0  0  0
 26 27  1  0  0  0  0
M  END
>  <CHROM.1>
47.44918957,-59.35238801,178.77180451,-167.58970043,-132.38607174,57.10110735
64.54798940,14.35268995,-6.18978142,8.60836977,0.66650026,1.24575108,1.85662414

>  <Name>
ligand

>  <RI>
0

>  <Rbt.Current_Directory>
/home/itssahil/PROJECTS/Mol_Feturizer/New_Systems/rnas/3GX5

>  <Rbt.Executable>
rbdock ($Id: //depot/dev/client3/rdock/2013.1/src/exe/rbdock.cxx#4 $)

>  <Rbt.Library>
libRbt.so (2013.1, Build901 2013/11/27)

>  <Rbt.Parameter_File>
/export/apps/rDock/src/rDock_2013.1_src/data/scripts/dock_solv.prm

>  <Rbt.Receptor>
prm/pocket_docking_2.prm

>  <SCORE>
-11.1027

>  <SCORE.INTER>
-13.0486

>  <SCORE.INTER.CONST>
1

>  <SCORE.INTER.POLAR>
0

>  <SCORE.INTER.ROT>
7

>  <SCORE.INTER.SOLV>
19.2289

>  <SCORE.INTER.VDW>
-23.3753

>  <SCORE.INTER.norm>
-0.48328

>  <SCORE.INTRA>
1.31233

>  <SCORE.INTRA.DIHEDRAL>
4.64751

>  <SCORE.INTRA.DIHEDRAL.0>
4.28829

>  <SCORE.INTRA.POLAR>
0

>  <SCORE.INTRA.POLAR.0>
0

>  <SCORE.INTRA.REPUL>
0

>  <SCORE.INTRA.REPUL.0>
0

>  <SCORE.INTRA.SOLV>
-0.498208

>  <SCORE.INTRA.SOLV.lig_0>
-48.6018

>  <SCORE.INTRA.VDW>
-0.762324

>  <SCORE.INTRA.VDW.0>
-2.1506

>  <SCORE.INTRA.norm>
0.0486047

>  <SCORE.RESTR>
0.633536

>  <SCORE.RESTR.CAVITY>
0.633536

>  <SCORE.RESTR.norm>
0.0234643

>  <SCORE.SYSTEM>
0

>  <SCORE.SYSTEM.CONST>
0

>  <SCORE.SYSTEM.DIHEDRAL>
0

>  <SCORE.SYSTEM.SOLV>
0

>  <SCORE.SYSTEM.norm>
0

>  <SCORE.heavy>
27

>  <SCORE.norm>
-0.411211

>  <RMSD>
1.126

$$$$
ligand
 OpenBabel11021811483D
libRbt.so/2013.1/901 2013/11/27
 27 29  0  0  0  0  0  0  0  0999 V2000
   15.5379   -6.6144   10.0170 N   0  0  0  0  0  0  0  0  0  0  0  0
   14.4679   -5.6150   10.0059 C   0  0  2  0  0  0  0  0  0  0  0  0
   14.3354   -4.7698   11.2751 C   0  0  0  0  0  0  0  0  0  0  0  0
   13.4782   -3.8880   11.3129 O   0  0  0  0  0  0  0  0  0  0  0  0
   13.1352   -6.2497    9.6457 C   0  0  0  0  0  0  0  0  0  0  0  0
   12.8686   -7.4961   10.4720 C   0  0  0  0  0  0  0  0  0  0  0  0
   12.4392   -8.8853    9.4084 S   0  0  2  0  0  0  0  0  0  0  0  0
   12.8806  -10.2586   10.4938 C   0  0  0  0  0  0  0  0  0  0  0  0
   13.8676   -8.9058    8.3003 C   0  0  0  0  0  0  0  0  0  0  0  0
   13.4842   -8.4227    6.9137 C   0  0  1  0  0  0  0  0  0  0  0  0
   12.9102   -7.1372    6.9770 O   0  0  0  0  0  0  0  0  0  0  0  0
   14.6789   -8.2767    5.9919 C   0  0  1  0  0  0  0  0  0  0  0  0
   14.8330   -9.4744    5.2731 O   0  0  0  0  0  0  0  0  0  0  0  0
   14.2820   -7.1378    5.0746 C   0  0  1  0  0  0  0  0  0  0  0  0
   13.8284   -7.7084    3.8677 O   0  0  0  0  0  0  0  0  0  0  0  0
   13.1443   -6.4038    5.7877 C   0  0  2  0  0  0  0  0  0  0  0  0
   15.0549   -4.9283   12.2650 O   0  0  0  0  0  0  0  0  0  0  0  0
   17.1374   -3.5251    7.5727 N   0  0  0  0  0  0  0  0  0  0  0  0
   17.1377   -4.8615    7.2544 C   0  0  0  0  0  0  0  0  0  0  0  0
   15.9765   -5.4451    6.7975 N   0  0  0  0  0  0  0  0  0  0  0  0
   14.8412   -4.7252    6.6550 C   0  0  0  0  0  0  0  0  0  0  0  0
   14.8291   -3.3717    6.9592 C   0  0  0  0  0  0  0  0  0  0  0  0
   15.9930   -2.7693    7.4322 C   0  0  0  0  0  0  0  0  0  0  0  0
   16.0195   -1.4726    7.7415 N   0  0  0  0  0  0  0  0  0  0  0  0
   13.5782   -2.9010    6.7188 N   0  0  0  0  0  0  0  0  0  0  0  0
   12.8222   -3.9244    6.2586 C   0  0  0  0  0  0  0  0  0  0  0  0
   13.5918   -5.0605    6.2063 N   0  0  0  0  0  0  0  0  0  0  0  0
  2  1  1  1  0  0  0
  2  3  1  0  0  0  0
  2  5  1  0  0  0  0
  3  4  1  0  0  0  0
  3 17  1  0  0  0  0
  5  6  1  0  0  0  0
  7  6  1  1  0  0  0
  7  8  1  0  0  0  0
  7  9  1  0  0  0  0
 10  9  1  1  0  0  0
 10 11  1  0  0  0  0
 10 12  1  0  0  0  0
 11 16  1  0  0  0  0
 12 13  1  6  0  0  0
 12 14  1  0  0  0  0
 14 15  1  6  0  0  0
 14 16  1  0  0  0  0
 16 27  1  1  0  0  0
 18 19  2  0  0  0  0
 18 23  1  0  0  0  0
 19 20  1  0  0  0  0
 20 21  2  0  0  0  0
 21 22  1  0  0  0  0
 21 27  1  0  0  0  0
 22 23  2  0  0  0  0
 22 25  1  0  0  0  0
 23 24  1  0  0  0  0
 25 26  2  0  0  0  0
 26 27  1  0  0  0  0
M  END
>  <CHROM.1>
178.04217419,49.20066666,-128.46841356,156.84459852,-108.34656579,56.27696225
77.66130841,14.22311389,-6.14171353,7.97801483,2.86552606,-1.20051193,-1.87723533

>  <Name>
ligand

>  <RI>
0

>  <Rbt.Current_Directory>
/home/itssahil/PROJECTS/Mol_Feturizer/New_Systems/rnas/3GX5

>  <Rbt.Executable>
rbdock ($Id: //depot/dev/client3/rdock/2013.1/src/exe/rbdock.cxx#4 $)

>  <Rbt.Library>
libRbt.so (2013.1, Build901 2013/11/27)

>  <Rbt.Parameter_File>
/export/apps/rDock/src/rDock_2013.1_src/data/scripts/dock_solv.prm

>  <Rbt.Receptor>
prm/pocket_docking_2.prm

>  <SCORE>
-12.0846

>  <SCORE.INTER>
-16.03

>  <SCORE.INTER.CONST>
1

>  <SCORE.INTER.POLAR>
0

>  <SCORE.INTER.ROT>
7

>  <SCORE.INTER.SOLV>
16.5245

>  <SCORE.INTER.VDW>
-24.4615

>  <SCORE.INTER.norm>
-0.593704

>  <SCORE.INTRA>
3.9338

>  <SCORE.INTRA.DIHEDRAL>
8.58008

>  <SCORE.INTRA.DIHEDRAL.0>
4.28829

>  <SCORE.INTRA.POLAR>
0

>  <SCORE.INTRA.POLAR.0>
0

>  <SCORE.INTRA.REPUL>
0

>  <SCORE.INTRA.REPUL.0>
0

>  <SCORE.INTRA.SOLV>
2.56429

>  <SCORE.INTRA.SOLV.lig_0>
-48.6018

>  <SCORE.INTRA.VDW>
-1.63838

>  <SCORE.INTRA.VDW.0>
-2.1506

>  <SCORE.INTRA.norm>
0.145696

>  <SCORE.RESTR>
0.0115615

>  <SCORE.RESTR.CAVITY>
0.0115615

>  <SCORE.RESTR.norm>
0.000428204

>  <SCORE.SYSTEM>
0

>  <SCORE.SYSTEM.CONST>
0

>  <SCORE.SYSTEM.DIHEDRAL>
0

>  <SCORE.SYSTEM.SOLV>
0

>  <SCORE.SYSTEM.norm>
0

>  <SCORE.heavy>
27

>  <SCORE.norm>
-0.447579

>  <RMSD>
1.138

$$$$
ligand
 OpenBabel11021811483D
libRbt.so/2013.1/901 2013/11/27
 27 29  0  0  0  0  0  0  0  0999 V2000
   14.4463   -7.0178   13.1996 N   0  0  0  0  0  0  0  0  0  0  0  0
   15.0239   -6.6178   11.9150 C   0  0  2  0  0  0  0  0  0  0  0  0
   14.6776   -5.2037   11.4425 C   0  0  0  0  0  0  0  0  0  0  0  0
   13.5277   -4.7934   11.5944 O   0  0  0  0  0  0  0  0  0  0  0  0
   14.7019   -7.6357   10.8339 C   0  0  0  0  0  0  0  0  0  0  0  0
   13.2171   -7.6603   10.5142 C   0  0  0  0  0  0  0  0  0  0  0  0
   12.8038   -9.1045    9.5199 S   0  0  2  0  0  0  0  0  0  0  0  0
   13.5137  -10.4068   10.5491 C   0  0  0  0  0  0  0  0  0  0  0  0
   14.0791   -9.0012    8.2425 C   0  0  0  0  0  0  0  0  0  0  0  0
   13.5057   -8.4550    6.9480 C   0  0  1  0  0  0  0  0  0  0  0  0
   13.0175   -7.1461    7.1345 O   0  0  0  0  0  0  0  0  0  0  0  0
   14.5443   -8.3362    5.8501 C   0  0  1  0  0  0  0  0  0  0  0  0
   14.5188   -9.5156    5.0863 O   0  0  0  0  0  0  0  0  0  0  0  0
   14.0669   -7.1500    5.0369 C   0  0  1  0  0  0  0  0  0  0  0  0
   13.3976   -7.6582    3.9048 O   0  0  0  0  0  0  0  0  0  0  0  0
   13.0975   -6.3861    5.9415 C   0  0  2  0  0  0  0  0  0  0  0  0
   15.4999   -4.4543   10.9088 O   0  0  0  0  0  0  0  0  0  0  0  0
   17.3765   -3.8479    7.5743 N   0  0  0  0  0  0  0  0  0  0  0  0
   17.2465   -5.1859    7.2916 C   0  0  0  0  0  0  0  0  0  0  0  0
   16.0270   -5.6702    6.8722 N   0  0  0  0  0  0  0  0  0  0  0  0
   14.9602   -4.8516    6.7321 C   0  0  0  0  0  0  0  0  0  0  0  0
   15.0797   -3.4958    7.0004 C   0  0  0  0  0  0  0  0  0  0  0  0
   16.3040   -2.9927    7.4354 C   0  0  0  0  0  0  0  0  0  0  0  0
   16.4569   -1.6969    7.7097 N   0  0  0  0  0  0  0  0  0  0  0  0
   13.8729   -2.9169    6.7712 N   0  0  0  0  0  0  0  0  0  0  0  0
   13.0160   -3.8767    6.3526 C   0  0  0  0  0  0  0  0  0  0  0  0
   13.6760   -5.0803    6.3160 N   0  0  0  0  0  0  0  0  0  0  0  0
  2  1  1  1  0  0  0
  2  3  1  0  0  0  0
  2  5  1  0  0  0  0
  3  4  1  0  0  0  0
  3 17  1  0  0  0  0
  5  6  1  0  0  0  0
  7  6  1  1  0  0  0
  7  8  1  0  0  0  0
  7  9  1  0  0  0  0
 10  9  1  1  0  0  0
 10 11  1  0  0  0  0
 10 12  1  0  0  0  0
 11 16  1  0  0  0  0
 12 13  1  6  0  0  0
 12 14  1  0  0  0  0
 14 15  1  6  0  0  0
 14 16  1  0  0  0  0
 16 27  1  1  0  0  0
 18 19  2  0  0  0  0
 18 23  1  0  0  0  0
 19 20  1  0  0  0  0
 20 21  2  0  0  0  0
 21 22  1  0  0  0  0
 21 27  1  0  0  0  0
 22 23  2  0  0  0  0
 22 25  1  0  0  0  0
 23 24  1  0  0  0  0
 25 26  2  0  0  0  0
 26 27  1  0  0  0  0
M  END
>  <CHROM.1>
-41.11605468,67.16729470,-167.25211221,53.04126140,-102.82649080,61.99997150
68.68415070,14.39530598,-6.35845787,8.18617857,-2.30473385,-1.20083026,-1.50840444

>  <Name>
ligand

>  <RI>
0

>  <Rbt.Current_Directory>
/home/itssahil/PROJECTS/Mol_Feturizer/New_Systems/rnas/3GX5

>  <Rbt.Executable>
rbdock ($Id: //depot/dev/client3/rdock/2013.1/src/exe/rbdock.cxx#4 $)

>  <Rbt.Library>
libRbt.so (2013.1, Build901 2013/11/27)

>  <Rbt.Parameter_File>
/export/apps/rDock/src/rDock_2013.1_src/data/scripts/dock_solv.prm

>  <Rbt.Receptor>
prm/pocket_docking_2.prm

>  <SCORE>
-12.6565

>  <SCORE.INTER>
-14.6677

>  <SCORE.INTER.CONST>
1

>  <SCORE.INTER.POLAR>
0

>  <SCORE.INTER.ROT>
7

>  <SCORE.INTER.SOLV>
16.1014

>  <SCORE.INTER.VDW>
-23.4123

>  <SCORE.INTER.norm>
-0.543249

>  <SCORE.INTRA>
1.97918

>  <SCORE.INTRA.DIHEDRAL>
2.47238

>  <SCORE.INTRA.DIHEDRAL.0>
4.28829

>  <SCORE.INTRA.POLAR>
0

>  <SCORE.INTRA.POLAR.0>
0

>  <SCORE.INTRA.REPUL>
0

>  <SCORE.INTRA.REPUL.0>
0

>  <SCORE.INTRA.SOLV>
-0.226198

>  <SCORE.INTRA.SOLV.lig_0>
-48.6018

>  <SCORE.INTRA.VDW>
0.856096

>  <SCORE.INTRA.VDW.0>
-2.1506

>  <SCORE.INTRA.norm>
0.0733031

>  <SCORE.RESTR>
0.0320173

>  <SCORE.RESTR.CAVITY>
0.0320173

>  <SCORE.RESTR.norm>
0.00118583

>  <SCORE.SYSTEM>
0

>  <SCORE.SYSTEM.CONST>
0

>  <SCORE.SYSTEM.DIHEDRAL>
0

>  <SCORE.SYSTEM.SOLV>
0

>  <SCORE.SYSTEM.norm>
0

>  <SCORE.heavy>
27

>  <SCORE.norm>
-0.46876

>  <RMSD>
1.156

$$$$
ligand
 OpenBabel11021811483D
libRbt.so/2013.1/901 2013/11/27
 27 29  0  0  0  0  0  0  0  0999 V2000
   12.5623   -6.7367   11.0594 N   0  0  0  0  0  0  0  0  0  0  0  0
   13.7368   -6.3840   11.8594 C   0  0  2  0  0  0  0  0  0  0  0  0
   14.2840   -4.9702   11.6483 C   0  0  0  0  0  0  0  0  0  0  0  0
   13.9954   -4.3717   10.6129 O   0  0  0  0  0  0  0  0  0  0  0  0
   14.8403   -7.4145   11.6883 C   0  0  0  0  0  0  0  0  0  0  0  0
   15.1459   -7.6674   10.2220 C   0  0  0  0  0  0  0  0  0  0  0  0
   14.1204   -9.0016    9.5789 S   0  0  2  0  0  0  0  0  0  0  0  0
   14.8819  -10.4108   10.4116 C   0  0  0  0  0  0  0  0  0  0  0  0
   14.8363   -9.2026    7.9309 C   0  0  0  0  0  0  0  0  0  0  0  0
   13.9003   -8.6640    6.8647 C   0  0  1  0  0  0  0  0  0  0  0  0
   13.3580   -7.4248    7.2600 O   0  0  0  0  0  0  0  0  0  0  0  0
   14.6048   -8.3858    5.5514 C   0  0  1  0  0  0  0  0  0  0  0  0
   14.4921   -9.5261    4.7377 O   0  0  0  0  0  0  0  0  0  0  0  0
   13.8261   -7.2229    4.9707 C   0  0  1  0  0  0  0  0  0  0  0  0
   12.9372   -7.7492    4.0111 O   0  0  0  0  0  0  0  0  0  0  0  0
   13.0569   -6.6083    6.1420 C   0  0  2  0  0  0  0  0  0  0  0  0
   15.0090   -4.4018   12.4694 O   0  0  0  0  0  0  0  0  0  0  0  0
   17.2934   -3.8162    7.4357 N   0  0  0  0  0  0  0  0  0  0  0  0
   17.2156   -5.1657    7.1911 C   0  0  0  0  0  0  0  0  0  0  0  0
   15.9986   -5.7216    6.8630 N   0  0  0  0  0  0  0  0  0  0  0  0
   14.8838   -4.9620    6.7754 C   0  0  0  0  0  0  0  0  0  0  0  0
   14.9493   -3.5956    7.0060 C   0  0  0  0  0  0  0  0  0  0  0  0
   16.1710   -3.0202    7.3489 C   0  0  0  0  0  0  0  0  0  0  0  0
   16.2733   -1.7119    7.5845 N   0  0  0  0  0  0  0  0  0  0  0  0
   13.7015   -3.0846    6.8439 N   0  0  0  0  0  0  0  0  0  0  0  0
   12.8708   -4.0968    6.5032 C   0  0  0  0  0  0  0  0  0  0  0  0
   13.5891   -5.2659    6.4494 N   0  0  0  0  0  0  0  0  0  0  0  0
  2  1  1  6  0  0  0
  2  3  1  0  0  0  0
  2  5  1  0  0  0  0
  3  4  1  0  0  0  0
  3 17  1  0  0  0  0
  5  6  1  0  0  0  0
  7  6  1  1  0  0  0
  7  8  1  0  0  0  0
  7  9  1  0  0  0  0
 10  9  1  1  0  0  0
 10 11  1  0  0  0  0
 10 12  1  0  0  0  0
 11 16  1  0  0  0  0
 12 13  1  6  0  0  0
 12 14  1  0  0  0  0
 14 15  1  6  0  0  0
 14 16  1  0  0  0  0
 16 27  1  1  0  0  0
 18 19  2  0  0  0  0
 18 23  1  0  0  0  0
 19 20  1  0  0  0  0
 20 21  2  0  0  0  0
 21 22  1  0  0  0  0
 21 27  1  0  0  0  0
 22 23  2  0  0  0  0
 22 25  1  0  0  0  0
 23 24  1  0  0  0  0
 25 26  2  0  0  0  0
 26 27  1  0  0  0  0
M  END
>  <CHROM.1>
-20.46990913,51.74795825,-89.94114614,-71.54301133,-107.36034171,43.75801400
56.31541332,14.49808852,-6.36662360,8.13108155,1.08186916,1.35903647,1.69569282

>  <Name>
ligand

>  <RI>
0

>  <Rbt.Current_Directory>
/home/itssahil/PROJECTS/Mol_Feturizer/New_Systems/rnas/3GX5

>  <Rbt.Executable>
rbdock ($Id: //depot/dev/client3/rdock/2013.1/src/exe/rbdock.cxx#4 $)

>  <Rbt.Library>
libRbt.so (2013.1, Build901 2013/11/27)

>  <Rbt.Parameter_File>
/export/apps/rDock/src/rDock_2013.1_src/data/scripts/dock_solv.prm

>  <Rbt.Receptor>
prm/pocket_docking_2.prm

>  <SCORE>
-11.4278

>  <SCORE.INTER>
-13.7966

>  <SCORE.INTER.CONST>
1

>  <SCORE.INTER.POLAR>
0

>  <SCORE.INTER.ROT>
7

>  <SCORE.INTER.SOLV>
17.3179

>  <SCORE.INTER.VDW>
-23.2371

>  <SCORE.INTER.norm>
-0.510987

>  <SCORE.INTRA>
2.36097

>  <SCORE.INTRA.DIHEDRAL>
6.15098

>  <SCORE.INTRA.DIHEDRAL.0>
4.28829

>  <SCORE.INTRA.POLAR>
0

>  <SCORE.INTRA.POLAR.0>
0

>  <SCORE.INTRA.REPUL>
0

>  <SCORE.INTRA.REPUL.0>
0

>  <SCORE.INTRA.SOLV>
1.30391

>  <SCORE.INTRA.SOLV.lig_0>
-48.6018

>  <SCORE.INTRA.VDW>
-1.36648

>  <SCORE.INTRA.VDW.0>
-2.1506

>  <SCORE.INTRA.norm>
0.0874433

>  <SCORE.RESTR>
0.00786358

>  <SCORE.RESTR.CAVITY>
0.00786358

>  <SCORE.RESTR.norm>
0.000291244

>  <SCORE.SYSTEM>
0

>  <SCORE.SYSTEM.CONST>
0

>  <SCORE.SYSTEM.DIHEDRAL>
0

>  <SCORE.SYSTEM.SOLV>
0

>  <SCORE.SYSTEM.norm>
0

>  <SCORE.heavy>
27

>  <SCORE.norm>
-0.423252

>  <RMSD>
1.171

$$$$
ligand
 OpenBabel11021811483D
libRbt.so/2013.1/901 2013/11/27
 27 29  0  0  0  0  0  0  0  0999 V2000
   14.4357   -7.0124   13.1313 N   0  0  0  0  0  0  0  0  0  0  0  0
   14.9982   -6.6027   11.8430 C   0  0  2  0  0  0  0  0  0  0  0  0
   14.6343   -5.1905   11.3783 C   0  0  0  0  0  0  0  0  0  0  0  0
   15.5341   -4.4400   11.0031 O   0  0  0  0  0  0  0  0  0  0  0  0
   14.6763   -7.6201   10.7613 C   0  0  0  0  0  0  0  0  0  0  0  0
   13.1856   -7.6786   10.4753 C   0  0  0  0  0  0  0  0  0  0  0  0
   12.7915   -9.0978    9.4381 S   0  0  2  0  0  0  0  0  0  0  0  0
   13.5176  -10.4208   10.4289 C   0  0  0  0  0  0  0  0  0  0  0  0
   14.0661   -8.9402    8.1656 C   0  0  0  0  0  0  0  0  0  0  0  0
   13.4737   -8.4251    6.8668 C   0  0  1  0  0  0  0  0  0  0  0  0
   12.8933   -7.1547    7.0552 O   0  0  0  0  0  0  0  0  0  0  0  0
   14.5163   -8.2262    5.7844 C   0  0  1  0  0  0  0  0  0  0  0  0
   14.5831   -9.3987    5.0125 O   0  0  0  0  0  0  0  0  0  0  0  0
   13.9687   -7.0698    4.9726 C   0  0  1  0  0  0  0  0  0  0  0  0
   13.3516   -7.6145    3.8278 O   0  0  0  0  0  0  0  0  0  0  0  0
   12.9365   -6.3819    5.8686 C   0  0  2  0  0  0  0  0  0  0  0  0
   13.4759   -4.7653   11.3675 O   0  0  0  0  0  0  0  0  0  0  0  0
   17.0541   -3.5285    7.3923 N   0  0  0  0  0  0  0  0  0  0  0  0
   17.0263   -4.8640    7.0716 C   0  0  0  0  0  0  0  0  0  0  0  0
   15.8343   -5.4405    6.6911 N   0  0  0  0  0  0  0  0  0  0  0  0
   14.6959   -4.7144    6.6257 C   0  0  0  0  0  0  0  0  0  0  0  0
   14.7111   -3.3616    6.9331 C   0  0  0  0  0  0  0  0  0  0  0  0
   15.9069   -2.7665    7.3296 C   0  0  0  0  0  0  0  0  0  0  0  0
   15.9608   -1.4708    7.6394 N   0  0  0  0  0  0  0  0  0  0  0  0
   13.4496   -2.8839    6.7770 N   0  0  0  0  0  0  0  0  0  0  0  0
   12.6594   -3.9021    6.3655 C   0  0  0  0  0  0  0  0  0  0  0  0
   13.4178   -5.0420    6.2598 N   0  0  0  0  0  0  0  0  0  0  0  0
  2  1  1  1  0  0  0
  2  3  1  0  0  0  0
  2  5  1  0  0  0  0
  3  4  1  0  0  0  0
  3 17  1  0  0  0  0
  5  6  1  0  0  0  0
  7  6  1  1  0  0  0
  7  8  1  0  0  0  0
  7  9  1  0  0  0  0
 10  9  1  1  0  0  0
 10 11  1  0  0  0  0
 10 12  1  0  0  0  0
 11 16  1  0  0  0  0
 12 13  1  6  0  0  0
 12 14  1  0  0  0  0
 14 15  1  6  0  0  0
 14 16  1  0  0  0  0
 16 27  1  1  0  0  0
 18 19  2  0  0  0  0
 18 23  1  0  0  0  0
 19 20  1  0  0  0  0
 20 21  2  0  0  0  0
 21 22  1  0  0  0  0
 21 27  1  0  0  0  0
 22 23  2  0  0  0  0
 22 25  1  0  0  0  0
 23 24  1  0  0  0  0
 25 26  2  0  0  0  0
 26 27  1  0  0  0  0
M  END
>  <CHROM.1>
130.32616998,65.97475157,-168.93738942,54.79570255,-105.51329098,60.42553591
72.49655618,14.26348269,-6.28498652,8.10457789,-2.24285087,-1.25094843,-1.42228215

>  <Name>
ligand

>  <RI>
0

>  <Rbt.Current_Directory>
/home/itssahil/PROJECTS/Mol_Feturizer/New_Systems/rnas/3GX5

>  <Rbt.Executable>
rbdock ($Id: //depot/dev/client3/rdock/2013.1/src/exe/rbdock.cxx#4 $)

>  <Rbt.Library>
libRbt.so (2013.1, Build901 2013/11/27)

>  <Rbt.Parameter_File>
/export/apps/rDock/src/rDock_2013.1_src/data/scripts/dock_solv.prm

>  <Rbt.Receptor>
prm/pocket_docking_2.prm

>  <SCORE>
-12.4512

>  <SCORE.INTER>
-14.592

>  <SCORE.INTER.CONST>
1

>  <SCORE.INTER.POLAR>
0

>  <SCORE.INTER.ROT>
7

>  <SCORE.INTER.SOLV>
17.3455

>  <SCORE.INTER.VDW>
-23.7765

>  <SCORE.INTER.norm>
-0.540445

>  <SCORE.INTRA>
2.14081

>  <SCORE.INTRA.DIHEDRAL>
2.58804

>  <SCORE.INTRA.DIHEDRAL.0>
4.28829

>  <SCORE.INTRA.POLAR>
0

>  <SCORE.INTRA.POLAR.0>
0

>  <SCORE.INTRA.REPUL>
0

>  <SCORE.INTRA.REPUL.0>
0

>  <SCORE.INTRA.SOLV>
-0.28207

>  <SCORE.INTRA.SOLV.lig_0>
-48.6018

>  <SCORE.INTRA.VDW>
0.987822

>  <SCORE.INTRA.VDW.0>
-2.1506

>  <SCORE.INTRA.norm>
0.0792891

>  <SCORE.RESTR>
0

>  <SCORE.RESTR.CAVITY>
0

>  <SCORE.RESTR.norm>
0

>  <SCORE.SYSTEM>
0

>  <SCORE.SYSTEM.CONST>
0

>  <SCORE.SYSTEM.DIHEDRAL>
0

>  <SCORE.SYSTEM.SOLV>
0

>  <SCORE.SYSTEM.norm>
0

>  <SCORE.heavy>
27

>  <SCORE.norm>
-0.461156

>  <RMSD>
1.188

$$$$
ligand
 OpenBabel11021811483D
libRbt.so/2013.1/901 2013/11/27
 27 29  0  0  0  0  0  0  0  0999 V2000
   14.0176   -6.0503   13.5399 N   0  0  0  0  0  0  0  0  0  0  0  0
   14.5326   -6.0616   12.1693 C   0  0  2  0  0  0  0  0  0  0  0  0
   14.8552   -4.6908   11.5697 C   0  0  0  0  0  0  0  0  0  0  0  0
   16.0308   -4.3335   11.5066 O   0  0  0  0  0  0  0  0  0  0  0  0
   13.6104   -6.8432   11.2487 C   0  0  0  0  0  0  0  0  0  0  0  0
   13.5924   -8.3211   11.5995 C   0  0  0  0  0  0  0  0  0  0  0  0
   12.8112   -9.2773   10.2878 S   0  0  2  0  0  0  0  0  0  0  0  0
   13.2976  -10.9438   10.7832 C   0  0  0  0  0  0  0  0  0  0  0  0
   13.9858   -9.0089    8.9399 C   0  0  0  0  0  0  0  0  0  0  0  0
   13.2794   -8.4881    7.7018 C   0  0  1  0  0  0  0  0  0  0  0  0
   12.7824   -7.1881    7.9236 O   0  0  0  0  0  0  0  0  0  0  0  0
   14.2055   -8.3584    6.5085 C   0  0  1  0  0  0  0  0  0  0  0  0
   14.1331   -9.5458    5.7603 O   0  0  0  0  0  0  0  0  0  0  0  0
   13.6263   -7.1910    5.7354 C   0  0  1  0  0  0  0  0  0  0  0  0
   12.8633   -7.7247    4.6767 O   0  0  0  0  0  0  0  0  0  0  0  0
   12.7313   -6.4387    6.7224 C   0  0  2  0  0  0  0  0  0  0  0  0
   13.9870   -3.9210   11.1496 O   0  0  0  0  0  0  0  0  0  0  0  0
   17.1352   -3.6448    7.1892 N   0  0  0  0  0  0  0  0  0  0  0  0
   17.0080   -4.9635    6.8258 C   0  0  0  0  0  0  0  0  0  0  0  0
   15.7521   -5.5259    6.7607 N   0  0  0  0  0  0  0  0  0  0  0  0
   14.6462   -4.8022    7.0449 C   0  0  0  0  0  0  0  0  0  0  0  0
   14.7578   -3.4657    7.3997 C   0  0  0  0  0  0  0  0  0  0  0  0
   16.0219   -2.8853    7.4801 C   0  0  0  0  0  0  0  0  0  0  0  0
   16.1708   -1.6058    7.8240 N   0  0  0  0  0  0  0  0  0  0  0  0
   13.5063   -2.9861    7.6190 N   0  0  0  0  0  0  0  0  0  0  0  0
   12.6242   -3.9867    7.3928 C   0  0  0  0  0  0  0  0  0  0  0  0
   13.3138   -5.1171    7.0292 N   0  0  0  0  0  0  0  0  0  0  0  0
  2  1  1  1  0  0  0
  2  3  1  0  0  0  0
  2  5  1  0  0  0  0
  3  4  1  0  0  0  0
  3 17  1  0  0  0  0
  5  6  1  0  0  0  0
  7  6  1  1  0  0  0
  7  8  1  0  0  0  0
  7  9  1  0  0  0  0
 10  9  1  1  0  0  0
 10 11  1  0  0  0  0
 10 12  1  0  0  0  0
 11 16  1  0  0  0  0
 12 13  1  6  0  0  0
 12 14  1  0  0  0  0
 14 15  1  6  0  0  0
 14 16  1  0  0  0  0
 16 27  1  1  0  0  0
 18 19  2  0  0  0  0
 18 23  1  0  0  0  0
 19 20  1  0  0  0  0
 20 21  2  0  0  0  0
 21 22  1  0  0  0  0
 21 27  1  0  0  0  0
 22 23  2  0  0  0  0
 22 25  1  0  0  0  0
 23 24  1  0  0  0  0
 25 26  2  0  0  0  0
 26 27  1  0  0  0  0
M  END
>  <CHROM.1>
102.64492411,-66.63741228,-166.93886399,166.81000061,-126.67852771,67.45806443
83.25123179,14.17712397,-6.26863118,8.63938502,-2.76909837,-1.21298430,-1.54984666

>  <Name>
ligand

>  <RI>
0

>  <Rbt.Current_Directory>
/home/itssahil/PROJECTS/Mol_Feturizer/New_Systems/rnas/3GX5

>  <Rbt.Executable>
rbdock ($Id: //depot/dev/client3/rdock/2013.1/src/exe/rbdock.cxx#4 $)

>  <Rbt.Library>
libRbt.so (2013.1, Build901 2013/11/27)

>  <Rbt.Parameter_File>
/export/apps/rDock/src/rDock_2013.1_src/data/scripts/dock_solv.prm

>  <Rbt.Receptor>
prm/pocket_docking_2.prm

>  <SCORE>
-11.1923

>  <SCORE.INTER>
-12.0744

>  <SCORE.INTER.CONST>
1

>  <SCORE.INTER.POLAR>
0

>  <SCORE.INTER.ROT>
7

>  <SCORE.INTER.SOLV>
20.5545

>  <SCORE.INTER.VDW>
-23.1678

>  <SCORE.INTER.norm>
-0.447201

>  <SCORE.INTRA>
0.7908

>  <SCORE.INTRA.DIHEDRAL>
4.42227

>  <SCORE.INTRA.DIHEDRAL.0>
4.28829

>  <SCORE.INTRA.POLAR>
0

>  <SCORE.INTRA.POLAR.0>
0

>  <SCORE.INTRA.REPUL>
0

>  <SCORE.INTRA.REPUL.0>
0

>  <SCORE.INTRA.SOLV>
-0.575865

>  <SCORE.INTRA.SOLV.lig_0>
-48.6018

>  <SCORE.INTRA.VDW>
-1.1324

>  <SCORE.INTRA.VDW.0>
-2.1506

>  <SCORE.INTRA.norm>
0.0292889

>  <SCORE.RESTR>
0.0912983

>  <SCORE.RESTR.CAVITY>
0.0912983

>  <SCORE.RESTR.norm>
0.00338142

>  <SCORE.SYSTEM>
0

>  <SCORE.SYSTEM.CONST>
0

>  <SCORE.SYSTEM.DIHEDRAL>
0

>  <SCORE.SYSTEM.SOLV>
0

>  <SCORE.SYSTEM.norm>
0

>  <SCORE.heavy>
27

>  <SCORE.norm>
-0.414531

>  <RMSD>
1.188

$$$$
ligand
 OpenBabel11021811483D
libRbt.so/2013.1/901 2013/11/27
 27 29  0  0  0  0  0  0  0  0999 V2000
   16.1750   -5.0229   10.3815 N   0  0  0  0  0  0  0  0  0  0  0  0
   14.9893   -5.8127   10.7192 C   0  0  2  0  0  0  0  0  0  0  0  0
   14.2277   -5.3659   11.9695 C   0  0  0  0  0  0  0  0  0  0  0  0
   13.0019   -5.4701   11.9852 O   0  0  0  0  0  0  0  0  0  0  0  0
   15.3267   -7.2920   10.7999 C   0  0  0  0  0  0  0  0  0  0  0  0
   14.1025   -8.1267   11.1346 C   0  0  0  0  0  0  0  0  0  0  0  0
   12.8540   -7.9712    9.8452 S   0  0  2  0  0  0  0  0  0  0  0  0
   11.7956   -9.3725   10.2638 C   0  0  0  0  0  0  0  0  0  0  0  0
   13.7440   -8.6757    8.4379 C   0  0  0  0  0  0  0  0  0  0  0  0
   13.3370   -7.9949    7.1442 C   0  0  1  0  0  0  0  0  0  0  0  0
   12.8015   -6.7172    7.4026 O   0  0  0  0  0  0  0  0  0  0  0  0
   14.5100   -7.7508    6.2153 C   0  0  1  0  0  0  0  0  0  0  0  0
   14.6108   -8.8399    5.3329 O   0  0  0  0  0  0  0  0  0  0  0  0
   14.1207   -6.4858    5.4773 C   0  0  1  0  0  0  0  0  0  0  0  0
   13.6188   -6.8714    4.2174 O   0  0  0  0  0  0  0  0  0  0  0  0
   13.0240   -5.8310    6.3199 C   0  0  2  0  0  0  0  0  0  0  0  0
   14.7874   -4.8988   12.9650 O   0  0  0  0  0  0  0  0  0  0  0  0
   17.2405   -3.1075    7.8103 N   0  0  0  0  0  0  0  0  0  0  0  0
   17.2027   -4.3520    7.2299 C   0  0  0  0  0  0  0  0  0  0  0  0
   15.9842   -4.9083    6.9083 N   0  0  0  0  0  0  0  0  0  0  0  0
   14.8289   -4.2498    7.1513 C   0  0  0  0  0  0  0  0  0  0  0  0
   14.8517   -2.9864    7.7242 C   0  0  0  0  0  0  0  0  0  0  0  0
   16.0759   -2.4148    8.0646 C   0  0  0  0  0  0  0  0  0  0  0  0
   16.1389   -1.2056    8.6228 N   0  0  0  0  0  0  0  0  0  0  0  0
   13.5682   -2.5599    7.8456 N   0  0  0  0  0  0  0  0  0  0  0  0
   12.7545   -3.5194    7.3477 C   0  0  0  0  0  0  0  0  0  0  0  0
   13.5204   -4.5704    6.9068 N   0  0  0  0  0  0  0  0  0  0  0  0
  2  1  1  1  0  0  0
  2  3  1  0  0  0  0
  2  5  1  0  0  0  0
  3  4  1  0  0  0  0
  3 17  1  0  0  0  0
  5  6  1  0  0  0  0
  7  6  1  1  0  0  0
  7  8  1  0  0  0  0
  7  9  1  0  0  0  0
 10  9  1  1  0  0  0
 10 11  1  0  0  0  0
 10 12  1  0  0  0  0
 11 16  1  0  0  0  0
 12 13  1  6  0  0  0
 12 14  1  0  0  0  0
 14 15  1  6  0  0  0
 14 16  1  0  0  0  0
 16 27  1  1  0  0  0
 18 19  2  0  0  0  0
 18 23  1  0  0  0  0
 19 20  1  0  0  0  0
 20 21  2  0  0  0  0
 21 22  1  0  0  0  0
 21 27  1  0  0  0  0
 22 23  2  0  0  0  0
 22 25  1  0  0  0  0
 23 24  1  0  0  0  0
 25 26  2  0  0  0  0
 26 27  1  0  0  0  0
M  END
>  <CHROM.1>
144.96326840,-179.37066621,62.19252722,164.74425872,-146.92689677,22.32565506
89.44142184,14.30651476,-5.82647146,8.47096299,-0.31486601,1.14245334,1.53436789

>  <Name>
ligand

>  <RI>
0

>  <Rbt.Current_Directory>
/home/itssahil/PROJECTS/Mol_Feturizer/New_Systems/rnas/3GX5

>  <Rbt.Executable>
rbdock ($Id: //depot/dev/client3/rdock/2013.1/src/exe/rbdock.cxx#4 $)

>  <Rbt.Library>
libRbt.so (2013.1, Build901 2013/11/27)

>  <Rbt.Parameter_File>
/export/apps/rDock/src/rDock_2013.1_src/data/scripts/dock_solv.prm

>  <Rbt.Receptor>
prm/pocket_docking_2.prm

>  <SCORE>
-8.59767

>  <SCORE.INTER>
-12.3224

>  <SCORE.INTER.CONST>
1

>  <SCORE.INTER.POLAR>
0

>  <SCORE.INTER.ROT>
7

>  <SCORE.INTER.SOLV>
17.2827

>  <SCORE.INTER.VDW>
-22.2425

>  <SCORE.INTER.norm>
-0.456384

>  <SCORE.INTRA>
3.15181

>  <SCORE.INTRA.DIHEDRAL>
6.26935

>  <SCORE.INTRA.DIHEDRAL.0>
4.28829

>  <SCORE.INTRA.POLAR>
0

>  <SCORE.INTRA.POLAR.0>
0

>  <SCORE.INTRA.REPUL>
0

>  <SCORE.INTRA.REPUL.0>
0

>  <SCORE.INTRA.SOLV>
1.21902

>  <SCORE.INTRA.SOLV.lig_0>
-48.6018

>  <SCORE.INTRA.VDW>
-0.592374

>  <SCORE.INTRA.VDW.0>
-2.1506

>  <SCORE.INTRA.norm>
0.116734

>  <SCORE.RESTR>
0.572882

>  <SCORE.RESTR.CAVITY>
0.572882

>  <SCORE.RESTR.norm>
0.0212178

>  <SCORE.SYSTEM>
0

>  <SCORE.SYSTEM.CONST>
0

>  <SCORE.SYSTEM.DIHEDRAL>
0

>  <SCORE.SYSTEM.SOLV>
0

>  <SCORE.SYSTEM.norm>
0

>  <SCORE.heavy>
27

>  <SCORE.norm>
-0.318432

>  <RMSD>
1.222

$$$$
ligand
 OpenBabel11021811483D
libRbt.so/2013.1/901 2013/11/27
 27 29  0  0  0  0  0  0  0  0999 V2000
   14.4199   -5.2995   12.7736 N   0  0  0  0  0  0  0  0  0  0  0  0
   15.5439   -6.0974   12.2801 C   0  0  2  0  0  0  0  0  0  0  0  0
   16.7910   -5.3082   11.8742 C   0  0  0  0  0  0  0  0  0  0  0  0
   16.6617   -4.1373   11.5195 O   0  0  0  0  0  0  0  0  0  0  0  0
   15.1042   -7.0172   11.1534 C   0  0  0  0  0  0  0  0  0  0  0  0
   13.8492   -7.7901   11.5209 C   0  0  0  0  0  0  0  0  0  0  0  0
   12.6346   -7.7002   10.1935 S   0  0  2  0  0  0  0  0  0  0  0  0
   11.6566   -9.1718   10.5639 C   0  0  0  0  0  0  0  0  0  0  0  0
   13.6123   -8.3288    8.8088 C   0  0  0  0  0  0  0  0  0  0  0  0
   13.1311   -7.7407    7.4952 C   0  0  1  0  0  0  0  0  0  0  0  0
   12.8426   -6.3690    7.6413 O   0  0  0  0  0  0  0  0  0  0  0  0
   14.1796   -7.8093    6.4023 C   0  0  1  0  0  0  0  0  0  0  0  0
   13.9814   -8.9933    5.6716 O   0  0  0  0  0  0  0  0  0  0  0  0
   13.8869   -6.5892    5.5528 C   0  0  1  0  0  0  0  0  0  0  0  0
   13.1532   -7.0245    4.4302 O   0  0  0  0  0  0  0  0  0  0  0  0
   13.0390   -5.6639    6.4283 C   0  0  2  0  0  0  0  0  0  0  0  0
   17.9249   -5.7952   11.8806 O   0  0  0  0  0  0  0  0  0  0  0  0
   17.7798   -3.6427    7.3542 N   0  0  0  0  0  0  0  0  0  0  0  0
   17.4670   -4.9355    7.0106 C   0  0  0  0  0  0  0  0  0  0  0  0
   16.1481   -5.2782    6.8082 N   0  0  0  0  0  0  0  0  0  0  0  0
   15.1603   -4.3646    6.9392 C   0  0  0  0  0  0  0  0  0  0  0  0
   15.4618   -3.0520    7.2720 C   0  0  0  0  0  0  0  0  0  0  0  0
   16.7902   -2.6924    7.4900 C   0  0  0  0  0  0  0  0  0  0  0  0
   17.1195   -1.4427    7.8179 N   0  0  0  0  0  0  0  0  0  0  0  0
   14.2965   -2.3570    7.3269 N   0  0  0  0  0  0  0  0  0  0  0  0
   13.2851   -3.2019    7.0206 C   0  0  0  0  0  0  0  0  0  0  0  0
   13.8041   -4.4484    6.7706 N   0  0  0  0  0  0  0  0  0  0  0  0
  2  1  1  6  0  0  0
  2  3  1  0  0  0  0
  2  5  1  0  0  0  0
  3  4  1  0  0  0  0
  3 17  1  0  0  0  0
  5  6  1  0  0  0  0
  7  6  1  1  0  0  0
  7  8  1  0  0  0  0
  7  9  1  0  0  0  0
 10  9  1  1  0  0  0
 10 11  1  0  0  0  0
 10 12  1  0  0  0  0
 11 16  1  0  0  0  0
 12 13  1  6  0  0  0
 12 14  1  0  0  0  0
 14 15  1  6  0  0  0
 14 16  1  0  0  0  0
 16 27  1  1  0  0  0
 18 19  2  0  0  0  0
 18 23  1  0  0  0  0
 19 20  1  0  0  0  0
 20 21  2  0  0  0  0
 21 22  1  0  0  0  0
 21 27  1  0  0  0  0
 22 23  2  0  0  0  0
 22 25  1  0  0  0  0
 23 24  1  0  0  0  0
 25 26  2  0  0  0  0
 26 27  1  0  0  0  0
M  END
>  <CHROM.1>
-25.76257728,-48.97011665,131.92955312,157.41449379,-151.32834935,41.55404505
82.17252114,14.67803759,-5.80304522,8.55165858,-2.55050118,-0.88248120,-1.23875623

>  <Name>
ligand

>  <RI>
0

>  <Rbt.Current_Directory>
/home/itssahil/PROJECTS/Mol_Feturizer/New_Systems/rnas/3GX5

>  <Rbt.Executable>
rbdock ($Id: //depot/dev/client3/rdock/2013.1/src/exe/rbdock.cxx#4 $)

>  <Rbt.Library>
libRbt.so (2013.1, Build901 2013/11/27)

>  <Rbt.Parameter_File>
/export/apps/rDock/src/rDock_2013.1_src/data/scripts/dock_solv.prm

>  <Rbt.Receptor>
prm/pocket_docking_4.prm

>  <SCORE>
-8.19141

>  <SCORE.INTER>
-12.9625

>  <SCORE.INTER.CONST>
1

>  <SCORE.INTER.POLAR>
0

>  <SCORE.INTER.ROT>
7

>  <SCORE.INTER.SOLV>
21.5569

>  <SCORE.INTER.VDW>
-24.094

>  <SCORE.INTER.norm>
-0.480093

>  <SCORE.INTRA>
4.77109

>  <SCORE.INTRA.DIHEDRAL>
9.07401

>  <SCORE.INTRA.DIHEDRAL.0>
4.28829

>  <SCORE.INTRA.POLAR>
0

>  <SCORE.INTRA.POLAR.0>
0

>  <SCORE.INTRA.REPUL>
0

>  <SCORE.INTRA.REPUL.0>
0

>  <SCORE.INTRA.SOLV>
0.079627

>  <SCORE.INTRA.SOLV.lig_0>
-48.6018

>  <SCORE.INTRA.VDW>
0.194276

>  <SCORE.INTRA.VDW.0>
-2.1506

>  <SCORE.INTRA.norm>
0.176707

>  <SCORE.RESTR>
0

>  <SCORE.RESTR.CAVITY>
0

>  <SCORE.RESTR.norm>
0

>  <SCORE.SYSTEM>
0

>  <SCORE.SYSTEM.CONST>
0

>  <SCORE.SYSTEM.DIHEDRAL>
0

>  <SCORE.SYSTEM.SOLV>
0

>  <SCORE.SYSTEM.norm>
0

>  <SCORE.heavy>
27

>  <SCORE.norm>
-0.303386

>  <RMSD>
1.236

$$$$
ligand
 OpenBabel11021811483D
libRbt.so/2013.1/901 2013/11/27
 27 29  0  0  0  0  0  0  0  0999 V2000
   14.7737   -6.6844   12.4163 N   0  0  0  0  0  0  0  0  0  0  0  0
   14.1833   -6.3053   11.1311 C   0  0  2  0  0  0  0  0  0  0  0  0
   14.4517   -4.8691   10.6748 C   0  0  0  0  0  0  0  0  0  0  0  0
   15.5007   -4.3250   11.0171 O   0  0  0  0  0  0  0  0  0  0  0  0
   12.6934   -6.6029   11.1087 C   0  0  0  0  0  0  0  0  0  0  0  0
   12.4046   -8.0394   11.5092 C   0  0  0  0  0  0  0  0  0  0  0  0
   12.2732   -9.0921   10.0533 S   0  0  2  0  0  0  0  0  0  0  0  0
   12.9922  -10.6154   10.7026 C   0  0  0  0  0  0  0  0  0  0  0  0
   13.6735   -8.4880    9.0822 C   0  0  0  0  0  0  0  0  0  0  0  0
   13.2452   -8.1520    7.6656 C   0  0  1  0  0  0  0  0  0  0  0  0
   12.7710   -6.8270    7.5914 O   0  0  0  0  0  0  0  0  0  0  0  0
   14.3909   -8.2174    6.6750 C   0  0  1  0  0  0  0  0  0  0  0  0
   14.4148   -9.5036    6.1092 O   0  0  0  0  0  0  0  0  0  0  0  0
   14.0245   -7.1734    5.6397 C   0  0  1  0  0  0  0  0  0  0  0  0
   13.4604   -7.8516    4.5398 O   0  0  0  0  0  0  0  0  0  0  0  0
   12.9874   -6.2681    6.3077 C   0  0  2  0  0  0  0  0  0  0  0  0
   13.6591   -4.2263    9.9810 O   0  0  0  0  0  0  0  0  0  0  0  0
   17.0494   -3.5258    8.1511 N   0  0  0  0  0  0  0  0  0  0  0  0
   16.9066   -4.8912    8.1025 C   0  0  0  0  0  0  0  0  0  0  0  0
   15.7523   -5.4293    7.5774 N   0  0  0  0  0  0  0  0  0  0  0  0
   14.7622   -4.6375    7.1080 C   0  0  0  0  0  0  0  0  0  0  0  0
   14.8979   -3.2572    7.1376 C   0  0  0  0  0  0  0  0  0  0  0  0
   16.0552   -2.6977    7.6751 C   0  0  0  0  0  0  0  0  0  0  0  0
   16.2199   -1.3756    7.7273 N   0  0  0  0  0  0  0  0  0  0  0  0
   13.7734   -2.7156    6.6023 N   0  0  0  0  0  0  0  0  0  0  0  0
   12.9544   -3.7254    6.2279 C   0  0  0  0  0  0  0  0  0  0  0  0
   13.5553   -4.9231    6.5278 N   0  0  0  0  0  0  0  0  0  0  0  0
  2  1  1  1  0  0  0
  2  3  1  0  0  0  0
  2  5  1  0  0  0  0
  3  4  1  0  0  0  0
  3 17  1  0  0  0  0
  5  6  1  0  0  0  0
  7  6  1  1  0  0  0
  7  8  1  0  0  0  0
  7  9  1  0  0  0  0
 10  9  1  1  0  0  0
 10 11  1  0  0  0  0
 10 12  1  0  0  0  0
 11 16  1  0  0  0  0
 12 13  1  6  0  0  0
 12 14  1  0  0  0  0
 14 15  1  6  0  0  0
 14 16  1  0  0  0  0
 16 27  1  1  0  0  0
 18 19  2  0  0  0  0
 18 23  1  0  0  0  0
 19 20  1  0  0  0  0
 20 21  2  0  0  0  0
 21 22  1  0  0  0  0
 21 27  1  0  0  0  0
 22 23  2  0  0  0  0
 22 25  1  0  0  0  0
 23 24  1  0  0  0  0
 25 26  2  0  0  0  0
 26 27  1  0  0  0  0
M  END
>  <CHROM.1>
30.20445138,-52.29112448,-94.48120553,145.12295464,-129.20064416,87.12541070
64.33970464,14.09751459,-6.15813544,8.43501668,-2.79297895,-1.17483977,-1.57958580

>  <Name>
ligand

>  <RI>
0

>  <Rbt.Current_Directory>
/home/itssahil/PROJECTS/Mol_Feturizer/New_Systems/rnas/3GX5

>  <Rbt.Executable>
rbdock ($Id: //depot/dev/client3/rdock/2013.1/src/exe/rbdock.cxx#4 $)

>  <Rbt.Library>
libRbt.so (2013.1, Build901 2013/11/27)

>  <Rbt.Parameter_File>
/export/apps/rDock/src/rDock_2013.1_src/data/scripts/dock_solv.prm

>  <Rbt.Receptor>
prm/pocket_docking_2.prm

>  <SCORE>
-8.77038

>  <SCORE.INTER>
-13.1878

>  <SCORE.INTER.CONST>
1

>  <SCORE.INTER.POLAR>
0

>  <SCORE.INTER.ROT>
7

>  <SCORE.INTER.SOLV>
16.6444

>  <SCORE.INTER.VDW>
-22.6067

>  <SCORE.INTER.norm>
-0.488437

>  <SCORE.INTRA>
4.34189

>  <SCORE.INTRA.DIHEDRAL>
10.9334

>  <SCORE.INTRA.DIHEDRAL.0>
4.28829

>  <SCORE.INTRA.POLAR>
0

>  <SCORE.INTRA.POLAR.0>
0

>  <SCORE.INTRA.REPUL>
0

>  <SCORE.INTRA.REPUL.0>
0

>  <SCORE.INTRA.SOLV>
0.645115

>  <SCORE.INTRA.SOLV.lig_0>
-48.6018

>  <SCORE.INTRA.VDW>
-1.44737

>  <SCORE.INTRA.VDW.0>
-2.1506

>  <SCORE.INTRA.norm>
0.160811

>  <SCORE.RESTR>
0.0755394

>  <SCORE.RESTR.CAVITY>
0.0755394

>  <SCORE.RESTR.norm>
0.00279776

>  <SCORE.SYSTEM>
0

>  <SCORE.SYSTEM.CONST>
0

>  <SCORE.SYSTEM.DIHEDRAL>
0

>  <SCORE.SYSTEM.SOLV>
0

>  <SCORE.SYSTEM.norm>
0

>  <SCORE.heavy>
27

>  <SCORE.norm>
-0.324829

>  <RMSD>
1.240

$$$$
ligand
 OpenBabel11021811483D
libRbt.so/2013.1/901 2013/11/27
 27 29  0  0  0  0  0  0  0  0999 V2000
   14.4564   -6.8572   14.0366 N   0  0  0  0  0  0  0  0  0  0  0  0
   14.8452   -6.4241   12.6930 C   0  0  2  0  0  0  0  0  0  0  0  0
   14.9502   -4.9110   12.4873 C   0  0  0  0  0  0  0  0  0  0  0  0
   15.4970   -4.2317   13.3552 O   0  0  0  0  0  0  0  0  0  0  0  0
   13.9429   -7.0446   11.6396 C   0  0  0  0  0  0  0  0  0  0  0  0
   13.9570   -8.5617   11.7155 C   0  0  0  0  0  0  0  0  0  0  0  0
   13.0227   -9.2760   10.3509 S   0  0  2  0  0  0  0  0  0  0  0  0
   13.3778  -11.0268   10.6111 C   0  0  0  0  0  0  0  0  0  0  0  0
   14.1446   -8.9426    8.9730 C   0  0  0  0  0  0  0  0  0  0  0  0
   13.3784   -8.4577    7.7561 C   0  0  1  0  0  0  0  0  0  0  0  0
   12.8608   -7.1657    7.9776 O   0  0  0  0  0  0  0  0  0  0  0  0
   14.2538   -8.3267    6.5253 C   0  0  1  0  0  0  0  0  0  0  0  0
   14.1794   -9.5273    5.7986 O   0  0  0  0  0  0  0  0  0  0  0  0
   13.6181   -7.1850    5.7580 C   0  0  1  0  0  0  0  0  0  0  0  0
   12.8266   -7.7527    4.7385 O   0  0  0  0  0  0  0  0  0  0  0  0
   12.7454   -6.4371    6.7681 C   0  0  2  0  0  0  0  0  0  0  0  0
   14.5052   -4.3370   11.4897 O   0  0  0  0  0  0  0  0  0  0  0  0
   17.1146   -3.6031    7.3131 N   0  0  0  0  0  0  0  0  0  0  0  0
   17.0086   -4.9405    7.0175 C   0  0  0  0  0  0  0  0  0  0  0  0
   15.7588   -5.5109    6.9168 N   0  0  0  0  0  0  0  0  0  0  0  0
   14.6384   -4.7772    7.1007 C   0  0  0  0  0  0  0  0  0  0  0  0
   14.7291   -3.4226    7.3860 C   0  0  0  0  0  0  0  0  0  0  0  0
   15.9864   -2.8333    7.5013 C   0  0  0  0  0  0  0  0  0  0  0  0
   16.1150   -1.5360    7.7809 N   0  0  0  0  0  0  0  0  0  0  0  0
   13.4671   -2.9368    7.5111 N   0  0  0  0  0  0  0  0  0  0  0  0
   12.5995   -3.9522    7.2942 C   0  0  0  0  0  0  0  0  0  0  0  0
   13.3091   -5.0981    7.0315 N   0  0  0  0  0  0  0  0  0  0  0  0
  2  1  1  1  0  0  0
  2  3  1  0  0  0  0
  2  5  1  0  0  0  0
  3  4  1  0  0  0  0
  3 17  1  0  0  0  0
  5  6  1  0  0  0  0
  7  6  1  1  0  0  0
  7  8  1  0  0  0  0
  7  9  1  0  0  0  0
 10  9  1  1  0  0  0
 10 11  1  0  0  0  0
 10 12  1  0  0  0  0
 11 16  1  0  0  0  0
 12 13  1  6  0  0  0
 12 14  1  0  0  0  0
 14 15  1  6  0  0  0
 14 16  1  0  0  0  0
 16 27  1  1  0  0  0
 18 19  2  0  0  0  0
 18 23  1  0  0  0  0
 19 20  1  0  0  0  0
 20 21  2  0  0  0  0
 21 22  1  0  0  0  0
 21 27  1  0  0  0  0
 22 23  2  0  0  0  0
 22 25  1  0  0  0  0
 23 24  1  0  0  0  0
 25 26  2  0  0  0  0
 26 27  1  0  0  0  0
M  END
>  <CHROM.1>
43.27696382,-57.21413653,-173.95189276,174.03104541,-137.52599393,69.63045863
77.34045879,14.25846060,-6.33060855,8.83105925,-2.03793642,-1.23193067,-1.34677880

>  <Name>
ligand

>  <RI>
0

>  <Rbt.Current_Directory>
/home/itssahil/PROJECTS/Mol_Feturizer/New_Systems/rnas/3GX5

>  <Rbt.Executable>
rbdock ($Id: //depot/dev/client3/rdock/2013.1/src/exe/rbdock.cxx#4 $)

>  <Rbt.Library>
libRbt.so (2013.1, Build901 2013/11/27)

>  <Rbt.Parameter_File>
/export/apps/rDock/src/rDock_2013.1_src/data/scripts/dock_solv.prm

>  <Rbt.Receptor>
prm/pocket_docking_2.prm

>  <SCORE>
-10.4684

>  <SCORE.INTER>
-12.2526

>  <SCORE.INTER.CONST>
1

>  <SCORE.INTER.POLAR>
0

>  <SCORE.INTER.ROT>
7

>  <SCORE.INTER.SOLV>
18.955

>  <SCORE.INTER.VDW>
-22.7534

>  <SCORE.INTER.norm>
-0.4538

>  <SCORE.INTRA>
1.50657

>  <SCORE.INTRA.DIHEDRAL>
3.70391

>  <SCORE.INTRA.DIHEDRAL.0>
4.28829

>  <SCORE.INTRA.POLAR>
0

>  <SCORE.INTRA.POLAR.0>
0

>  <SCORE.INTRA.REPUL>
0

>  <SCORE.INTRA.REPUL.0>
0

>  <SCORE.INTRA.SOLV>
-0.515586

>  <SCORE.INTRA.SOLV.lig_0>
-48.6018

>  <SCORE.INTRA.VDW>
-0.0875895

>  <SCORE.INTRA.VDW.0>
-2.1506

>  <SCORE.INTRA.norm>
0.0557989

>  <SCORE.RESTR>
0.277591

>  <SCORE.RESTR.CAVITY>
0.277591

>  <SCORE.RESTR.norm>
0.0102812

>  <SCORE.SYSTEM>
0

>  <SCORE.SYSTEM.CONST>
0

>  <SCORE.SYSTEM.DIHEDRAL>
0

>  <SCORE.SYSTEM.SOLV>
0

>  <SCORE.SYSTEM.norm>
0

>  <SCORE.heavy>
27

>  <SCORE.norm>
-0.38772

>  <RMSD>
1.243

$$$$
ligand
 OpenBabel11021811483D
libRbt.so/2013.1/901 2013/11/27
 27 29  0  0  0  0  0  0  0  0999 V2000
   14.4671   -6.4328   13.7259 N   0  0  0  0  0  0  0  0  0  0  0  0
   14.7804   -6.4129   12.2958 C   0  0  2  0  0  0  0  0  0  0  0  0
   14.8087   -5.0296   11.6412 C   0  0  0  0  0  0  0  0  0  0  0  0
   15.8973   -4.5266   11.3659 O   0  0  0  0  0  0  0  0  0  0  0  0
   13.8642   -7.3492   11.5257 C   0  0  0  0  0  0  0  0  0  0  0  0
   14.3485   -7.5579   10.1012 C   0  0  0  0  0  0  0  0  0  0  0  0
   13.7141   -9.1062    9.4336 S   0  0  2  0  0  0  0  0  0  0  0  0
   14.6942  -10.2837   10.3887 C   0  0  0  0  0  0  0  0  0  0  0  0
   14.6052   -9.1772    7.8621 C   0  0  0  0  0  0  0  0  0  0  0  0
   13.7444   -8.6532    6.7274 C   0  0  1  0  0  0  0  0  0  0  0  0
   13.1937   -7.3994    7.0602 O   0  0  0  0  0  0  0  0  0  0  0  0
   14.5331   -8.4129    5.4552 C   0  0  1  0  0  0  0  0  0  0  0  0
   14.4575   -9.5703    4.6616 O   0  0  0  0  0  0  0  0  0  0  0  0
   13.8066   -7.2552    4.8009 C   0  0  1  0  0  0  0  0  0  0  0  0
   12.9731   -7.7938    3.7993 O   0  0  0  0  0  0  0  0  0  0  0  0
   12.9732   -6.6056    5.9077 C   0  0  2  0  0  0  0  0  0  0  0  0
   13.7864   -4.3896   11.3804 O   0  0  0  0  0  0  0  0  0  0  0  0
   16.8501   -3.8800    8.1343 N   0  0  0  0  0  0  0  0  0  0  0  0
   16.7342   -5.2444    8.0239 C   0  0  0  0  0  0  0  0  0  0  0  0
   15.6284   -5.7779    7.3991 N   0  0  0  0  0  0  0  0  0  0  0  0
   14.6602   -4.9825    6.8918 C   0  0  0  0  0  0  0  0  0  0  0  0
   14.7700   -3.6026    6.9833 C   0  0  0  0  0  0  0  0  0  0  0  0
   15.8775   -3.0481    7.6216 C   0  0  0  0  0  0  0  0  0  0  0  0
   16.0159   -1.7269    7.7354 N   0  0  0  0  0  0  0  0  0  0  0  0
   13.6766   -3.0566    6.3914 N   0  0  0  0  0  0  0  0  0  0  0  0
   12.9027   -4.0625    5.9224 C   0  0  0  0  0  0  0  0  0  0  0  0
   13.5015   -5.2623    6.2179 N   0  0  0  0  0  0  0  0  0  0  0  0
  2  1  1  1  0  0  0
  2  3  1  0  0  0  0
  2  5  1  0  0  0  0
  3  4  1  0  0  0  0
  3 17  1  0  0  0  0
  5  6  1  0  0  0  0
  7  6  1  1  0  0  0
  7  8  1  0  0  0  0
  7  9  1  0  0  0  0
 10  9  1  1  0  0  0
 10 11  1  0  0  0  0
 10 12  1  0  0  0  0
 11 16  1  0  0  0  0
 12 13  1  6  0  0  0
 12 14  1  0  0  0  0
 14 15  1  6  0  0  0
 14 16  1  0  0  0  0
 16 27  1  1  0  0  0
 18 19  2  0  0  0  0
 18 23  1  0  0  0  0
 19 20  1  0  0  0  0
 20 21  2  0  0  0  0
 21 22  1  0  0  0  0
 21 27  1  0  0  0  0
 22 23  2  0  0  0  0
 22 25  1  0  0  0  0
 23 24  1  0  0  0  0
 25 26  2  0  0  0  0
 26 27  1  0  0  0  0
M  END
>  <CHROM.1>
105.00443071,-168.44925783,156.82288733,-71.34256281,-97.19208602,50.29806265
40.77504633,14.43716758,-6.37177825,8.20481276,0.81402837,1.33182184,2.05425161

>  <Name>
ligand

>  <RI>
0

>  <Rbt.Current_Directory>
/home/itssahil/PROJECTS/Mol_Feturizer/New_Systems/rnas/3GX5

>  <Rbt.Executable>
rbdock ($Id: //depot/dev/client3/rdock/2013.1/src/exe/rbdock.cxx#4 $)

>  <Rbt.Library>
libRbt.so (2013.1, Build901 2013/11/27)

>  <Rbt.Parameter_File>
/export/apps/rDock/src/rDock_2013.1_src/data/scripts/dock_solv.prm

>  <Rbt.Receptor>
prm/pocket_docking_2.prm

>  <SCORE>
-13.1699

>  <SCORE.INTER>
-12.6476

>  <SCORE.INTER.CONST>
1

>  <SCORE.INTER.POLAR>
0

>  <SCORE.INTER.ROT>
7

>  <SCORE.INTER.SOLV>
19.2646

>  <SCORE.INTER.VDW>
-23.1199

>  <SCORE.INTER.norm>
-0.468428

>  <SCORE.INTRA>
-0.534567

>  <SCORE.INTRA.DIHEDRAL>
3.71294

>  <SCORE.INTRA.DIHEDRAL.0>
4.28829

>  <SCORE.INTRA.POLAR>
0

>  <SCORE.INTRA.POLAR.0>
0

>  <SCORE.INTRA.REPUL>
0

>  <SCORE.INTRA.REPUL.0>
0

>  <SCORE.INTRA.SOLV>
-1.19137

>  <SCORE.INTRA.SOLV.lig_0>
-48.6018

>  <SCORE.INTRA.VDW>
-1.79535

>  <SCORE.INTRA.VDW.0>
-2.1506

>  <SCORE.INTRA.norm>
-0.0197988

>  <SCORE.RESTR>
0.012188

>  <SCORE.RESTR.CAVITY>
0.012188

>  <SCORE.RESTR.norm>
0.000451409

>  <SCORE.SYSTEM>
0

>  <SCORE.SYSTEM.CONST>
0

>  <SCORE.SYSTEM.DIHEDRAL>
0

>  <SCORE.SYSTEM.SOLV>
0

>  <SCORE.SYSTEM.norm>
0

>  <SCORE.heavy>
27

>  <SCORE.norm>
-0.487776

>  <RMSD>
1.254

$$$$
ligand
 OpenBabel11021811483D
libRbt.so/2013.1/901 2013/11/27
 27 29  0  0  0  0  0  0  0  0999 V2000
   12.5862   -7.3291   13.3683 N   0  0  0  0  0  0  0  0  0  0  0  0
   13.5296   -7.2831   12.2496 C   0  0  2  0  0  0  0  0  0  0  0  0
   14.7586   -6.3938   12.4533 C   0  0  0  0  0  0  0  0  0  0  0  0
   15.8674   -6.8395   12.1606 O   0  0  0  0  0  0  0  0  0  0  0  0
   12.8200   -6.9243   10.9547 C   0  0  0  0  0  0  0  0  0  0  0  0
   13.6651   -7.2690    9.7405 C   0  0  0  0  0  0  0  0  0  0  0  0
   13.4633   -9.0031    9.2959 S   0  0  2  0  0  0  0  0  0  0  0  0
   14.6246   -9.7599   10.4525 C   0  0  0  0  0  0  0  0  0  0  0  0
   14.4538   -9.0734    7.7851 C   0  0  0  0  0  0  0  0  0  0  0  0
   13.6834   -8.5087    6.6059 C   0  0  1  0  0  0  0  0  0  0  0  0
   13.1164   -7.2611    6.9348 O   0  0  0  0  0  0  0  0  0  0  0  0
   14.5665   -8.2363    5.4041 C   0  0  1  0  0  0  0  0  0  0  0  0
   14.5441   -9.3686    4.5719 O   0  0  0  0  0  0  0  0  0  0  0  0
   13.8977   -7.0537    4.7332 C   0  0  1  0  0  0  0  0  0  0  0  0
   13.1385   -7.5552    3.6560 O   0  0  0  0  0  0  0  0  0  0  0  0
   12.9873   -6.4313    5.7939 C   0  0  2  0  0  0  0  0  0  0  0  0
   14.6900   -5.2474   12.9048 O   0  0  0  0  0  0  0  0  0  0  0  0
   17.0931   -3.7203    7.5859 N   0  0  0  0  0  0  0  0  0  0  0  0
   17.0270   -5.0636    7.3062 C   0  0  0  0  0  0  0  0  0  0  0  0
   15.8456   -5.5971    6.8399 N   0  0  0  0  0  0  0  0  0  0  0  0
   14.7546   -4.8216    6.6511 C   0  0  0  0  0  0  0  0  0  0  0  0
   14.8100   -3.4609    6.9158 C   0  0  0  0  0  0  0  0  0  0  0  0
   15.9948   -2.9083    7.3978 C   0  0  0  0  0  0  0  0  0  0  0  0
   16.0856   -1.6063    7.6702 N   0  0  0  0  0  0  0  0  0  0  0  0
   13.5920   -2.9307    6.6336 N   0  0  0  0  0  0  0  0  0  0  0  0
   12.7912   -3.9251    6.1860 C   0  0  0  0  0  0  0  0  0  0  0  0
   13.4985   -5.1021    6.1839 N   0  0  0  0  0  0  0  0  0  0  0  0
  2  1  1  1  0  0  0
  2  3  1  0  0  0  0
  2  5  1  0  0  0  0
  3  4  1  0  0  0  0
  3 17  1  0  0  0  0
  5  6  1  0  0  0  0
  7  6  1  1  0  0  0
  7  8  1  0  0  0  0
  7  9  1  0  0  0  0
 10  9  1  1  0  0  0
 10 11  1  0  0  0  0
 10 12  1  0  0  0  0
 11 16  1  0  0  0  0
 12 13  1  6  0  0  0
 12 14  1  0  0  0  0
 14 15  1  6  0  0  0
 14 16  1  0  0  0  0
 16 27  1  1  0  0  0
 18 19  2  0  0  0  0
 18 23  1  0  0  0  0
 19 20  1  0  0  0  0
 20 21  2  0  0  0  0
 21 22  1  0  0  0  0
 21 27  1  0  0  0  0
 22 23  2  0  0  0  0
 22 25  1  0  0  0  0
 23 24  1  0  0  0  0
 25 26  2  0  0  0  0
 26 27  1  0  0  0  0
M  END
>  <CHROM.1>
133.36157084,-163.02971210,83.75823826,-82.49630847,-79.04072197,48.82150624
58.30977734,14.31038253,-6.44970647,8.17393996,1.71342696,1.26444225,1.67027629

>  <Name>
ligand

>  <RI>
0

>  <Rbt.Current_Directory>
/home/itssahil/PROJECTS/Mol_Feturizer/New_Systems/rnas/3GX5

>  <Rbt.Executable>
rbdock ($Id: //depot/dev/client3/rdock/2013.1/src/exe/rbdock.cxx#4 $)

>  <Rbt.Library>
libRbt.so (2013.1, Build901 2013/11/27)

>  <Rbt.Parameter_File>
/export/apps/rDock/src/rDock_2013.1_src/data/scripts/dock_solv.prm

>  <Rbt.Receptor>
prm/pocket_docking_4.prm

>  <SCORE>
-14.0267

>  <SCORE.INTER>
-14.0742

>  <SCORE.INTER.CONST>
1

>  <SCORE.INTER.POLAR>
0

>  <SCORE.INTER.ROT>
7

>  <SCORE.INTER.SOLV>
17.7844

>  <SCORE.INTER.VDW>
-23.5776

>  <SCORE.INTER.norm>
-0.521267

>  <SCORE.INTRA>
0.0475546

>  <SCORE.INTRA.DIHEDRAL>
3.1887

>  <SCORE.INTRA.DIHEDRAL.0>
4.28829

>  <SCORE.INTRA.POLAR>
0

>  <SCORE.INTRA.POLAR.0>
0

>  <SCORE.INTRA.REPUL>
0

>  <SCORE.INTRA.REPUL.0>
0

>  <SCORE.INTRA.SOLV>
-0.59716

>  <SCORE.INTRA.SOLV.lig_0>
-48.6018

>  <SCORE.INTRA.VDW>
-1.24822

>  <SCORE.INTRA.VDW.0>
-2.1506

>  <SCORE.INTRA.norm>
0.00176128

>  <SCORE.RESTR>
0

>  <SCORE.RESTR.CAVITY>
0

>  <SCORE.RESTR.norm>
0

>  <SCORE.SYSTEM>
0

>  <SCORE.SYSTEM.CONST>
0

>  <SCORE.SYSTEM.DIHEDRAL>
0

>  <SCORE.SYSTEM.SOLV>
0

>  <SCORE.SYSTEM.norm>
0

>  <SCORE.heavy>
27

>  <SCORE.norm>
-0.519506

>  <RMSD>
1.273

$$$$
ligand
 OpenBabel11021811483D
libRbt.so/2013.1/901 2013/11/27
 27 29  0  0  0  0  0  0  0  0999 V2000
   16.7470   -6.4741   10.8784 N   0  0  0  0  0  0  0  0  0  0  0  0
   15.3375   -6.3416   11.2524 C   0  0  2  0  0  0  0  0  0  0  0  0
   15.0226   -5.2513   12.2795 C   0  0  0  0  0  0  0  0  0  0  0  0
   14.4849   -4.2134   11.8958 O   0  0  0  0  0  0  0  0  0  0  0  0
   14.7659   -7.6768   11.6989 C   0  0  0  0  0  0  0  0  0  0  0  0
   14.7310   -8.6790   10.5580 C   0  0  0  0  0  0  0  0  0  0  0  0
   13.4990   -8.2054    9.3320 S   0  0  2  0  0  0  0  0  0  0  0  0
   12.1986   -9.3964    9.7187 C   0  0  0  0  0  0  0  0  0  0  0  0
   14.1897   -8.9829    7.8532 C   0  0  0  0  0  0  0  0  0  0  0  0
   13.5514   -8.4195    6.5969 C   0  0  1  0  0  0  0  0  0  0  0  0
   13.0044   -7.1449    6.8467 O   0  0  0  0  0  0  0  0  0  0  0  0
   14.5495   -8.2079    5.4757 C   0  0  1  0  0  0  0  0  0  0  0  0
   14.5600   -9.3583    4.6686 O   0  0  0  0  0  0  0  0  0  0  0  0
   13.9895   -7.0186    4.7220 C   0  0  1  0  0  0  0  0  0  0  0  0
   13.3128   -7.5184    3.5905 O   0  0  0  0  0  0  0  0  0  0  0  0
   13.0108   -6.3386    5.6818 C   0  0  2  0  0  0  0  0  0  0  0  0
   15.2889   -5.3626   13.4793 O   0  0  0  0  0  0  0  0  0  0  0  0
   17.1594   -3.6800    7.4535 N   0  0  0  0  0  0  0  0  0  0  0  0
   17.0828   -5.0171    7.1478 C   0  0  0  0  0  0  0  0  0  0  0  0
   15.8910   -5.5366    6.6924 N   0  0  0  0  0  0  0  0  0  0  0  0
   14.7999   -4.7533    6.5392 C   0  0  0  0  0  0  0  0  0  0  0  0
   14.8656   -3.3985    6.8306 C   0  0  0  0  0  0  0  0  0  0  0  0
   16.0612   -2.8603    7.3020 C   0  0  0  0  0  0  0  0  0  0  0  0
   16.1622   -1.5645    7.5992 N   0  0  0  0  0  0  0  0  0  0  0  0
   13.6449   -2.8582    6.5815 N   0  0  0  0  0  0  0  0  0  0  0  0
   12.8320   -3.8403    6.1283 C   0  0  0  0  0  0  0  0  0  0  0  0
   13.5344   -5.0196    6.0894 N   0  0  0  0  0  0  0  0  0  0  0  0
  2  1  1  1  0  0  0
  2  3  1  0  0  0  0
  2  5  1  0  0  0  0
  3  4  1  0  0  0  0
  3 17  1  0  0  0  0
  5  6  1  0  0  0  0
  7  6  1  1  0  0  0
  7  8  1  0  0  0  0
  7  9  1  0  0  0  0
 10  9  1  1  0  0  0
 10 11  1  0  0  0  0
 10 12  1  0  0  0  0
 11 16  1  0  0  0  0
 12 13  1  6  0  0  0
 12 14  1  0  0  0  0
 14 15  1  6  0  0  0
 14 16  1  0  0  0  0
 16 27  1  1  0  0  0
 18 19  2  0  0  0  0
 18 23  1  0  0  0  0
 19 20  1  0  0  0  0
 20 21  2  0  0  0  0
 21 22  1  0  0  0  0
 21 27  1  0  0  0  0
 22 23  2  0  0  0  0
 22 25  1  0  0  0  0
 23 24  1  0  0  0  0
 25 26  2  0  0  0  0
 26 27  1  0  0  0  0
M  END
>  <CHROM.1>
105.30631156,-65.44269702,-69.56715617,-104.43946573,-164.14369152,22.47320370
65.30380190,14.52433550,-6.20941383,8.05408934,1.04550470,1.21337375,1.95081043

>  <Name>
ligand

>  <RI>
0

>  <Rbt.Current_Directory>
/home/itssahil/PROJECTS/Mol_Feturizer/New_Systems/rnas/3GX5

>  <Rbt.Executable>
rbdock ($Id: //depot/dev/client3/rdock/2013.1/src/exe/rbdock.cxx#4 $)

>  <Rbt.Library>
libRbt.so (2013.1, Build901 2013/11/27)

>  <Rbt.Parameter_File>
/export/apps/rDock/src/rDock_2013.1_src/data/scripts/dock_solv.prm

>  <Rbt.Receptor>
prm/pocket_docking_4.prm

>  <SCORE>
-11.8922

>  <SCORE.INTER>
-15.0445

>  <SCORE.INTER.CONST>
1

>  <SCORE.INTER.POLAR>
0

>  <SCORE.INTER.ROT>
7

>  <SCORE.INTER.SOLV>
16.8715

>  <SCORE.INTER.VDW>
-23.9202

>  <SCORE.INTER.norm>
-0.557205

>  <SCORE.INTRA>
3.15236

>  <SCORE.INTRA.DIHEDRAL>
7.50712

>  <SCORE.INTRA.DIHEDRAL.0>
4.28829

>  <SCORE.INTRA.POLAR>
0

>  <SCORE.INTRA.POLAR.0>
0

>  <SCORE.INTRA.REPUL>
0

>  <SCORE.INTRA.REPUL.0>
0

>  <SCORE.INTRA.SOLV>
-0.0141658

>  <SCORE.INTRA.SOLV.lig_0>
-48.6018

>  <SCORE.INTRA.VDW>
-0.59412

>  <SCORE.INTRA.VDW.0>
-2.1506

>  <SCORE.INTRA.norm>
0.116754

>  <SCORE.RESTR>
0

>  <SCORE.RESTR.CAVITY>
0

>  <SCORE.RESTR.norm>
0

>  <SCORE.SYSTEM>
0

>  <SCORE.SYSTEM.CONST>
0

>  <SCORE.SYSTEM.DIHEDRAL>
0

>  <SCORE.SYSTEM.SOLV>
0

>  <SCORE.SYSTEM.norm>
0

>  <SCORE.heavy>
27

>  <SCORE.norm>
-0.44045

>  <RMSD>
1.293

$$$$
ligand
 OpenBabel11021811483D
libRbt.so/2013.1/901 2013/11/27
 27 29  0  0  0  0  0  0  0  0999 V2000
   15.1272   -6.6691   12.4455 N   0  0  0  0  0  0  0  0  0  0  0  0
   14.2340   -6.0839   11.4437 C   0  0  2  0  0  0  0  0  0  0  0  0
   14.3818   -4.5768   11.2215 C   0  0  0  0  0  0  0  0  0  0  0  0
   13.8684   -4.0718   10.2239 O   0  0  0  0  0  0  0  0  0  0  0  0
   12.7856   -6.4415   11.7319 C   0  0  0  0  0  0  0  0  0  0  0  0
   12.6086   -7.9368   11.9321 C   0  0  0  0  0  0  0  0  0  0  0  0
   12.1624   -8.7383   10.3817 S   0  0  2  0  0  0  0  0  0  0  0  0
   12.6585  -10.4342   10.7519 C   0  0  0  0  0  0  0  0  0  0  0  0
   13.5529   -8.2383    9.3400 C   0  0  0  0  0  0  0  0  0  0  0  0
   13.0871   -7.9202    7.9312 C   0  0  1  0  0  0  0  0  0  0  0  0
   12.7086   -6.5667    7.8271 O   0  0  0  0  0  0  0  0  0  0  0  0
   14.1791   -8.1055    6.8961 C   0  0  1  0  0  0  0  0  0  0  0  0
   14.0830   -9.4087    6.3788 O   0  0  0  0  0  0  0  0  0  0  0  0
   13.8442   -7.0734    5.8385 C   0  0  1  0  0  0  0  0  0  0  0  0
   13.1827   -7.7450    4.7899 O   0  0  0  0  0  0  0  0  0  0  0  0
   12.9074   -6.0703    6.5151 C   0  0  2  0  0  0  0  0  0  0  0  0
   14.9993   -3.8416   11.9967 O   0  0  0  0  0  0  0  0  0  0  0  0
   16.9804   -3.4992    8.5690 N   0  0  0  0  0  0  0  0  0  0  0  0
   16.7027   -4.8420    8.6516 C   0  0  0  0  0  0  0  0  0  0  0  0
   15.5706   -5.3344    8.0403 N   0  0  0  0  0  0  0  0  0  0  0  0
   14.7328   -4.5201    7.3601 C   0  0  0  0  0  0  0  0  0  0  0  0
   15.0073   -3.1642    7.2562 C   0  0  0  0  0  0  0  0  0  0  0  0
   16.1431   -2.6494    7.8778 C   0  0  0  0  0  0  0  0  0  0  0  0
   16.4375   -1.3510    7.8064 N   0  0  0  0  0  0  0  0  0  0  0  0
   14.0188   -2.5933    6.5207 N   0  0  0  0  0  0  0  0  0  0  0  0
   13.1501   -3.5636    6.1539 C   0  0  0  0  0  0  0  0  0  0  0  0
   13.5819   -4.7649    6.6599 N   0  0  0  0  0  0  0  0  0  0  0  0
  2  1  1  1  0  0  0
  2  3  1  0  0  0  0
  2  5  1  0  0  0  0
  3  4  1  0  0  0  0
  3 17  1  0  0  0  0
  5  6  1  0  0  0  0
  7  6  1  1  0  0  0
  7  8  1  0  0  0  0
  7  9  1  0  0  0  0
 10  9  1  1  0  0  0
 10 11  1  0  0  0  0
 10 12  1  0  0  0  0
 11 16  1  0  0  0  0
 12 13  1  6  0  0  0
 12 14  1  0  0  0  0
 14 15  1  6  0  0  0
 14 16  1  0  0  0  0
 16 27  1  1  0  0  0
 18 19  2  0  0  0  0
 18 23  1  0  0  0  0
 19 20  1  0  0  0  0
 20 21  2  0  0  0  0
 21 22  1  0  0  0  0
 21 27  1  0  0  0  0
 22 23  2  0  0  0  0
 22 25  1  0  0  0  0
 23 24  1  0  0  0  0
 25 26  2  0  0  0  0
 26 27  1  0  0  0  0
M  END
>  <CHROM.1>
165.48283405,-51.21136639,-93.13504289,158.71791106,-141.28653499,88.42279771
53.42023545,14.04706976,-5.99050144,8.71839399,-2.71268637,-1.14140940,-1.51323833

>  <Name>
ligand

>  <RI>
0

>  <Rbt.Current_Directory>
/home/itssahil/PROJECTS/Mol_Feturizer/New_Systems/rnas/3GX5

>  <Rbt.Executable>
rbdock ($Id: //depot/dev/client3/rdock/2013.1/src/exe/rbdock.cxx#4 $)

>  <Rbt.Library>
libRbt.so (2013.1, Build901 2013/11/27)

>  <Rbt.Parameter_File>
/export/apps/rDock/src/rDock_2013.1_src/data/scripts/dock_solv.prm

>  <Rbt.Receptor>
prm/pocket_docking_2.prm

>  <SCORE>
-10.7841

>  <SCORE.INTER>
-13.3724

>  <SCORE.INTER.CONST>
1

>  <SCORE.INTER.POLAR>
0

>  <SCORE.INTER.ROT>
7

>  <SCORE.INTER.SOLV>
16.9528

>  <SCORE.INTER.VDW>
-22.8325

>  <SCORE.INTER.norm>
-0.495274

>  <SCORE.INTRA>
2.49013

>  <SCORE.INTRA.DIHEDRAL>
9.33466

>  <SCORE.INTRA.DIHEDRAL.0>
4.28829

>  <SCORE.INTRA.POLAR>
0

>  <SCORE.INTRA.POLAR.0>
0

>  <SCORE.INTRA.REPUL>
0

>  <SCORE.INTRA.REPUL.0>
0

>  <SCORE.INTRA.SOLV>
0.613063

>  <SCORE.INTRA.SOLV.lig_0>
-48.6018

>  <SCORE.INTRA.VDW>
-2.48373

>  <SCORE.INTRA.VDW.0>
-2.1506

>  <SCORE.INTRA.norm>
0.092227

>  <SCORE.RESTR>
0.0981702

>  <SCORE.RESTR.CAVITY>
0.0981702

>  <SCORE.RESTR.norm>
0.00363593

>  <SCORE.SYSTEM>
0

>  <SCORE.SYSTEM.CONST>
0

>  <SCORE.SYSTEM.DIHEDRAL>
0

>  <SCORE.SYSTEM.SOLV>
0

>  <SCORE.SYSTEM.norm>
0

>  <SCORE.heavy>
27

>  <SCORE.norm>
-0.399411

>  <RMSD>
1.294

$$$$
ligand
 OpenBabel11021811483D
libRbt.so/2013.1/901 2013/11/27
 27 29  0  0  0  0  0  0  0  0999 V2000
   15.1766   -4.9903   10.6174 N   0  0  0  0  0  0  0  0  0  0  0  0
   13.8878   -5.6826   10.6778 C   0  0  2  0  0  0  0  0  0  0  0  0
   13.3112   -5.8916   12.0802 C   0  0  0  0  0  0  0  0  0  0  0  0
   14.0339   -5.6862   13.0545 O   0  0  0  0  0  0  0  0  0  0  0  0
   13.9422   -6.9993    9.9214 C   0  0  0  0  0  0  0  0  0  0  0  0
   12.5542   -7.5782    9.7072 C   0  0  0  0  0  0  0  0  0  0  0  0
   12.6574   -9.2643    9.0814 S   0  0  2  0  0  0  0  0  0  0  0  0
   13.5710  -10.0432   10.4296 C   0  0  0  0  0  0  0  0  0  0  0  0
   13.9926   -9.0873    7.8754 C   0  0  0  0  0  0  0  0  0  0  0  0
   13.4795   -8.4730    6.5860 C   0  0  1  0  0  0  0  0  0  0  0  0
   12.9413   -7.1928    6.8257 O   0  0  0  0  0  0  0  0  0  0  0  0
   14.5766   -8.2548    5.5627 C   0  0  1  0  0  0  0  0  0  0  0  0
   14.6321   -9.3819    4.7252 O   0  0  0  0  0  0  0  0  0  0  0  0
   14.1115   -7.0312    4.7995 C   0  0  1  0  0  0  0  0  0  0  0  0
   13.5256   -7.4819    3.5989 O   0  0  0  0  0  0  0  0  0  0  0  0
   13.0678   -6.3544    5.6907 C   0  0  2  0  0  0  0  0  0  0  0  0
   12.1518   -6.2635   12.2804 O   0  0  0  0  0  0  0  0  0  0  0  0
   17.2807   -3.6970    7.3055 N   0  0  0  0  0  0  0  0  0  0  0  0
   17.2213   -4.9977    6.8675 C   0  0  0  0  0  0  0  0  0  0  0  0
   16.0077   -5.5239    6.4828 N   0  0  0  0  0  0  0  0  0  0  0  0
   14.8784   -4.7821    6.5265 C   0  0  0  0  0  0  0  0  0  0  0  0
   14.9249   -3.4629    6.9533 C   0  0  0  0  0  0  0  0  0  0  0  0
   16.1432   -2.9195    7.3555 C   0  0  0  0  0  0  0  0  0  0  0  0
   16.2276   -1.6578    7.7781 N   0  0  0  0  0  0  0  0  0  0  0  0
   13.6656   -2.9587    6.8892 N   0  0  0  0  0  0  0  0  0  0  0  0
   12.8458   -3.9267    6.4185 C   0  0  0  0  0  0  0  0  0  0  0  0
   13.5829   -5.0608    6.1819 N   0  0  0  0  0  0  0  0  0  0  0  0
  2  1  1  1  0  0  0
  2  3  1  0  0  0  0
  2  5  1  0  0  0  0
  3  4  1  0  0  0  0
  3 17  1  0  0  0  0
  5  6  1  0  0  0  0
  7  6  1  1  0  0  0
  7  8  1  0  0  0  0
  7  9  1  0  0  0  0
 10  9  1  1  0  0  0
 10 11  1  0  0  0  0
 10 12  1  0  0  0  0
 11 16  1  0  0  0  0
 12 13  1  6  0  0  0
 12 14  1  0  0  0  0
 14 15  1  6  0  0  0
 14 16  1  0  0  0  0
 16 27  1  1  0  0  0
 18 19  2  0  0  0  0
 18 23  1  0  0  0  0
 19 20  1  0  0  0  0
 20 21  2  0  0  0  0
 21 22  1  0  0  0  0
 21 27  1  0  0  0  0
 22 23  2  0  0  0  0
 22 25  1  0  0  0  0
 23 24  1  0  0  0  0
 25 26  2  0  0  0  0
 26 27  1  0  0  0  0
M  END
>  <CHROM.1>
-12.06003647,-167.27939244,-169.76412972,59.71645576,-79.45241510,60.36962459
77.72636576,14.12715199,-6.32396805,7.95143353,-2.41579961,-1.16414651,-1.94089684

>  <Name>
ligand

>  <RI>
0

>  <Rbt.Current_Directory>
/home/itssahil/PROJECTS/Mol_Feturizer/New_Systems/rnas/3GX5

>  <Rbt.Executable>
rbdock ($Id: //depot/dev/client3/rdock/2013.1/src/exe/rbdock.cxx#4 $)

>  <Rbt.Library>
libRbt.so (2013.1, Build901 2013/11/27)

>  <Rbt.Parameter_File>
/export/apps/rDock/src/rDock_2013.1_src/data/scripts/dock_solv.prm

>  <Rbt.Receptor>
prm/pocket_docking_8.prm

>  <SCORE>
-16.3423

>  <SCORE.INTER>
-16.9457

>  <SCORE.INTER.CONST>
1

>  <SCORE.INTER.POLAR>
0

>  <SCORE.INTER.ROT>
7

>  <SCORE.INTER.SOLV>
16.6509

>  <SCORE.INTER.VDW>
-25.1141

>  <SCORE.INTER.norm>
-0.627619

>  <SCORE.INTRA>
0.603405

>  <SCORE.INTRA.DIHEDRAL>
0.543797

>  <SCORE.INTRA.DIHEDRAL.0>
4.28829

>  <SCORE.INTRA.POLAR>
0

>  <SCORE.INTRA.POLAR.0>
0

>  <SCORE.INTRA.REPUL>
0

>  <SCORE.INTRA.REPUL.0>
0

>  <SCORE.INTRA.SOLV>
-1.01158

>  <SCORE.INTRA.SOLV.lig_0>
-48.6018

>  <SCORE.INTRA.VDW>
0.837295

>  <SCORE.INTRA.VDW.0>
-2.1506

>  <SCORE.INTRA.norm>
0.0223483

>  <SCORE.RESTR>
0

>  <SCORE.RESTR.CAVITY>
0

>  <SCORE.RESTR.norm>
0

>  <SCORE.SYSTEM>
0

>  <SCORE.SYSTEM.CONST>
0

>  <SCORE.SYSTEM.DIHEDRAL>
0

>  <SCORE.SYSTEM.SOLV>
0

>  <SCORE.SYSTEM.norm>
0

>  <SCORE.heavy>
27

>  <SCORE.norm>
-0.605271

>  <RMSD>
1.305

$$$$
ligand
 OpenBabel11021811483D
libRbt.so/2013.1/901 2013/11/27
 27 29  0  0  0  0  0  0  0  0999 V2000
   16.1323   -7.0109   12.6458 N   0  0  0  0  0  0  0  0  0  0  0  0
   15.4539   -6.1085   11.7135 C   0  0  2  0  0  0  0  0  0  0  0  0
   15.0153   -4.7616   12.2933 C   0  0  0  0  0  0  0  0  0  0  0  0
   15.4667   -4.4103   13.3826 O   0  0  0  0  0  0  0  0  0  0  0  0
   14.2849   -6.8045   11.0369 C   0  0  0  0  0  0  0  0  0  0  0  0
   14.7401   -7.6318    9.8470 C   0  0  0  0  0  0  0  0  0  0  0  0
   13.3640   -8.5697    9.1600 S   0  0  2  0  0  0  0  0  0  0  0  0
   13.4628  -10.0593   10.1751 C   0  0  0  0  0  0  0  0  0  0  0  0
   14.1162   -9.1918    7.6382 C   0  0  0  0  0  0  0  0  0  0  0  0
   13.4844   -8.5461    6.4188 C   0  0  1  0  0  0  0  0  0  0  0  0
   12.9922   -7.2639    6.7348 O   0  0  0  0  0  0  0  0  0  0  0  0
   14.4754   -8.3223    5.2935 C   0  0  1  0  0  0  0  0  0  0  0  0
   14.4292   -9.4336    4.4346 O   0  0  0  0  0  0  0  0  0  0  0  0
   13.9536   -7.0782    4.6036 C   0  0  1  0  0  0  0  0  0  0  0  0
   13.2426   -7.4980    3.4607 O   0  0  0  0  0  0  0  0  0  0  0  0
   13.0156   -6.4054    5.6081 C   0  0  2  0  0  0  0  0  0  0  0  0
   14.2220   -4.0104   11.7195 O   0  0  0  0  0  0  0  0  0  0  0  0
   17.2990   -3.9906    7.4078 N   0  0  0  0  0  0  0  0  0  0  0  0
   17.1659   -5.3069    7.0381 C   0  0  0  0  0  0  0  0  0  0  0  0
   15.9457   -5.7596    6.5867 N   0  0  0  0  0  0  0  0  0  0  0  0
   14.8812   -4.9308    6.4992 C   0  0  0  0  0  0  0  0  0  0  0  0
   15.0038   -3.5957    6.8557 C   0  0  0  0  0  0  0  0  0  0  0  0
   16.2289   -3.1253    7.3240 C   0  0  0  0  0  0  0  0  0  0  0  0
   16.3847   -1.8506    7.6825 N   0  0  0  0  0  0  0  0  0  0  0  0
   13.7987   -2.9999    6.6635 N   0  0  0  0  0  0  0  0  0  0  0  0
   12.9399   -3.9280    6.1821 C   0  0  0  0  0  0  0  0  0  0  0  0
   13.5969   -5.1283    6.0677 N   0  0  0  0  0  0  0  0  0  0  0  0
  2  1  1  1  0  0  0
  2  3  1  0  0  0  0
  2  5  1  0  0  0  0
  3  4  1  0  0  0  0
  3 17  1  0  0  0  0
  5  6  1  0  0  0  0
  7  6  1  1  0  0  0
  7  8  1  0  0  0  0
  7  9  1  0  0  0  0
 10  9  1  1  0  0  0
 10 11  1  0  0  0  0
 10 12  1  0  0  0  0
 11 16  1  0  0  0  0
 12 13  1  6  0  0  0
 12 14  1  0  0  0  0
 14 15  1  6  0  0  0
 14 16  1  0  0  0  0
 16 27  1  1  0  0  0
 18 19  2  0  0  0  0
 18 23  1  0  0  0  0
 19 20  1  0  0  0  0
 20 21  2  0  0  0  0
 21 22  1  0  0  0  0
 21 27  1  0  0  0  0
 22 23  2  0  0  0  0
 22 25  1  0  0  0  0
 23 24  1  0  0  0  0
 25 26  2  0  0  0  0
 26 27  1  0  0  0  0
M  END
>  <CHROM.1>
13.84194363,-82.90944040,174.57403198,-87.75906847,-111.57861041,27.88270902
65.91440962,14.54647743,-6.24152882,8.02879783,0.91726323,1.23905003,1.89092794

>  <Name>
ligand

>  <RI>
0

>  <Rbt.Current_Directory>
/home/itssahil/PROJECTS/Mol_Feturizer/New_Systems/rnas/3GX5

>  <Rbt.Executable>
rbdock ($Id: //depot/dev/client3/rdock/2013.1/src/exe/rbdock.cxx#4 $)

>  <Rbt.Library>
libRbt.so (2013.1, Build901 2013/11/27)

>  <Rbt.Parameter_File>
/export/apps/rDock/src/rDock_2013.1_src/data/scripts/dock_solv.prm

>  <Rbt.Receptor>
prm/pocket_docking_2.prm

>  <SCORE>
-11.3724

>  <SCORE.INTER>
-14.52

>  <SCORE.INTER.CONST>
1

>  <SCORE.INTER.POLAR>
0

>  <SCORE.INTER.ROT>
7

>  <SCORE.INTER.SOLV>
18.3248

>  <SCORE.INTER.VDW>
-24.055

>  <SCORE.INTER.norm>
-0.53778

>  <SCORE.INTRA>
3.13165

>  <SCORE.INTRA.DIHEDRAL>
8.33674

>  <SCORE.INTRA.DIHEDRAL.0>
4.28829

>  <SCORE.INTRA.POLAR>
0

>  <SCORE.INTRA.POLAR.0>
0

>  <SCORE.INTRA.REPUL>
0

>  <SCORE.INTRA.REPUL.0>
0

>  <SCORE.INTRA.SOLV>
-0.607355

>  <SCORE.INTRA.SOLV.lig_0>
-48.6018

>  <SCORE.INTRA.VDW>
-0.733047

>  <SCORE.INTRA.VDW.0>
-2.1506

>  <SCORE.INTRA.norm>
0.115987

>  <SCORE.RESTR>
0.0160412

>  <SCORE.RESTR.CAVITY>
0.0160412

>  <SCORE.RESTR.norm>
0.000594117

>  <SCORE.SYSTEM>
0

>  <SCORE.SYSTEM.CONST>
0

>  <SCORE.SYSTEM.DIHEDRAL>
0

>  <SCORE.SYSTEM.SOLV>
0

>  <SCORE.SYSTEM.norm>
0

>  <SCORE.heavy>
27

>  <SCORE.norm>
-0.421199

>  <RMSD>
1.320

$$$$
ligand
 OpenBabel11021811483D
libRbt.so/2013.1/901 2013/11/27
 27 29  0  0  0  0  0  0  0  0999 V2000
   16.9490   -6.0643   11.0243 N   0  0  0  0  0  0  0  0  0  0  0  0
   15.6121   -5.9954   11.6175 C   0  0  2  0  0  0  0  0  0  0  0  0
   15.4770   -5.0946   12.8476 C   0  0  0  0  0  0  0  0  0  0  0  0
   15.5813   -3.8771   12.7046 O   0  0  0  0  0  0  0  0  0  0  0  0
   15.0764   -7.3863   11.9131 C   0  0  0  0  0  0  0  0  0  0  0  0
   15.0216   -8.2419   10.6592 C   0  0  0  0  0  0  0  0  0  0  0  0
   14.0199   -7.4478    9.3899 S   0  0  2  0  0  0  0  0  0  0  0  0
   12.4198   -7.4209   10.2253 C   0  0  0  0  0  0  0  0  0  0  0  0
   13.7496   -8.8377    8.2658 C   0  0  0  0  0  0  0  0  0  0  0  0
   13.4384   -8.3475    6.8637 C   0  0  1  0  0  0  0  0  0  0  0  0
   12.9437   -7.0283    6.8973 O   0  0  0  0  0  0  0  0  0  0  0  0
   14.6668   -8.2860    5.9773 C   0  0  1  0  0  0  0  0  0  0  0  0
   14.7676   -9.4990    5.2748 O   0  0  0  0  0  0  0  0  0  0  0  0
   14.3689   -7.1352    5.0377 C   0  0  1  0  0  0  0  0  0  0  0  0
   13.9170   -7.6902    3.8229 O   0  0  0  0  0  0  0  0  0  0  0  0
   13.2583   -6.3242    5.7089 C   0  0  2  0  0  0  0  0  0  0  0  0
   15.2728   -5.5345   13.9823 O   0  0  0  0  0  0  0  0  0  0  0  0
   17.3714   -3.6758    7.5761 N   0  0  0  0  0  0  0  0  0  0  0  0
   17.2986   -5.0128    7.2689 C   0  0  0  0  0  0  0  0  0  0  0  0
   16.1163   -5.5293    6.7860 N   0  0  0  0  0  0  0  0  0  0  0  0
   15.0311   -4.7433    6.6074 C   0  0  0  0  0  0  0  0  0  0  0  0
   15.0935   -3.3886    6.9000 C   0  0  0  0  0  0  0  0  0  0  0  0
   16.2792   -2.8534    7.3990 C   0  0  0  0  0  0  0  0  0  0  0  0
   16.3766   -1.5578    7.6983 N   0  0  0  0  0  0  0  0  0  0  0  0
   13.8803   -2.8453    6.6225 N   0  0  0  0  0  0  0  0  0  0  0  0
   13.0756   -3.8254    6.1508 C   0  0  0  0  0  0  0  0  0  0  0  0
   13.7757   -5.0065    6.1283 N   0  0  0  0  0  0  0  0  0  0  0  0
  2  1  1  1  0  0  0
  2  3  1  0  0  0  0
  2  5  1  0  0  0  0
  3  4  1  0  0  0  0
  3 17  1  0  0  0  0
  5  6  1  0  0  0  0
  7  6  1  1  0  0  0
  7  8  1  0  0  0  0
  7  9  1  0  0  0  0
 10  9  1  1  0  0  0
 10 11  1  0  0  0  0
 10 12  1  0  0  0  0
 11 16  1  0  0  0  0
 12 13  1  6  0  0  0
 12 14  1  0  0  0  0
 14 15  1  6  0  0  0
 14 16  1  0  0  0  0
 16 27  1  1  0  0  0
 18 19  2  0  0  0  0
 18 23  1  0  0  0  0
 19 20  1  0  0  0  0
 20 21  2  0  0  0  0
 21 22  1  0  0  0  0
 21 27  1  0  0  0  0
 22 23  2  0  0  0  0
 22 25  1  0  0  0  0
 23 24  1  0  0  0  0
 25 26  2  0  0  0  0
 26 27  1  0  0  0  0
M  END
>  <CHROM.1>
68.69382623,-58.04985843,-56.94623704,-62.89934201,-156.50024788,-22.51044896
77.89959457,14.78336930,-6.01057365,8.29248366,-1.02514730,-1.19360130,-1.23754939

>  <Name>
ligand

>  <RI>
0

>  <Rbt.Current_Directory>
/home/itssahil/PROJECTS/Mol_Feturizer/New_Systems/rnas/3GX5

>  <Rbt.Executable>
rbdock ($Id: //depot/dev/client3/rdock/2013.1/src/exe/rbdock.cxx#4 $)

>  <Rbt.Library>
libRbt.so (2013.1, Build901 2013/11/27)

>  <Rbt.Parameter_File>
/export/apps/rDock/src/rDock_2013.1_src/data/scripts/dock_solv.prm

>  <Rbt.Receptor>
prm/pocket_docking_3.prm

>  <SCORE>
-10.6035

>  <SCORE.INTER>
-13.9553

>  <SCORE.INTER.CONST>
1

>  <SCORE.INTER.POLAR>
0

>  <SCORE.INTER.ROT>
7

>  <SCORE.INTER.SOLV>
16.8401

>  <SCORE.INTER.VDW>
-23.1835

>  <SCORE.INTER.norm>
-0.516863

>  <SCORE.INTRA>
3.35177

>  <SCORE.INTRA.DIHEDRAL>
5.30896

>  <SCORE.INTRA.DIHEDRAL.0>
4.28829

>  <SCORE.INTRA.POLAR>
0

>  <SCORE.INTRA.POLAR.0>
0

>  <SCORE.INTRA.REPUL>
0

>  <SCORE.INTRA.REPUL.0>
0

>  <SCORE.INTRA.SOLV>
0.468816

>  <SCORE.INTRA.SOLV.lig_0>
-48.6018

>  <SCORE.INTRA.VDW>
0.462879

>  <SCORE.INTRA.VDW.0>
-2.1506

>  <SCORE.INTRA.norm>
0.12414

>  <SCORE.RESTR>
0

>  <SCORE.RESTR.CAVITY>
0

>  <SCORE.RESTR.norm>
0

>  <SCORE.SYSTEM>
0

>  <SCORE.SYSTEM.CONST>
0

>  <SCORE.SYSTEM.DIHEDRAL>
0

>  <SCORE.SYSTEM.SOLV>
0

>  <SCORE.SYSTEM.norm>
0

>  <SCORE.heavy>
27

>  <SCORE.norm>
-0.392723

>  <RMSD>
1.327

$$$$
ligand
 OpenBabel11021811483D
libRbt.so/2013.1/901 2013/11/27
 27 29  0  0  0  0  0  0  0  0999 V2000
   12.1298   -6.1356   12.0369 N   0  0  0  0  0  0  0  0  0  0  0  0
   13.4522   -6.1620   11.4088 C   0  0  2  0  0  0  0  0  0  0  0  0
   13.8043   -4.9445   10.5505 C   0  0  0  0  0  0  0  0  0  0  0  0
   13.4908   -4.9477    9.3608 O   0  0  0  0  0  0  0  0  0  0  0  0
   13.6546   -7.4461   10.6222 C   0  0  0  0  0  0  0  0  0  0  0  0
   12.3743   -7.8874    9.9341 C   0  0  0  0  0  0  0  0  0  0  0  0
   12.6073   -9.4734    9.1123 S   0  0  2  0  0  0  0  0  0  0  0  0
   13.5094  -10.3628   10.3985 C   0  0  0  0  0  0  0  0  0  0  0  0
   13.9788   -9.0725    8.0047 C   0  0  0  0  0  0  0  0  0  0  0  0
   13.4686   -8.4852    6.7017 C   0  0  1  0  0  0  0  0  0  0  0  0
   12.8831   -7.2224    6.9219 O   0  0  0  0  0  0  0  0  0  0  0  0
   14.5759   -8.2371    5.6964 C   0  0  1  0  0  0  0  0  0  0  0  0
   14.6846   -9.3676    4.8687 O   0  0  0  0  0  0  0  0  0  0  0  0
   14.0834   -7.0355    4.9157 C   0  0  1  0  0  0  0  0  0  0  0  0
   13.5348   -7.5144    3.7083 O   0  0  0  0  0  0  0  0  0  0  0  0
   13.0015   -6.3883    5.7829 C   0  0  2  0  0  0  0  0  0  0  0  0
   14.3955   -3.9574   10.9966 O   0  0  0  0  0  0  0  0  0  0  0  0
   17.1041   -3.5585    7.3888 N   0  0  0  0  0  0  0  0  0  0  0  0
   17.0977   -4.8604    6.9507 C   0  0  0  0  0  0  0  0  0  0  0  0
   15.9062   -5.4366    6.5685 N   0  0  0  0  0  0  0  0  0  0  0  0
   14.7472   -4.7422    6.6150 C   0  0  0  0  0  0  0  0  0  0  0  0
   14.7399   -3.4222    7.0419 C   0  0  0  0  0  0  0  0  0  0  0  0
   15.9355   -2.8288    7.4414 C   0  0  0  0  0  0  0  0  0  0  0  0
   15.9684   -1.5647    7.8641 N   0  0  0  0  0  0  0  0  0  0  0  0
   13.4606   -2.9708    6.9808 N   0  0  0  0  0  0  0  0  0  0  0  0
   12.6806   -3.9719    6.5117 C   0  0  0  0  0  0  0  0  0  0  0  0
   13.4636   -5.0745    6.2733 N   0  0  0  0  0  0  0  0  0  0  0  0
  2  1  1  6  0  0  0
  2  3  1  0  0  0  0
  2  5  1  0  0  0  0
  3  4  1  0  0  0  0
  3 17  1  0  0  0  0
  5  6  1  0  0  0  0
  7  6  1  1  0  0  0
  7  8  1  0  0  0  0
  7  9  1  0  0  0  0
 10  9  1  1  0  0  0
 10 11  1  0  0  0  0
 10 12  1  0  0  0  0
 11 16  1  0  0  0  0
 12 13  1  6  0  0  0
 12 14  1  0  0  0  0
 14 15  1  6  0  0  0
 14 16  1  0  0  0  0
 16 27  1  1  0  0  0
 18 19  2  0  0  0  0
 18 23  1  0  0  0  0
 19 20  1  0  0  0  0
 20 21  2  0  0  0  0
 21 22  1  0  0  0  0
 21 27  1  0  0  0  0
 22 23  2  0  0  0  0
 22 25  1  0  0  0  0
 23 24  1  0  0  0  0
 25 26  2  0  0  0  0
 26 27  1  0  0  0  0
M  END
>  <CHROM.1>
-88.24536160,37.04322751,-175.73787157,44.05840408,-86.40422147,67.26393315
79.03273907,14.00508498,-6.26767258,7.87381038,2.84961760,-1.19776597,-2.15262587

>  <Name>
ligand

>  <RI>
0

>  <Rbt.Current_Directory>
/home/itssahil/PROJECTS/Mol_Feturizer/New_Systems/rnas/3GX5

>  <Rbt.Executable>
rbdock ($Id: //depot/dev/client3/rdock/2013.1/src/exe/rbdock.cxx#4 $)

>  <Rbt.Library>
libRbt.so (2013.1, Build901 2013/11/27)

>  <Rbt.Parameter_File>
/export/apps/rDock/src/rDock_2013.1_src/data/scripts/dock_solv.prm

>  <Rbt.Receptor>
prm/pocket_docking_2.prm

>  <SCORE>
-13.0731

>  <SCORE.INTER>
-15.6467

>  <SCORE.INTER.CONST>
1

>  <SCORE.INTER.POLAR>
0

>  <SCORE.INTER.ROT>
7

>  <SCORE.INTER.SOLV>
21.0256

>  <SCORE.INTER.VDW>
-25.7063

>  <SCORE.INTER.norm>
-0.579508

>  <SCORE.INTRA>
2.05785

>  <SCORE.INTRA.DIHEDRAL>
2.13919

>  <SCORE.INTRA.DIHEDRAL.0>
4.28829

>  <SCORE.INTRA.POLAR>
0

>  <SCORE.INTRA.POLAR.0>
0

>  <SCORE.INTRA.REPUL>
0

>  <SCORE.INTRA.REPUL.0>
0

>  <SCORE.INTRA.SOLV>
-0.148592

>  <SCORE.INTRA.SOLV.lig_0>
-48.6018

>  <SCORE.INTRA.VDW>
1.06255

>  <SCORE.INTRA.VDW.0>
-2.1506

>  <SCORE.INTRA.norm>
0.0762165

>  <SCORE.RESTR>
0.515812

>  <SCORE.RESTR.CAVITY>
0.515812

>  <SCORE.RESTR.norm>
0.0191042

>  <SCORE.SYSTEM>
0

>  <SCORE.SYSTEM.CONST>
0

>  <SCORE.SYSTEM.DIHEDRAL>
0

>  <SCORE.SYSTEM.SOLV>
0

>  <SCORE.SYSTEM.norm>
0

>  <SCORE.heavy>
27

>  <SCORE.norm>
-0.484187

>  <RMSD>
1.336

$$$$
ligand
 OpenBabel11021811483D
libRbt.so/2013.1/901 2013/11/27
 27 29  0  0  0  0  0  0  0  0999 V2000
   17.0753   -6.0282   10.9952 N   0  0  0  0  0  0  0  0  0  0  0  0
   15.6581   -6.1098   11.3540 C   0  0  2  0  0  0  0  0  0  0  0  0
   15.1870   -5.1259   12.4276 C   0  0  0  0  0  0  0  0  0  0  0  0
   15.2886   -5.4469   13.6110 O   0  0  0  0  0  0  0  0  0  0  0  0
   15.2731   -7.5316   11.7270 C   0  0  0  0  0  0  0  0  0  0  0  0
   15.1103   -8.4073   10.4965 C   0  0  0  0  0  0  0  0  0  0  0  0
   14.0387   -7.6121    9.2864 S   0  0  2  0  0  0  0  0  0  0  0  0
   12.4667   -7.6740   10.1717 C   0  0  0  0  0  0  0  0  0  0  0  0
   13.7846   -8.9745    8.1254 C   0  0  0  0  0  0  0  0  0  0  0  0
   13.4719   -8.4506    6.7358 C   0  0  1  0  0  0  0  0  0  0  0  0
   12.9278   -7.1524    6.8055 O   0  0  0  0  0  0  0  0  0  0  0  0
   14.7076   -8.3146    5.8681 C   0  0  1  0  0  0  0  0  0  0  0  0
   14.8622   -9.4994    5.1282 O   0  0  0  0  0  0  0  0  0  0  0  0
   14.3780   -7.1455    4.9623 C   0  0  1  0  0  0  0  0  0  0  0  0
   13.9617   -7.6769    3.7244 O   0  0  0  0  0  0  0  0  0  0  0  0
   13.2299   -6.3987    5.6446 C   0  0  2  0  0  0  0  0  0  0  0  0
   14.7026   -4.0228   12.1607 O   0  0  0  0  0  0  0  0  0  0  0  0
   17.2853   -3.6061    7.4260 N   0  0  0  0  0  0  0  0  0  0  0  0
   17.2737   -4.9250    7.0421 C   0  0  0  0  0  0  0  0  0  0  0  0
   16.0968   -5.4870    6.5987 N   0  0  0  0  0  0  0  0  0  0  0  0
   14.9573   -4.7626    6.5328 C   0  0  0  0  0  0  0  0  0  0  0  0
   14.9565   -3.4259    6.9038 C   0  0  0  0  0  0  0  0  0  0  0  0
   16.1367   -2.8459    7.3642 C   0  0  0  0  0  0  0  0  0  0  0  0
   16.1747   -1.5662    7.7363 N   0  0  0  0  0  0  0  0  0  0  0  0
   13.6979   -2.9457    6.7320 N   0  0  0  0  0  0  0  0  0  0  0  0
   12.9256   -3.9461    6.2490 C   0  0  0  0  0  0  0  0  0  0  0  0
   13.6925   -5.0771    6.1130 N   0  0  0  0  0  0  0  0  0  0  0  0
  2  1  1  1  0  0  0
  2  3  1  0  0  0  0
  2  5  1  0  0  0  0
  3  4  1  0  0  0  0
  3 17  1  0  0  0  0
  5  6  1  0  0  0  0
  7  6  1  1  0  0  0
  7  8  1  0  0  0  0
  7  9  1  0  0  0  0
 10  9  1  1  0  0  0
 10 11  1  0  0  0  0
 10 12  1  0  0  0  0
 11 16  1  0  0  0  0
 12 13  1  6  0  0  0
 12 14  1  0  0  0  0
 14 15  1  6  0  0  0
 14 16  1  0  0  0  0
 16 27  1  1  0  0  0
 18 19  2  0  0  0  0
 18 23  1  0  0  0  0
 19 20  1  0  0  0  0
 20 21  2  0  0  0  0
 21 22  1  0  0  0  0
 21 27  1  0  0  0  0
 22 23  2  0  0  0  0
 22 25  1  0  0  0  0
 23 24  1  0  0  0  0
 25 26  2  0  0  0  0
 26 27  1  0  0  0  0
M  END
>  <CHROM.1>
-87.19404834,-77.08327698,-50.17207773,-67.97707838,-153.91672177,-24.23088259
82.59026640,14.73009085,-6.07247689,8.16312916,-0.99444391,-1.24040203,-1.21826669

>  <Name>
ligand

>  <RI>
0

>  <Rbt.Current_Directory>
/home/itssahil/PROJECTS/Mol_Feturizer/New_Systems/rnas/3GX5

>  <Rbt.Executable>
rbdock ($Id: //depot/dev/client3/rdock/2013.1/src/exe/rbdock.cxx#4 $)

>  <Rbt.Library>
libRbt.so (2013.1, Build901 2013/11/27)

>  <Rbt.Parameter_File>
/export/apps/rDock/src/rDock_2013.1_src/data/scripts/dock_solv.prm

>  <Rbt.Receptor>
prm/pocket_docking_3.prm

>  <SCORE>
-10.2355

>  <SCORE.INTER>
-13.8244

>  <SCORE.INTER.CONST>
1

>  <SCORE.INTER.POLAR>
0

>  <SCORE.INTER.ROT>
7

>  <SCORE.INTER.SOLV>
16.6099

>  <SCORE.INTER.VDW>
-23.0196

>  <SCORE.INTER.norm>
-0.512013

>  <SCORE.INTRA>
3.58404

>  <SCORE.INTRA.DIHEDRAL>
6.65717

>  <SCORE.INTRA.DIHEDRAL.0>
4.28829

>  <SCORE.INTRA.POLAR>
0

>  <SCORE.INTRA.POLAR.0>
0

>  <SCORE.INTRA.REPUL>
0

>  <SCORE.INTRA.REPUL.0>
0

>  <SCORE.INTRA.SOLV>
0.0988502

>  <SCORE.INTRA.SOLV.lig_0>
-48.6018

>  <SCORE.INTRA.VDW>
0.206029

>  <SCORE.INTRA.VDW.0>
-2.1506

>  <SCORE.INTRA.norm>
0.132742

>  <SCORE.RESTR>
0.00484249

>  <SCORE.RESTR.CAVITY>
0.00484249

>  <SCORE.RESTR.norm>
0.000179351

>  <SCORE.SYSTEM>
0

>  <SCORE.SYSTEM.CONST>
0

>  <SCORE.SYSTEM.DIHEDRAL>
0

>  <SCORE.SYSTEM.SOLV>
0

>  <SCORE.SYSTEM.norm>
0

>  <SCORE.heavy>
27

>  <SCORE.norm>
-0.379092

>  <RMSD>
1.355

$$$$
ligand
 OpenBabel11021811483D
libRbt.so/2013.1/901 2013/11/27
 27 29  0  0  0  0  0  0  0  0999 V2000
   15.3856   -5.5358   11.2828 N   0  0  0  0  0  0  0  0  0  0  0  0
   14.2300   -6.2425   11.8387 C   0  0  2  0  0  0  0  0  0  0  0  0
   14.1340   -6.2600   13.3662 C   0  0  0  0  0  0  0  0  0  0  0  0
   15.0096   -5.6964   14.0214 O   0  0  0  0  0  0  0  0  0  0  0  0
   14.1363   -7.6532   11.2818 C   0  0  0  0  0  0  0  0  0  0  0  0
   14.2676   -7.6662    9.7685 C   0  0  0  0  0  0  0  0  0  0  0  0
   14.1171   -9.3442    9.1308 S   0  0  2  0  0  0  0  0  0  0  0  0
   15.4522  -10.1467   10.0433 C   0  0  0  0  0  0  0  0  0  0  0  0
   14.9207   -9.1588    7.5220 C   0  0  0  0  0  0  0  0  0  0  0  0
   13.9547   -8.5957    6.4959 C   0  0  1  0  0  0  0  0  0  0  0  0
   13.3663   -7.4056    6.9687 O   0  0  0  0  0  0  0  0  0  0  0  0
   14.6361   -8.2106    5.1976 C   0  0  1  0  0  0  0  0  0  0  0  0
   14.5625   -9.3036    4.3172 O   0  0  0  0  0  0  0  0  0  0  0  0
   13.8063   -7.0475    4.6930 C   0  0  1  0  0  0  0  0  0  0  0  0
   12.9311   -7.5509    3.7088 O   0  0  0  0  0  0  0  0  0  0  0  0
   13.0230   -6.5363    5.9040 C   0  0  2  0  0  0  0  0  0  0  0  0
   13.2181   -6.8203   13.9746 O   0  0  0  0  0  0  0  0  0  0  0  0
   17.1611   -3.6493    7.3037 N   0  0  0  0  0  0  0  0  0  0  0  0
   17.1362   -4.9826    6.9735 C   0  0  0  0  0  0  0  0  0  0  0  0
   15.9379   -5.5693    6.6309 N   0  0  0  0  0  0  0  0  0  0  0  0
   14.7900   -4.8553    6.6116 C   0  0  0  0  0  0  0  0  0  0  0  0
   14.8016   -3.5049    6.9291 C   0  0  0  0  0  0  0  0  0  0  0  0
   16.0042   -2.8995    7.2878 C   0  0  0  0  0  0  0  0  0  0  0  0
   16.0550   -1.6058    7.6059 N   0  0  0  0  0  0  0  0  0  0  0  0
   13.5302   -3.0399    6.8217 N   0  0  0  0  0  0  0  0  0  0  0  0
   12.7369   -4.0637    6.4302 C   0  0  0  0  0  0  0  0  0  0  0  0
   13.5033   -5.1942    6.2886 N   0  0  0  0  0  0  0  0  0  0  0  0
  2  1  1  1  0  0  0
  2  3  1  0  0  0  0
  2  5  1  0  0  0  0
  3  4  1  0  0  0  0
  3 17  1  0  0  0  0
  5  6  1  0  0  0  0
  7  6  1  1  0  0  0
  7  8  1  0  0  0  0
  7  9  1  0  0  0  0
 10  9  1  1  0  0  0
 10 11  1  0  0  0  0
 10 12  1  0  0  0  0
 11 16  1  0  0  0  0
 12 13  1  6  0  0  0
 12 14  1  0  0  0  0
 14 15  1  6  0  0  0
 14 16  1  0  0  0  0
 16 27  1  1  0  0  0
 18 19  2  0  0  0  0
 18 23  1  0  0  0  0
 19 20  1  0  0  0  0
 20 21  2  0  0  0  0
 21 22  1  0  0  0  0
 21 27  1  0  0  0  0
 22 23  2  0  0  0  0
 22 25  1  0  0  0  0
 23 24  1  0  0  0  0
 25 26  2  0  0  0  0
 26 27  1  0  0  0  0
M  END
>  <CHROM.1>
-0.08293478,-48.64294654,-178.75962876,-57.34854965,-82.60836713,53.24705428
57.01220865,14.50819319,-6.46657320,8.17614396,-1.47659681,-1.36512836,-1.40018855

>  <Name>
ligand

>  <RI>
0

>  <Rbt.Current_Directory>
/home/itssahil/PROJECTS/Mol_Feturizer/New_Systems/rnas/3GX5

>  <Rbt.Executable>
rbdock ($Id: //depot/dev/client3/rdock/2013.1/src/exe/rbdock.cxx#4 $)

>  <Rbt.Library>
libRbt.so (2013.1, Build901 2013/11/27)

>  <Rbt.Parameter_File>
/export/apps/rDock/src/rDock_2013.1_src/data/scripts/dock_solv.prm

>  <Rbt.Receptor>
prm/pocket_docking_5.prm

>  <SCORE>
-14.3032

>  <SCORE.INTER>
-14.7112

>  <SCORE.INTER.CONST>
1

>  <SCORE.INTER.POLAR>
0

>  <SCORE.INTER.ROT>
7

>  <SCORE.INTER.SOLV>
16.2716

>  <SCORE.INTER.VDW>
-23.498

>  <SCORE.INTER.norm>
-0.544861

>  <SCORE.INTRA>
0.407996

>  <SCORE.INTRA.DIHEDRAL>
0.657293

>  <SCORE.INTRA.DIHEDRAL.0>
4.28829

>  <SCORE.INTRA.POLAR>
0

>  <SCORE.INTRA.POLAR.0>
0

>  <SCORE.INTRA.REPUL>
0

>  <SCORE.INTRA.REPUL.0>
0

>  <SCORE.INTRA.SOLV>
-0.291915

>  <SCORE.INTRA.SOLV.lig_0>
-48.6018

>  <SCORE.INTRA.VDW>
0.225307

>  <SCORE.INTRA.VDW.0>
-2.1506

>  <SCORE.INTRA.norm>
0.015111

>  <SCORE.RESTR>
0

>  <SCORE.RESTR.CAVITY>
0

>  <SCORE.RESTR.norm>
0

>  <SCORE.SYSTEM>
0

>  <SCORE.SYSTEM.CONST>
0

>  <SCORE.SYSTEM.DIHEDRAL>
0

>  <SCORE.SYSTEM.SOLV>
0

>  <SCORE.SYSTEM.norm>
0

>  <SCORE.heavy>
27

>  <SCORE.norm>
-0.52975

>  <RMSD>
1.356

$$$$
ligand
 OpenBabel11021811483D
libRbt.so/2013.1/901 2013/11/27
 27 29  0  0  0  0  0  0  0  0999 V2000
   15.4115   -4.6397    9.4498 N   0  0  0  0  0  0  0  0  0  0  0  0
   14.5243   -5.6415   10.0439 C   0  0  2  0  0  0  0  0  0  0  0  0
   13.7472   -5.1894   11.2827 C   0  0  0  0  0  0  0  0  0  0  0  0
   13.6336   -3.9844   11.5037 O   0  0  0  0  0  0  0  0  0  0  0  0
   15.2742   -6.9326   10.3260 C   0  0  0  0  0  0  0  0  0  0  0  0
   14.3226   -8.1008   10.5181 C   0  0  0  0  0  0  0  0  0  0  0  0
   13.0083   -8.0605    9.2866 S   0  0  2  0  0  0  0  0  0  0  0  0
   11.8904   -9.2961    9.9812 C   0  0  0  0  0  0  0  0  0  0  0  0
   13.7614   -9.0425    7.9685 C   0  0  0  0  0  0  0  0  0  0  0  0
   13.4497   -8.4502    6.6065 C   0  0  1  0  0  0  0  0  0  0  0  0
   13.0074   -7.1181    6.7338 O   0  0  0  0  0  0  0  0  0  0  0  0
   14.6668   -8.3777    5.7056 C   0  0  1  0  0  0  0  0  0  0  0  0
   14.7101   -9.5451    4.9244 O   0  0  0  0  0  0  0  0  0  0  0  0
   14.4007   -7.1574    4.8476 C   0  0  1  0  0  0  0  0  0  0  0  0
   13.9103   -7.6142    3.6071 O   0  0  0  0  0  0  0  0  0  0  0  0
   13.3324   -6.3504    5.5884 C   0  0  2  0  0  0  0  0  0  0  0  0
   13.2316   -5.9805   12.0771 O   0  0  0  0  0  0  0  0  0  0  0  0
   17.6605   -3.8997    7.2253 N   0  0  0  0  0  0  0  0  0  0  0  0
   17.5408   -5.1956    6.7854 C   0  0  0  0  0  0  0  0  0  0  0  0
   16.3051   -5.6626    6.3946 N   0  0  0  0  0  0  0  0  0  0  0  0
   15.2125   -4.8675    6.4342 C   0  0  0  0  0  0  0  0  0  0  0  0
   15.3203   -3.5525    6.8629 C   0  0  0  0  0  0  0  0  0  0  0  0
   16.5614   -3.0686    7.2712 C   0  0  0  0  0  0  0  0  0  0  0  0
   16.7043   -1.8128    7.6958 N   0  0  0  0  0  0  0  0  0  0  0  0
   14.0869   -2.9885    6.7938 N   0  0  0  0  0  0  0  0  0  0  0  0
   13.2238   -3.9155    6.3182 C   0  0  0  0  0  0  0  0  0  0  0  0
   13.9067   -5.0835    6.0835 N   0  0  0  0  0  0  0  0  0  0  0  0
  2  1  1  1  0  0  0
  2  3  1  0  0  0  0
  2  5  1  0  0  0  0
  3  4  1  0  0  0  0
  3 17  1  0  0  0  0
  5  6  1  0  0  0  0
  7  6  1  1  0  0  0
  7  8  1  0  0  0  0
  7  9  1  0  0  0  0
 10  9  1  1  0  0  0
 10 11  1  0  0  0  0
 10 12  1  0  0  0  0
 11 16  1  0  0  0  0
 12 13  1  6  0  0  0
 12 14  1  0  0  0  0
 14 15  1  6  0  0  0
 14 16  1  0  0  0  0
 16 27  1  1  0  0  0
 18 19  2  0  0  0  0
 18 23  1  0  0  0  0
 19 20  1  0  0  0  0
 20 21  2  0  0  0  0
 21 22  1  0  0  0  0
 21 27  1  0  0  0  0
 22 23  2  0  0  0  0
 22 25  1  0  0  0  0
 23 24  1  0  0  0  0
 25 26  2  0  0  0  0
 26 27  1  0  0  0  0
M  END
>  <CHROM.1>
18.16708439,-161.94211238,43.02523967,-168.17304210,-140.33149758,17.10643312
84.76699373,14.43232374,-6.14607692,7.81718477,-0.14129863,1.08347001,1.15218072

>  <Name>
ligand

>  <RI>
0

>  <Rbt.Current_Directory>
/home/itssahil/PROJECTS/Mol_Feturizer/New_Systems/rnas/3GX5

>  <Rbt.Executable>
rbdock ($Id: //depot/dev/client3/rdock/2013.1/src/exe/rbdock.cxx#4 $)

>  <Rbt.Library>
libRbt.so (2013.1, Build901 2013/11/27)

>  <Rbt.Parameter_File>
/export/apps/rDock/src/rDock_2013.1_src/data/scripts/dock_solv.prm

>  <Rbt.Receptor>
prm/pocket_docking_2.prm

>  <SCORE>
-6.05507

>  <SCORE.INTER>
-13.6218

>  <SCORE.INTER.CONST>
1

>  <SCORE.INTER.POLAR>
0

>  <SCORE.INTER.ROT>
7

>  <SCORE.INTER.SOLV>
15.2133

>  <SCORE.INTER.VDW>
-22.419

>  <SCORE.INTER.norm>
-0.504513

>  <SCORE.INTRA>
6.94735

>  <SCORE.INTRA.DIHEDRAL>
10.4827

>  <SCORE.INTRA.DIHEDRAL.0>
4.28829

>  <SCORE.INTRA.POLAR>
0

>  <SCORE.INTRA.POLAR.0>
0

>  <SCORE.INTRA.REPUL>
0

>  <SCORE.INTRA.REPUL.0>
0

>  <SCORE.INTRA.SOLV>
4.04926

>  <SCORE.INTRA.SOLV.lig_0>
-48.6018

>  <SCORE.INTRA.VDW>
-0.318613

>  <SCORE.INTRA.VDW.0>
-2.1506

>  <SCORE.INTRA.norm>
0.257309

>  <SCORE.RESTR>
0.619433

>  <SCORE.RESTR.CAVITY>
0.619433

>  <SCORE.RESTR.norm>
0.022942

>  <SCORE.SYSTEM>
0

>  <SCORE.SYSTEM.CONST>
0

>  <SCORE.SYSTEM.DIHEDRAL>
0

>  <SCORE.SYSTEM.SOLV>
0

>  <SCORE.SYSTEM.norm>
0

>  <SCORE.heavy>
27

>  <SCORE.norm>
-0.224262

>  <RMSD>
1.379

$$$$
ligand
 OpenBabel11021811483D
libRbt.so/2013.1/901 2013/11/27
 27 29  0  0  0  0  0  0  0  0999 V2000
   12.4319   -7.1902   11.2393 N   0  0  0  0  0  0  0  0  0  0  0  0
   13.5969   -6.4286   11.6939 C   0  0  2  0  0  0  0  0  0  0  0  0
   13.8027   -5.0673   11.0251 C   0  0  0  0  0  0  0  0  0  0  0  0
   13.5011   -4.9380    9.8394 O   0  0  0  0  0  0  0  0  0  0  0  0
   14.8622   -7.2650   11.6025 C   0  0  0  0  0  0  0  0  0  0  0  0
   15.1921   -7.6235   10.1638 C   0  0  0  0  0  0  0  0  0  0  0  0
   14.0575   -8.8782    9.5441 S   0  0  2  0  0  0  0  0  0  0  0  0
   14.6737  -10.3237   10.4328 C   0  0  0  0  0  0  0  0  0  0  0  0
   14.7757   -9.1968    7.9158 C   0  0  0  0  0  0  0  0  0  0  0  0
   13.8817   -8.6569    6.8148 C   0  0  1  0  0  0  0  0  0  0  0  0
   13.3250   -7.4178    7.1900 O   0  0  0  0  0  0  0  0  0  0  0  0
   14.6365   -8.3777    5.5300 C   0  0  1  0  0  0  0  0  0  0  0  0
   14.5549   -9.5171    4.7114 O   0  0  0  0  0  0  0  0  0  0  0  0
   13.8813   -7.2138    4.9207 C   0  0  1  0  0  0  0  0  0  0  0  0
   13.0299   -7.7389    3.9270 O   0  0  0  0  0  0  0  0  0  0  0  0
   13.0676   -6.6001    6.0621 C   0  0  2  0  0  0  0  0  0  0  0  0
   14.2644   -4.0901   11.6207 O   0  0  0  0  0  0  0  0  0  0  0  0
   17.2574   -3.8077    7.4994 N   0  0  0  0  0  0  0  0  0  0  0  0
   17.1892   -5.1564    7.2474 C   0  0  0  0  0  0  0  0  0  0  0  0
   15.9839   -5.7125    6.8790 N   0  0  0  0  0  0  0  0  0  0  0  0
   14.8713   -4.9540    6.7591 C   0  0  0  0  0  0  0  0  0  0  0  0
   14.9276   -3.5883    6.9966 C   0  0  0  0  0  0  0  0  0  0  0  0
   16.1372   -3.0128    7.3801 C   0  0  0  0  0  0  0  0  0  0  0  0
   16.2301   -1.7052    7.6237 N   0  0  0  0  0  0  0  0  0  0  0  0
   13.6850   -3.0783    6.7970 N   0  0  0  0  0  0  0  0  0  0  0  0
   12.8668   -4.0902    6.4265 C   0  0  0  0  0  0  0  0  0  0  0  0
   13.5880   -5.2582    6.3911 N   0  0  0  0  0  0  0  0  0  0  0  0
  2  1  1  6  0  0  0
  2  3  1  0  0  0  0
  2  5  1  0  0  0  0
  3  4  1  0  0  0  0
  3 17  1  0  0  0  0
  5  6  1  0  0  0  0
  7  6  1  1  0  0  0
  7  8  1  0  0  0  0
  7  9  1  0  0  0  0
 10  9  1  1  0  0  0
 10 11  1  0  0  0  0
 10 12  1  0  0  0  0
 11 16  1  0  0  0  0
 12 13  1  6  0  0  0
 12 14  1  0  0  0  0
 14 15  1  6  0  0  0
 14 16  1  0  0  0  0
 16 27  1  1  0  0  0
 18 19  2  0  0  0  0
 18 23  1  0  0  0  0
 19 20  1  0  0  0  0
 20 21  2  0  0  0  0
 21 22  1  0  0  0  0
 21 27  1  0  0  0  0
 22 23  2  0  0  0  0
 22 25  1  0  0  0  0
 23 24  1  0  0  0  0
 25 26  2  0  0  0  0
 26 27  1  0  0  0  0
M  END
>  <CHROM.1>
-34.77085690,64.37615399,-73.27198317,-73.32291308,-109.57343675,39.21508304
56.75823303,14.41086137,-6.37243441,8.02454978,-2.78753406,-1.36357325,-1.68392286

>  <Name>
ligand

>  <RI>
0

>  <Rbt.Current_Directory>
/home/itssahil/PROJECTS/Mol_Feturizer/New_Systems/rnas/3GX5

>  <Rbt.Executable>
rbdock ($Id: //depot/dev/client3/rdock/2013.1/src/exe/rbdock.cxx#4 $)

>  <Rbt.Library>
libRbt.so (2013.1, Build901 2013/11/27)

>  <Rbt.Parameter_File>
/export/apps/rDock/src/rDock_2013.1_src/data/scripts/dock_solv.prm

>  <Rbt.Receptor>
prm/pocket_docking_2.prm

>  <SCORE>
-12.7732

>  <SCORE.INTER>
-13.9086

>  <SCORE.INTER.CONST>
1

>  <SCORE.INTER.POLAR>
0

>  <SCORE.INTER.ROT>
7

>  <SCORE.INTER.SOLV>
16.6557

>  <SCORE.INTER.VDW>
-23.091

>  <SCORE.INTER.norm>
-0.515134

>  <SCORE.INTRA>
1.13547

>  <SCORE.INTRA.DIHEDRAL>
4.56822

>  <SCORE.INTRA.DIHEDRAL.0>
4.28829

>  <SCORE.INTRA.POLAR>
0

>  <SCORE.INTRA.POLAR.0>
0

>  <SCORE.INTRA.REPUL>
0

>  <SCORE.INTRA.REPUL.0>
0

>  <SCORE.INTRA.SOLV>
1.62319

>  <SCORE.INTRA.SOLV.lig_0>
-48.6018

>  <SCORE.INTRA.VDW>
-1.96024

>  <SCORE.INTRA.VDW.0>
-2.1506

>  <SCORE.INTRA.norm>
0.0420545

>  <SCORE.RESTR>
0

>  <SCORE.RESTR.CAVITY>
0

>  <SCORE.RESTR.norm>
0

>  <SCORE.SYSTEM>
0

>  <SCORE.SYSTEM.CONST>
0

>  <SCORE.SYSTEM.DIHEDRAL>
0

>  <SCORE.SYSTEM.SOLV>
0

>  <SCORE.SYSTEM.norm>
0

>  <SCORE.heavy>
27

>  <SCORE.norm>
-0.47308

>  <RMSD>
1.379

$$$$
ligand
 OpenBabel11021811483D
libRbt.so/2013.1/901 2013/11/27
 27 29  0  0  0  0  0  0  0  0999 V2000
   16.7595   -5.8239   11.1115 N   0  0  0  0  0  0  0  0  0  0  0  0
   15.5688   -6.6393   11.3586 C   0  0  2  0  0  0  0  0  0  0  0  0
   14.9357   -6.4877   12.7439 C   0  0  0  0  0  0  0  0  0  0  0  0
   15.6641   -6.5197   13.7349 O   0  0  0  0  0  0  0  0  0  0  0  0
   15.8394   -8.1029   11.0527 C   0  0  0  0  0  0  0  0  0  0  0  0
   14.5530   -8.9088   10.9960 C   0  0  0  0  0  0  0  0  0  0  0  0
   13.4456   -8.2523    9.7358 S   0  0  2  0  0  0  0  0  0  0  0  0
   12.1330   -9.4903    9.7969 C   0  0  0  0  0  0  0  0  0  0  0  0
   14.2979   -8.7906    8.2350 C   0  0  0  0  0  0  0  0  0  0  0  0
   13.6146   -8.2396    6.9971 C   0  0  1  0  0  0  0  0  0  0  0  0
   13.0961   -6.9532    7.2472 O   0  0  0  0  0  0  0  0  0  0  0  0
   14.5670   -8.0616    5.8311 C   0  0  1  0  0  0  0  0  0  0  0  0
   14.5274   -9.2257    5.0448 O   0  0  0  0  0  0  0  0  0  0  0  0
   13.9917   -6.8774    5.0809 C   0  0  1  0  0  0  0  0  0  0  0  0
   13.2608   -7.3867    3.9880 O   0  0  0  0  0  0  0  0  0  0  0  0
   13.0641   -6.1672    6.0690 C   0  0  2  0  0  0  0  0  0  0  0  0
   13.7226   -6.3397   12.9147 O   0  0  0  0  0  0  0  0  0  0  0  0
   17.3426   -3.5231    7.5253 N   0  0  0  0  0  0  0  0  0  0  0  0
   17.2373   -4.8613    7.2335 C   0  0  0  0  0  0  0  0  0  0  0  0
   16.0133   -5.3764    6.8671 N   0  0  0  0  0  0  0  0  0  0  0  0
   14.9182   -4.5876    6.7877 C   0  0  0  0  0  0  0  0  0  0  0  0
   15.0119   -3.2317    7.0659 C   0  0  0  0  0  0  0  0  0  0  0  0
   16.2409   -2.6979    7.4478 C   0  0  0  0  0  0  0  0  0  0  0  0
   16.3698   -1.4011    7.7297 N   0  0  0  0  0  0  0  0  0  0  0  0
   13.7794   -2.6857    6.9013 N   0  0  0  0  0  0  0  0  0  0  0  0
   12.9310   -3.6655    6.5129 C   0  0  0  0  0  0  0  0  0  0  0  0
   13.6224   -4.8490    6.4307 N   0  0  0  0  0  0  0  0  0  0  0  0
  2  1  1  1  0  0  0
  2  3  1  0  0  0  0
  2  5  1  0  0  0  0
  3  4  1  0  0  0  0
  3 17  1  0  0  0  0
  5  6  1  0  0  0  0
  7  6  1  1  0  0  0
  7  8  1  0  0  0  0
  7  9  1  0  0  0  0
 10  9  1  1  0  0  0
 10 11  1  0  0  0  0
 10 12  1  0  0  0  0
 11 16  1  0  0  0  0
 12 13  1  6  0  0  0
 12 14  1  0  0  0  0
 14 15  1  6  0  0  0
 14 16  1  0  0  0  0
 16 27  1  1  0  0  0
 18 19  2  0  0  0  0
 18 23  1  0  0  0  0
 19 20  1  0  0  0  0
 20 21  2  0  0  0  0
 21 22  1  0  0  0  0
 21 27  1  0  0  0  0
 22 23  2  0  0  0  0
 22 25  1  0  0  0  0
 23 24  1  0  0  0  0
 25 26  2  0  0  0  0
 26 27  1  0  0  0  0
M  END
>  <CHROM.1>
-46.85173731,-167.04638921,58.88028172,174.43841607,-174.74181145,34.76865461
67.16342109,14.59580723,-6.29781756,8.34423482,-1.52234681,-1.12871724,-1.13602855

>  <Name>
ligand

>  <RI>
0

>  <Rbt.Current_Directory>
/home/itssahil/PROJECTS/Mol_Feturizer/New_Systems/rnas/3GX5

>  <Rbt.Executable>
rbdock ($Id: //depot/dev/client3/rdock/2013.1/src/exe/rbdock.cxx#4 $)

>  <Rbt.Library>
libRbt.so (2013.1, Build901 2013/11/27)

>  <Rbt.Parameter_File>
/export/apps/rDock/src/rDock_2013.1_src/data/scripts/dock_solv.prm

>  <Rbt.Receptor>
prm/pocket_docking_3.prm

>  <SCORE>
-13.1792

>  <SCORE.INTER>
-13.0044

>  <SCORE.INTER.CONST>
1

>  <SCORE.INTER.POLAR>
0

>  <SCORE.INTER.ROT>
7

>  <SCORE.INTER.SOLV>
17.1001

>  <SCORE.INTER.VDW>
-22.6363

>  <SCORE.INTER.norm>
-0.481643

>  <SCORE.INTRA>
-0.174827

>  <SCORE.INTRA.DIHEDRAL>
2.22881

>  <SCORE.INTRA.DIHEDRAL.0>
4.28829

>  <SCORE.INTRA.POLAR>
0

>  <SCORE.INTRA.POLAR.0>
0

>  <SCORE.INTRA.REPUL>
0

>  <SCORE.INTRA.REPUL.0>
0

>  <SCORE.INTRA.SOLV>
-0.86987

>  <SCORE.INTRA.SOLV.lig_0>
-48.6018

>  <SCORE.INTRA.VDW>
-0.854296

>  <SCORE.INTRA.VDW.0>
-2.1506

>  <SCORE.INTRA.norm>
-0.00647507

>  <SCORE.RESTR>
0

>  <SCORE.RESTR.CAVITY>
0

>  <SCORE.RESTR.norm>
0

>  <SCORE.SYSTEM>
0

>  <SCORE.SYSTEM.CONST>
0

>  <SCORE.SYSTEM.DIHEDRAL>
0

>  <SCORE.SYSTEM.SOLV>
0

>  <SCORE.SYSTEM.norm>
0

>  <SCORE.heavy>
27

>  <SCORE.norm>
-0.488118

>  <RMSD>
1.391

$$$$
ligand
 OpenBabel11021811483D
libRbt.so/2013.1/901 2013/11/27
 27 29  0  0  0  0  0  0  0  0999 V2000
   15.1313   -6.5418   13.8453 N   0  0  0  0  0  0  0  0  0  0  0  0
   14.9911   -6.3293   12.4034 C   0  0  2  0  0  0  0  0  0  0  0  0
   15.9266   -5.2834   11.7922 C   0  0  0  0  0  0  0  0  0  0  0  0
   15.4466   -4.4056   11.0761 O   0  0  0  0  0  0  0  0  0  0  0  0
   13.5467   -6.0335   12.0357 C   0  0  0  0  0  0  0  0  0  0  0  0
   12.7012   -7.2955   12.0335 C   0  0  0  0  0  0  0  0  0  0  0  0
   11.8600   -7.4955   10.4531 S   0  0  2  0  0  0  0  0  0  0  0  0
   11.1551   -9.1419   10.6799 C   0  0  0  0  0  0  0  0  0  0  0  0
   13.2586   -7.9109    9.3854 C   0  0  0  0  0  0  0  0  0  0  0  0
   12.9450   -7.5945    7.9347 C   0  0  1  0  0  0  0  0  0  0  0  0
   12.6752   -6.2207    7.7733 O   0  0  0  0  0  0  0  0  0  0  0  0
   14.1096   -7.8797    7.0069 C   0  0  1  0  0  0  0  0  0  0  0  0
   13.9673   -9.1848    6.5054 O   0  0  0  0  0  0  0  0  0  0  0  0
   13.9455   -6.8519    5.9056 C   0  0  1  0  0  0  0  0  0  0  0  0
   13.3345   -7.5003    4.8127 O   0  0  0  0  0  0  0  0  0  0  0  0
   13.0259   -5.7704    6.4767 C   0  0  2  0  0  0  0  0  0  0  0  0
   17.1462   -5.2824   11.9802 O   0  0  0  0  0  0  0  0  0  0  0  0
   17.4996   -3.5880    8.1018 N   0  0  0  0  0  0  0  0  0  0  0  0
   17.1759   -4.9226    8.0691 C   0  0  0  0  0  0  0  0  0  0  0  0
   15.9363   -5.3037    7.6044 N   0  0  0  0  0  0  0  0  0  0  0  0
   15.0374   -4.3882    7.1788 C   0  0  0  0  0  0  0  0  0  0  0  0
   15.3550   -3.0378    7.1927 C   0  0  0  0  0  0  0  0  0  0  0  0
   16.6010   -2.6359    7.6695 C   0  0  0  0  0  0  0  0  0  0  0  0
   16.9409   -1.3472    7.7049 N   0  0  0  0  0  0  0  0  0  0  0  0
   14.2868   -2.3527    6.7094 N   0  0  0  0  0  0  0  0  0  0  0  0
   13.3244   -3.2456    6.3820 C   0  0  0  0  0  0  0  0  0  0  0  0
   13.7763   -4.5121    6.6600 N   0  0  0  0  0  0  0  0  0  0  0  0
  2  1  1  1  0  0  0
  2  3  1  0  0  0  0
  2  5  1  0  0  0  0
  3  4  1  0  0  0  0
  3 17  1  0  0  0  0
  5  6  1  0  0  0  0
  7  6  1  1  0  0  0
  7  8  1  0  0  0  0
  7  9  1  0  0  0  0
 10  9  1  1  0  0  0
 10 11  1  0  0  0  0
 10 12  1  0  0  0  0
 11 16  1  0  0  0  0
 12 13  1  6  0  0  0
 12 14  1  0  0  0  0
 14 15  1  6  0  0  0
 14 16  1  0  0  0  0
 16 27  1  1  0  0  0
 18 19  2  0  0  0  0
 18 23  1  0  0  0  0
 19 20  1  0  0  0  0
 20 21  2  0  0  0  0
 21 22  1  0  0  0  0
 21 27  1  0  0  0  0
 22 23  2  0  0  0  0
 22 25  1  0  0  0  0
 23 24  1  0  0  0  0
 25 26  2  0  0  0  0
 26 27  1  0  0  0  0
M  END
>  <CHROM.1>
-129.76899146,-76.86310497,-125.45820659,172.56124303,-157.22522587,60.52421581
70.52917419,14.33088810,-5.78668155,8.82628834,-2.24646858,-0.87247173,-1.35479221

>  <Name>
ligand

>  <RI>
0

>  <Rbt.Current_Directory>
/home/itssahil/PROJECTS/Mol_Feturizer/New_Systems/rnas/3GX5

>  <Rbt.Executable>
rbdock ($Id: //depot/dev/client3/rdock/2013.1/src/exe/rbdock.cxx#4 $)

>  <Rbt.Library>
libRbt.so (2013.1, Build901 2013/11/27)

>  <Rbt.Parameter_File>
/export/apps/rDock/src/rDock_2013.1_src/data/scripts/dock_solv.prm

>  <Rbt.Receptor>
prm/pocket_docking_2.prm

>  <SCORE>
-8.28537

>  <SCORE.INTER>
-12.6332

>  <SCORE.INTER.CONST>
1

>  <SCORE.INTER.POLAR>
0

>  <SCORE.INTER.ROT>
7

>  <SCORE.INTER.SOLV>
20.7468

>  <SCORE.INTER.VDW>
-23.6044

>  <SCORE.INTER.norm>
-0.467896

>  <SCORE.INTRA>
2.97038

>  <SCORE.INTRA.DIHEDRAL>
7.91297

>  <SCORE.INTRA.DIHEDRAL.0>
4.28829

>  <SCORE.INTRA.POLAR>
0

>  <SCORE.INTRA.POLAR.0>
0

>  <SCORE.INTRA.REPUL>
0

>  <SCORE.INTRA.REPUL.0>
0

>  <SCORE.INTRA.SOLV>
-0.68205

>  <SCORE.INTRA.SOLV.lig_0>
-48.6018

>  <SCORE.INTRA.VDW>
-0.645074

>  <SCORE.INTRA.VDW.0>
-2.1506

>  <SCORE.INTRA.norm>
0.110014

>  <SCORE.RESTR>
1.37743

>  <SCORE.RESTR.CAVITY>
1.37743

>  <SCORE.RESTR.norm>
0.051016

>  <SCORE.SYSTEM>
0

>  <SCORE.SYSTEM.CONST>
0

>  <SCORE.SYSTEM.DIHEDRAL>
0

>  <SCORE.SYSTEM.SOLV>
0

>  <SCORE.SYSTEM.norm>
0

>  <SCORE.heavy>
27

>  <SCORE.norm>
-0.306866

>  <RMSD>
1.427

$$$$
ligand
 OpenBabel11021811483D
libRbt.so/2013.1/901 2013/11/27
 27 29  0  0  0  0  0  0  0  0999 V2000
   15.5330   -6.3388   12.7008 N   0  0  0  0  0  0  0  0  0  0  0  0
   15.2681   -5.9027   11.3284 C   0  0  2  0  0  0  0  0  0  0  0  0
   13.8950   -5.2716   11.0854 C   0  0  0  0  0  0  0  0  0  0  0  0
   13.8361   -4.0829   10.7736 O   0  0  0  0  0  0  0  0  0  0  0  0
   15.5192   -7.0307   10.3418 C   0  0  0  0  0  0  0  0  0  0  0  0
   14.6073   -8.2166   10.6052 C   0  0  0  0  0  0  0  0  0  0  0  0
   13.2658   -8.2673    9.4039 S   0  0  2  0  0  0  0  0  0  0  0  0
   12.3747   -9.7234    9.9910 C   0  0  0  0  0  0  0  0  0  0  0  0
   14.1215   -8.9898    7.9845 C   0  0  0  0  0  0  0  0  0  0  0  0
   13.5625   -8.4476    6.6819 C   0  0  1  0  0  0  0  0  0  0  0  0
   13.0092   -7.1659    6.8744 O   0  0  0  0  0  0  0  0  0  0  0  0
   14.6270   -8.2625    5.6185 C   0  0  1  0  0  0  0  0  0  0  0  0
   14.6787   -9.4284    4.8354 O   0  0  0  0  0  0  0  0  0  0  0  0
   14.1200   -7.0853    4.8103 C   0  0  1  0  0  0  0  0  0  0  0  0
   13.5090   -7.6035    3.6501 O   0  0  0  0  0  0  0  0  0  0  0  0
   13.0899   -6.3822    5.6969 C   0  0  2  0  0  0  0  0  0  0  0  0
   12.8388   -5.9005   11.1933 O   0  0  0  0  0  0  0  0  0  0  0  0
   17.1067   -3.7243    7.7508 N   0  0  0  0  0  0  0  0  0  0  0  0
   17.0364   -5.0692    7.4795 C   0  0  0  0  0  0  0  0  0  0  0  0
   15.8816   -5.5869    6.9355 N   0  0  0  0  0  0  0  0  0  0  0  0
   14.8208   -4.7946    6.6625 C   0  0  0  0  0  0  0  0  0  0  0  0
   14.8819   -3.4324    6.9180 C   0  0  0  0  0  0  0  0  0  0  0  0
   16.0394   -2.8954    7.4777 C   0  0  0  0  0  0  0  0  0  0  0  0
   16.1342   -1.5924    7.7440 N   0  0  0  0  0  0  0  0  0  0  0  0
   13.6968   -2.8841    6.5452 N   0  0  0  0  0  0  0  0  0  0  0  0
   12.9118   -3.8691    6.0510 C   0  0  0  0  0  0  0  0  0  0  0  0
   13.5961   -5.0582    6.1099 N   0  0  0  0  0  0  0  0  0  0  0  0
  2  1  1  1  0  0  0
  2  3  1  0  0  0  0
  2  5  1  0  0  0  0
  3  4  1  0  0  0  0
  3 17  1  0  0  0  0
  5  6  1  0  0  0  0
  7  6  1  1  0  0  0
  7  8  1  0  0  0  0
  7  9  1  0  0  0  0
 10  9  1  1  0  0  0
 10 11  1  0  0  0  0
 10 12  1  0  0  0  0
 11 16  1  0  0  0  0
 12 13  1  6  0  0  0
 12 14  1  0  0  0  0
 14 15  1  6  0  0  0
 14 16  1  0  0  0  0
 16 27  1  1  0  0  0
 18 19  2  0  0  0  0
 18 23  1  0  0  0  0
 19 20  1  0  0  0  0
 20 21  2  0  0  0  0
 21 22  1  0  0  0  0
 21 27  1  0  0  0  0
 22 23  2  0  0  0  0
 22 25  1  0  0  0  0
 23 24  1  0  0  0  0
 25 26  2  0  0  0  0
 26 27  1  0  0  0  0
M  END
>  <CHROM.1>
114.29935566,61.23347939,103.34962525,-179.00944891,-147.13535758,26.53905745
63.43327997,14.34995832,-6.21159334,7.98481876,1.40559693,1.24899445,1.65370239

>  <Name>
ligand

>  <RI>
0

>  <Rbt.Current_Directory>
/home/itssahil/PROJECTS/Mol_Feturizer/New_Systems/rnas/3GX5

>  <Rbt.Executable>
rbdock ($Id: //depot/dev/client3/rdock/2013.1/src/exe/rbdock.cxx#4 $)

>  <Rbt.Library>
libRbt.so (2013.1, Build901 2013/11/27)

>  <Rbt.Parameter_File>
/export/apps/rDock/src/rDock_2013.1_src/data/scripts/dock_solv.prm

>  <Rbt.Receptor>
prm/pocket_docking_2.prm

>  <SCORE>
-9.5856

>  <SCORE.INTER>
-12.9544

>  <SCORE.INTER.CONST>
1

>  <SCORE.INTER.POLAR>
0

>  <SCORE.INTER.ROT>
7

>  <SCORE.INTER.SOLV>
17.2921

>  <SCORE.INTER.VDW>
-22.6669

>  <SCORE.INTER.norm>
-0.479791

>  <SCORE.INTRA>
3.36877

>  <SCORE.INTRA.DIHEDRAL>
10.4324

>  <SCORE.INTRA.DIHEDRAL.0>
4.28829

>  <SCORE.INTRA.POLAR>
0

>  <SCORE.INTRA.POLAR.0>
0

>  <SCORE.INTRA.REPUL>
0

>  <SCORE.INTRA.REPUL.0>
0

>  <SCORE.INTRA.SOLV>
-0.30457

>  <SCORE.INTRA.SOLV.lig_0>
-48.6018

>  <SCORE.INTRA.VDW>
-1.69513

>  <SCORE.INTRA.VDW.0>
-2.1506

>  <SCORE.INTRA.norm>
0.124769

>  <SCORE.RESTR>
0

>  <SCORE.RESTR.CAVITY>
0

>  <SCORE.RESTR.norm>
0

>  <SCORE.SYSTEM>
0

>  <SCORE.SYSTEM.CONST>
0

>  <SCORE.SYSTEM.DIHEDRAL>
0

>  <SCORE.SYSTEM.SOLV>
0

>  <SCORE.SYSTEM.norm>
0

>  <SCORE.heavy>
27

>  <SCORE.norm>
-0.355022

>  <RMSD>
1.429

$$$$
ligand
 OpenBabel11021811483D
libRbt.so/2013.1/901 2013/11/27
 27 29  0  0  0  0  0  0  0  0999 V2000
   14.5342   -7.1099   13.6341 N   0  0  0  0  0  0  0  0  0  0  0  0
   15.0241   -6.7191   12.3108 C   0  0  2  0  0  0  0  0  0  0  0  0
   14.1178   -5.7727   11.5198 C   0  0  0  0  0  0  0  0  0  0  0  0
   14.5967   -5.1438   10.5771 O   0  0  0  0  0  0  0  0  0  0  0  0
   15.3756   -7.9411   11.4789 C   0  0  0  0  0  0  0  0  0  0  0  0
   14.1633   -8.8266   11.2471 C   0  0  0  0  0  0  0  0  0  0  0  0
   13.1239   -8.1532    9.9389 S   0  0  2  0  0  0  0  0  0  0  0  0
   11.8778   -9.4548    9.8280 C   0  0  0  0  0  0  0  0  0  0  0  0
   14.1174   -8.5626    8.4849 C   0  0  0  0  0  0  0  0  0  0  0  0
   13.4610   -8.0461    7.2178 C   0  0  1  0  0  0  0  0  0  0  0  0
   13.0211   -6.7186    7.3921 O   0  0  0  0  0  0  0  0  0  0  0  0
   14.4159   -7.9943    6.0414 C   0  0  1  0  0  0  0  0  0  0  0  0
   14.3031   -9.1984    5.3256 O   0  0  0  0  0  0  0  0  0  0  0  0
   13.9077   -6.8244    5.2233 C   0  0  1  0  0  0  0  0  0  0  0  0
   13.1418   -7.3530    4.1641 O   0  0  0  0  0  0  0  0  0  0  0  0
   13.0292   -6.0031    6.1694 C   0  0  2  0  0  0  0  0  0  0  0  0
   12.9249   -5.6058   11.7880 O   0  0  0  0  0  0  0  0  0  0  0  0
   17.3471   -3.5639    7.8499 N   0  0  0  0  0  0  0  0  0  0  0  0
   17.1476   -4.9143    7.6958 C   0  0  0  0  0  0  0  0  0  0  0  0
   15.9298   -5.3673    7.2382 N   0  0  0  0  0  0  0  0  0  0  0  0
   14.9321   -4.5064    6.9364 C   0  0  0  0  0  0  0  0  0  0  0  0
   15.1233   -3.1392    7.0735 C   0  0  0  0  0  0  0  0  0  0  0  0
   16.3460   -2.6662    7.5451 C   0  0  0  0  0  0  0  0  0  0  0  0
   16.5660   -1.3600    7.6968 N   0  0  0  0  0  0  0  0  0  0  0  0
   13.9761   -2.5175    6.6973 N   0  0  0  0  0  0  0  0  0  0  0  0
   13.0875   -3.4637    6.3158 C   0  0  0  0  0  0  0  0  0  0  0  0
   13.6667   -4.7014    6.4511 N   0  0  0  0  0  0  0  0  0  0  0  0
  2  1  1  1  0  0  0
  2  3  1  0  0  0  0
  2  5  1  0  0  0  0
  3  4  1  0  0  0  0
  3 17  1  0  0  0  0
  5  6  1  0  0  0  0
  7  6  1  1  0  0  0
  7  8  1  0  0  0  0
  7  9  1  0  0  0  0
 10  9  1  1  0  0  0
 10 11  1  0  0  0  0
 10 12  1  0  0  0  0
 11 16  1  0  0  0  0
 12 13  1  6  0  0  0
 12 14  1  0  0  0  0
 14 15  1  6  0  0  0
 14 16  1  0  0  0  0
 16 27  1  1  0  0  0
 18 19  2  0  0  0  0
 18 23  1  0  0  0  0
 19 20  1  0  0  0  0
 20 21  2  0  0  0  0
 21 22  1  0  0  0  0
 21 27  1  0  0  0  0
 22 23  2  0  0  0  0
 22 25  1  0  0  0  0
 23 24  1  0  0  0  0
 25 26  2  0  0  0  0
 26 27  1  0  0  0  0
M  END
>  <CHROM.1>
161.83235401,61.36404484,78.97224295,176.15500102,-178.11533182,45.75804032
59.15011730,14.31351430,-6.16104728,8.38469600,-2.04474330,-1.14373046,-1.35973453

>  <Name>
ligand

>  <RI>
0

>  <Rbt.Current_Directory>
/home/itssahil/PROJECTS/Mol_Feturizer/New_Systems/rnas/3GX5

>  <Rbt.Executable>
rbdock ($Id: //depot/dev/client3/rdock/2013.1/src/exe/rbdock.cxx#4 $)

>  <Rbt.Library>
libRbt.so (2013.1, Build901 2013/11/27)

>  <Rbt.Parameter_File>
/export/apps/rDock/src/rDock_2013.1_src/data/scripts/dock_solv.prm

>  <Rbt.Receptor>
prm/pocket_docking_2.prm

>  <SCORE>
-12.5224

>  <SCORE.INTER>
-11.558

>  <SCORE.INTER.CONST>
1

>  <SCORE.INTER.POLAR>
0

>  <SCORE.INTER.ROT>
7

>  <SCORE.INTER.SOLV>
17.5094

>  <SCORE.INTER.VDW>
-21.8085

>  <SCORE.INTER.norm>
-0.428074

>  <SCORE.INTRA>
-0.974294

>  <SCORE.INTRA.DIHEDRAL>
1.52536

>  <SCORE.INTRA.DIHEDRAL.0>
4.28829

>  <SCORE.INTRA.POLAR>
0

>  <SCORE.INTRA.POLAR.0>
0

>  <SCORE.INTRA.REPUL>
0

>  <SCORE.INTRA.REPUL.0>
0

>  <SCORE.INTRA.SOLV>
-0.0226936

>  <SCORE.INTRA.SOLV.lig_0>
-48.6018

>  <SCORE.INTRA.VDW>
-1.72563

>  <SCORE.INTRA.VDW.0>
-2.1506

>  <SCORE.INTRA.norm>
-0.036085

>  <SCORE.RESTR>
0.00986126

>  <SCORE.RESTR.CAVITY>
0.00986126

>  <SCORE.RESTR.norm>
0.000365232

>  <SCORE.SYSTEM>
0

>  <SCORE.SYSTEM.CONST>
0

>  <SCORE.SYSTEM.DIHEDRAL>
0

>  <SCORE.SYSTEM.SOLV>
0

>  <SCORE.SYSTEM.norm>
0

>  <SCORE.heavy>
27

>  <SCORE.norm>
-0.463794

>  <RMSD>
1.442

$$$$
ligand
 OpenBabel11021811483D
libRbt.so/2013.1/901 2013/11/27
 27 29  0  0  0  0  0  0  0  0999 V2000
   14.5978   -5.3187   12.7625 N   0  0  0  0  0  0  0  0  0  0  0  0
   14.9845   -5.6552   11.3910 C   0  0  2  0  0  0  0  0  0  0  0  0
   14.7885   -4.5461   10.3545 C   0  0  0  0  0  0  0  0  0  0  0  0
   15.7767   -3.9425    9.9387 O   0  0  0  0  0  0  0  0  0  0  0  0
   14.3087   -6.9374   10.9350 C   0  0  0  0  0  0  0  0  0  0  0  0
   14.7929   -7.3657    9.5604 C   0  0  0  0  0  0  0  0  0  0  0  0
   14.1681   -9.0041    9.1472 S   0  0  2  0  0  0  0  0  0  0  0  0
   15.3278  -10.0258   10.0802 C   0  0  0  0  0  0  0  0  0  0  0  0
   14.8537   -9.2094    7.4870 C   0  0  0  0  0  0  0  0  0  0  0  0
   13.9173   -8.6356    6.4397 C   0  0  1  0  0  0  0  0  0  0  0  0
   13.3343   -7.4372    6.8981 O   0  0  0  0  0  0  0  0  0  0  0  0
   14.6314   -8.2613    5.1558 C   0  0  1  0  0  0  0  0  0  0  0  0
   14.5626   -9.3546    4.2755 O   0  0  0  0  0  0  0  0  0  0  0  0
   13.8277   -7.0885    4.6319 C   0  0  1  0  0  0  0  0  0  0  0  0
   12.9674   -7.5822    3.6298 O   0  0  0  0  0  0  0  0  0  0  0  0
   13.0251   -6.5653    5.8251 C   0  0  2  0  0  0  0  0  0  0  0  0
   13.6802   -4.2235    9.9184 O   0  0  0  0  0  0  0  0  0  0  0  0
   17.1687   -3.7298    7.3113 N   0  0  0  0  0  0  0  0  0  0  0  0
   17.1338   -5.0632    6.9827 C   0  0  0  0  0  0  0  0  0  0  0  0
   15.9357   -5.6349    6.6146 N   0  0  0  0  0  0  0  0  0  0  0  0
   14.7979   -4.9061    6.5690 C   0  0  0  0  0  0  0  0  0  0  0  0
   14.8201   -3.5554    6.8847 C   0  0  0  0  0  0  0  0  0  0  0  0
   16.0223   -2.9651    7.2688 C   0  0  0  0  0  0  0  0  0  0  0  0
   16.0830   -1.6715    7.5860 N   0  0  0  0  0  0  0  0  0  0  0  0
   13.5575   -3.0741    6.7486 N   0  0  0  0  0  0  0  0  0  0  0  0
   12.7598   -4.0882    6.3413 C   0  0  0  0  0  0  0  0  0  0  0  0
   13.5144   -5.2289    6.2183 N   0  0  0  0  0  0  0  0  0  0  0  0
  2  1  1  1  0  0  0
  2  3  1  0  0  0  0
  2  5  1  0  0  0  0
  3  4  1  0  0  0  0
  3 17  1  0  0  0  0
  5  6  1  0  0  0  0
  7  6  1  1  0  0  0
  7  8  1  0  0  0  0
  7  9  1  0  0  0  0
 10  9  1  1  0  0  0
 10 11  1  0  0  0  0
 10 12  1  0  0  0  0
 11 16  1  0  0  0  0
 12 13  1  6  0  0  0
 12 14  1  0  0  0  0
 14 15  1  6  0  0  0
 14 16  1  0  0  0  0
 16 27  1  1  0  0  0
 18 19  2  0  0  0  0
 18 23  1  0  0  0  0
 19 20  1  0  0  0  0
 20 21  2  0  0  0  0
 21 22  1  0  0  0  0
 21 27  1  0  0  0  0
 22 23  2  0  0  0  0
 22 25  1  0  0  0  0
 23 24  1  0  0  0  0
 25 26  2  0  0  0  0
 26 27  1  0  0  0  0
M  END
>  <CHROM.1>
105.19798075,-175.00642182,171.59941231,-79.70900962,-87.71491040,39.16702608
56.97950347,14.60179771,-6.16931979,7.74197571,0.10136767,1.36423509,2.21133819

>  <Name>
ligand

>  <RI>
0

>  <Rbt.Current_Directory>
/home/itssahil/PROJECTS/Mol_Feturizer/New_Systems/rnas/3GX5

>  <Rbt.Executable>
rbdock ($Id: //depot/dev/client3/rdock/2013.1/src/exe/rbdock.cxx#4 $)

>  <Rbt.Library>
libRbt.so (2013.1, Build901 2013/11/27)

>  <Rbt.Parameter_File>
/export/apps/rDock/src/rDock_2013.1_src/data/scripts/dock_solv.prm

>  <Rbt.Receptor>
prm/pocket_docking_3.prm

>  <SCORE>
-15.4798

>  <SCORE.INTER>
-13.4621

>  <SCORE.INTER.CONST>
1

>  <SCORE.INTER.POLAR>
0

>  <SCORE.INTER.ROT>
7

>  <SCORE.INTER.SOLV>
19.6929

>  <SCORE.INTER.VDW>
-23.8057

>  <SCORE.INTER.norm>
-0.498596

>  <SCORE.INTRA>
-2.01769

>  <SCORE.INTRA.DIHEDRAL>
2.16575

>  <SCORE.INTRA.DIHEDRAL.0>
4.28829

>  <SCORE.INTRA.POLAR>
0

>  <SCORE.INTRA.POLAR.0>
0

>  <SCORE.INTRA.REPUL>
0

>  <SCORE.INTRA.REPUL.0>
0

>  <SCORE.INTRA.SOLV>
-0.490495

>  <SCORE.INTRA.SOLV.lig_0>
-48.6018

>  <SCORE.INTRA.VDW>
-2.85531

>  <SCORE.INTRA.VDW.0>
-2.1506

>  <SCORE.INTRA.norm>
-0.0747291

>  <SCORE.RESTR>
0

>  <SCORE.RESTR.CAVITY>
0

>  <SCORE.RESTR.norm>
0

>  <SCORE.SYSTEM>
0

>  <SCORE.SYSTEM.CONST>
0

>  <SCORE.SYSTEM.DIHEDRAL>
0

>  <SCORE.SYSTEM.SOLV>
0

>  <SCORE.SYSTEM.norm>
0

>  <SCORE.heavy>
27

>  <SCORE.norm>
-0.573325

>  <RMSD>
1.466

$$$$
ligand
 OpenBabel11021811483D
libRbt.so/2013.1/901 2013/11/27
 27 29  0  0  0  0  0  0  0  0999 V2000
   16.3149   -7.0965   13.1522 N   0  0  0  0  0  0  0  0  0  0  0  0
   15.9826   -6.1291   12.1045 C   0  0  2  0  0  0  0  0  0  0  0  0
   15.2901   -4.8488   12.5781 C   0  0  0  0  0  0  0  0  0  0  0  0
   15.6978   -4.2980   13.5999 O   0  0  0  0  0  0  0  0  0  0  0  0
   15.1850   -6.7866   10.9908 C   0  0  0  0  0  0  0  0  0  0  0  0
   13.9444   -7.4803   11.5266 C   0  0  0  0  0  0  0  0  0  0  0  0
   12.5899   -7.3647   10.3447 S   0  0  2  0  0  0  0  0  0  0  0  0
   11.2577   -8.0905   11.3234 C   0  0  0  0  0  0  0  0  0  0  0  0
   12.9711   -8.7665    9.2683 C   0  0  0  0  0  0  0  0  0  0  0  0
   13.1734   -8.3095    7.8354 C   0  0  1  0  0  0  0  0  0  0  0  0
   12.7093   -6.9898    7.6649 O   0  0  0  0  0  0  0  0  0  0  0  0
   14.6346   -8.2692    7.4331 C   0  0  1  0  0  0  0  0  0  0  0  0
   14.9642   -9.4984    6.8370 O   0  0  0  0  0  0  0  0  0  0  0  0
   14.6934   -7.1408    6.4234 C   0  0  1  0  0  0  0  0  0  0  0  0
   14.6896   -7.7243    5.1399 O   0  0  0  0  0  0  0  0  0  0  0  0
   13.4252   -6.3140    6.6461 C   0  0  2  0  0  0  0  0  0  0  0  0
   14.3340   -4.3438   11.9835 O   0  0  0  0  0  0  0  0  0  0  0  0
   17.2801   -2.9104    7.6326 N   0  0  0  0  0  0  0  0  0  0  0  0
   17.3767   -4.1436    7.0349 C   0  0  0  0  0  0  0  0  0  0  0  0
   16.2381   -4.8997    6.8630 N   0  0  0  0  0  0  0  0  0  0  0  0
   15.0306   -4.4476    7.2693 C   0  0  0  0  0  0  0  0  0  0  0  0
   14.9151   -3.1985    7.8617 C   0  0  0  0  0  0  0  0  0  0  0  0
   16.0592   -2.4262    8.0518 C   0  0  0  0  0  0  0  0  0  0  0  0
   15.9901   -1.2236    8.6234 N   0  0  0  0  0  0  0  0  0  0  0  0
   13.6055   -2.9969    8.1590 N   0  0  0  0  0  0  0  0  0  0  0  0
   12.9072   -4.0814    7.7508 C   0  0  0  0  0  0  0  0  0  0  0  0
   13.7744   -4.9868    7.1907 N   0  0  0  0  0  0  0  0  0  0  0  0
  2  1  1  1  0  0  0
  2  3  1  0  0  0  0
  2  5  1  0  0  0  0
  3  4  1  0  0  0  0
  3 17  1  0  0  0  0
  5  6  1  0  0  0  0
  7  6  1  1  0  0  0
  7  8  1  0  0  0  0
  7  9  1  0  0  0  0
 10  9  1  1  0  0  0
 10 11  1  0  0  0  0
 10 12  1  0  0  0  0
 11 16  1  0  0  0  0
 12 13  1  6  0  0  0
 12 14  1  0  0  0  0
 14 15  1  6  0  0  0
 14 16  1  0  0  0  0
 16 27  1  1  0  0  0
 18 19  2  0  0  0  0
 18 23  1  0  0  0  0
 19 20  1  0  0  0  0
 20 21  2  0  0  0  0
 21 22  1  0  0  0  0
 21 27  1  0  0  0  0
 22 23  2  0  0  0  0
 22 25  1  0  0  0  0
 23 24  1  0  0  0  0
 25 26  2  0  0  0  0
 26 27  1  0  0  0  0
M  END
>  <CHROM.1>
42.45737643,54.82482931,145.60919606,-173.96333820,-121.02957349,-13.78053080
124.93003608,14.50741193,-5.87398814,9.03750261,-2.16710142,-1.10185328,-1.59852907

>  <Name>
ligand

>  <RI>
0

>  <Rbt.Current_Directory>
/home/itssahil/PROJECTS/Mol_Feturizer/New_Systems/rnas/3GX5

>  <Rbt.Executable>
rbdock ($Id: //depot/dev/client3/rdock/2013.1/src/exe/rbdock.cxx#4 $)

>  <Rbt.Library>
libRbt.so (2013.1, Build901 2013/11/27)

>  <Rbt.Parameter_File>
/export/apps/rDock/src/rDock_2013.1_src/data/scripts/dock_solv.prm

>  <Rbt.Receptor>
prm/pocket_docking_2.prm

>  <SCORE>
-3.38777

>  <SCORE.INTER>
-10.5542

>  <SCORE.INTER.CONST>
1

>  <SCORE.INTER.POLAR>
0

>  <SCORE.INTER.ROT>
7

>  <SCORE.INTER.SOLV>
21.0767

>  <SCORE.INTER.VDW>
-22.3284

>  <SCORE.INTER.norm>
-0.390896

>  <SCORE.INTRA>
6.53751

>  <SCORE.INTRA.DIHEDRAL>
12.0453

>  <SCORE.INTRA.DIHEDRAL.0>
4.28829

>  <SCORE.INTRA.POLAR>
0

>  <SCORE.INTRA.POLAR.0>
0

>  <SCORE.INTRA.REPUL>
0

>  <SCORE.INTRA.REPUL.0>
0

>  <SCORE.INTRA.SOLV>
-0.313947

>  <SCORE.INTRA.SOLV.lig_0>
-48.6018

>  <SCORE.INTRA.VDW>
0.671841

>  <SCORE.INTRA.VDW.0>
-2.1506

>  <SCORE.INTRA.norm>
0.24213

>  <SCORE.RESTR>
0.62892

>  <SCORE.RESTR.CAVITY>
0.62892

>  <SCORE.RESTR.norm>
0.0232933

>  <SCORE.SYSTEM>
0

>  <SCORE.SYSTEM.CONST>
0

>  <SCORE.SYSTEM.DIHEDRAL>
0

>  <SCORE.SYSTEM.SOLV>
0

>  <SCORE.SYSTEM.norm>
0

>  <SCORE.heavy>
27

>  <SCORE.norm>
-0.125473

>  <RMSD>
1.512

$$$$
ligand
 OpenBabel11021811483D
libRbt.so/2013.1/901 2013/11/27
 27 29  0  0  0  0  0  0  0  0999 V2000
   16.9279   -5.4286   10.7054 N   0  0  0  0  0  0  0  0  0  0  0  0
   15.4836   -5.2677   10.5265 C   0  0  2  0  0  0  0  0  0  0  0  0
   14.7767   -4.4042   11.5741 C   0  0  0  0  0  0  0  0  0  0  0  0
   15.2851   -4.2899   12.6886 O   0  0  0  0  0  0  0  0  0  0  0  0
   14.7983   -6.6177   10.3970 C   0  0  0  0  0  0  0  0  0  0  0  0
   15.2194   -7.3384    9.1279 C   0  0  0  0  0  0  0  0  0  0  0  0
   14.3333   -8.8976    8.9573 S   0  0  2  0  0  0  0  0  0  0  0  0
   15.4122   -9.9778    9.9208 C   0  0  0  0  0  0  0  0  0  0  0  0
   14.8349   -9.3810    7.2890 C   0  0  0  0  0  0  0  0  0  0  0  0
   13.9133   -8.7717    6.2486 C   0  0  1  0  0  0  0  0  0  0  0  0
   13.3203   -7.5917    6.7407 O   0  0  0  0  0  0  0  0  0  0  0  0
   14.6461   -8.3501    4.9902 C   0  0  1  0  0  0  0  0  0  0  0  0
   14.5936   -9.4112    4.0702 O   0  0  0  0  0  0  0  0  0  0  0  0
   13.8477   -7.1607    4.4965 C   0  0  1  0  0  0  0  0  0  0  0  0
   13.0042   -7.6197    3.4641 O   0  0  0  0  0  0  0  0  0  0  0  0
   13.0256   -6.6824    5.6951 C   0  0  2  0  0  0  0  0  0  0  0  0
   13.7128   -3.8189   11.3542 O   0  0  0  0  0  0  0  0  0  0  0  0
   17.1714   -3.8503    7.1816 N   0  0  0  0  0  0  0  0  0  0  0  0
   17.1479   -5.1641    6.7808 C   0  0  0  0  0  0  0  0  0  0  0  0
   15.9470   -5.7385    6.4263 N   0  0  0  0  0  0  0  0  0  0  0  0
   14.7955   -5.0313    6.4637 C   0  0  0  0  0  0  0  0  0  0  0  0
   14.8054   -3.6998    6.8531 C   0  0  0  0  0  0  0  0  0  0  0  0
   16.0107   -3.1076    7.2244 C   0  0  0  0  0  0  0  0  0  0  0  0
   16.0602   -1.8324    7.6107 N   0  0  0  0  0  0  0  0  0  0  0  0
   13.5302   -3.2372    6.7910 N   0  0  0  0  0  0  0  0  0  0  0  0
   12.7358   -4.2432    6.3579 C   0  0  0  0  0  0  0  0  0  0  0  0
   13.5054   -5.3600    6.1436 N   0  0  0  0  0  0  0  0  0  0  0  0
  2  1  1  1  0  0  0
  2  3  1  0  0  0  0
  2  5  1  0  0  0  0
  3  4  1  0  0  0  0
  3 17  1  0  0  0  0
  5  6  1  0  0  0  0
  7  6  1  1  0  0  0
  7  8  1  0  0  0  0
  7  9  1  0  0  0  0
 10  9  1  1  0  0  0
 10 11  1  0  0  0  0
 10 12  1  0  0  0  0
 11 16  1  0  0  0  0
 12 13  1  6  0  0  0
 12 14  1  0  0  0  0
 14 15  1  6  0  0  0
 14 16  1  0  0  0  0
 16 27  1  1  0  0  0
 18 19  2  0  0  0  0
 18 23  1  0  0  0  0
 19 20  1  0  0  0  0
 20 21  2  0  0  0  0
 21 22  1  0  0  0  0
 21 27  1  0  0  0  0
 22 23  2  0  0  0  0
 22 25  1  0  0  0  0
 23 24  1  0  0  0  0
 25 26  2  0  0  0  0
 26 27  1  0  0  0  0
M  END
>  <CHROM.1>
-24.75411102,-65.87009893,-177.21488265,-86.41644392,-86.94611807,25.58971933
60.36557089,14.73236894,-6.20565790,7.71933260,-0.03942864,1.36112876,2.54216684

>  <Name>
ligand

>  <RI>
0

>  <Rbt.Current_Directory>
/home/itssahil/PROJECTS/Mol_Feturizer/New_Systems/rnas/3GX5

>  <Rbt.Executable>
rbdock ($Id: //depot/dev/client3/rdock/2013.1/src/exe/rbdock.cxx#4 $)

>  <Rbt.Library>
libRbt.so (2013.1, Build901 2013/11/27)

>  <Rbt.Parameter_File>
/export/apps/rDock/src/rDock_2013.1_src/data/scripts/dock_solv.prm

>  <Rbt.Receptor>
prm/pocket_docking_3.prm

>  <SCORE>
-15.5467

>  <SCORE.INTER>
-15.2427

>  <SCORE.INTER.CONST>
1

>  <SCORE.INTER.POLAR>
0

>  <SCORE.INTER.ROT>
7

>  <SCORE.INTER.SOLV>
17.0361

>  <SCORE.INTER.VDW>
-24.1071

>  <SCORE.INTER.norm>
-0.564543

>  <SCORE.INTRA>
-0.304047

>  <SCORE.INTRA.DIHEDRAL>
4.23888

>  <SCORE.INTRA.DIHEDRAL.0>
4.28829

>  <SCORE.INTRA.POLAR>
0

>  <SCORE.INTRA.POLAR.0>
0

>  <SCORE.INTRA.REPUL>
0

>  <SCORE.INTRA.REPUL.0>
0

>  <SCORE.INTRA.SOLV>
-0.232789

>  <SCORE.INTRA.SOLV.lig_0>
-48.6018

>  <SCORE.INTRA.VDW>
-2.3071

>  <SCORE.INTRA.VDW.0>
-2.1506

>  <SCORE.INTRA.norm>
-0.011261

>  <SCORE.RESTR>
0

>  <SCORE.RESTR.CAVITY>
0

>  <SCORE.RESTR.norm>
0

>  <SCORE.SYSTEM>
0

>  <SCORE.SYSTEM.CONST>
0

>  <SCORE.SYSTEM.DIHEDRAL>
0

>  <SCORE.SYSTEM.SOLV>
0

>  <SCORE.SYSTEM.norm>
0

>  <SCORE.heavy>
27

>  <SCORE.norm>
-0.575804

>  <RMSD>
1.512

$$$$
ligand
 OpenBabel11021811483D
libRbt.so/2013.1/901 2013/11/27
 27 29  0  0  0  0  0  0  0  0999 V2000
   15.5148   -7.4185   13.5605 N   0  0  0  0  0  0  0  0  0  0  0  0
   14.9865   -6.9764   12.2685 C   0  0  2  0  0  0  0  0  0  0  0  0
   14.9107   -5.4612   12.0652 C   0  0  0  0  0  0  0  0  0  0  0  0
   13.8044   -4.9292   11.9824 O   0  0  0  0  0  0  0  0  0  0  0  0
   13.6408   -7.6214   11.9823 C   0  0  0  0  0  0  0  0  0  0  0  0
   13.8017   -9.0198   11.4113 C   0  0  0  0  0  0  0  0  0  0  0  0
   14.0365   -8.9555    9.6264 S   0  0  2  0  0  0  0  0  0  0  0  0
   15.5668   -8.0011    9.5462 C   0  0  0  0  0  0  0  0  0  0  0  0
   12.8519   -7.6632    9.1844 C   0  0  0  0  0  0  0  0  0  0  0  0
   12.8398   -7.4298    7.6849 C   0  0  1  0  0  0  0  0  0  0  0  0
   12.5861   -6.0741    7.3955 O   0  0  0  0  0  0  0  0  0  0  0  0
   14.1755   -7.7293    7.0335 C   0  0  1  0  0  0  0  0  0  0  0  0
   14.1620   -9.0617    6.5868 O   0  0  0  0  0  0  0  0  0  0  0  0
   14.2255   -6.7638    5.8667 C   0  0  1  0  0  0  0  0  0  0  0  0
   13.8646   -7.4838    4.7093 O   0  0  0  0  0  0  0  0  0  0  0  0
   13.1897   -5.6807    6.1757 C   0  0  2  0  0  0  0  0  0  0  0  0
   15.9118   -4.7455   11.9743 O   0  0  0  0  0  0  0  0  0  0  0  0
   17.5337   -3.3444    7.9334 N   0  0  0  0  0  0  0  0  0  0  0  0
   17.2898   -4.6911    7.8148 C   0  0  0  0  0  0  0  0  0  0  0  0
   16.0728   -5.1148    7.3279 N   0  0  0  0  0  0  0  0  0  0  0  0
   15.1188   -4.2291    6.9634 C   0  0  0  0  0  0  0  0  0  0  0  0
   15.3556   -2.8658    7.0643 C   0  0  0  0  0  0  0  0  0  0  0  0
   16.5778   -2.4218    7.5647 C   0  0  0  0  0  0  0  0  0  0  0  0
   16.8405   -1.1201    7.6831 N   0  0  0  0  0  0  0  0  0  0  0  0
   14.2460   -2.2160    6.6276 N   0  0  0  0  0  0  0  0  0  0  0  0
   13.3369   -3.1417    6.2442 C   0  0  0  0  0  0  0  0  0  0  0  0
   13.8647   -4.3943    6.4391 N   0  0  0  0  0  0  0  0  0  0  0  0
  2  1  1  1  0  0  0
  2  3  1  0  0  0  0
  2  5  1  0  0  0  0
  3  4  1  0  0  0  0
  3 17  1  0  0  0  0
  5  6  1  0  0  0  0
  7  6  1  1  0  0  0
  7  8  1  0  0  0  0
  7  9  1  0  0  0  0
 10  9  1  1  0  0  0
 10 11  1  0  0  0  0
 10 12  1  0  0  0  0
 11 16  1  0  0  0  0
 12 13  1  6  0  0  0
 12 14  1  0  0  0  0
 14 15  1  6  0  0  0
 14 16  1  0  0  0  0
 16 27  1  1  0  0  0
 18 19  2  0  0  0  0
 18 23  1  0  0  0  0
 19 20  1  0  0  0  0
 20 21  2  0  0  0  0
 21 22  1  0  0  0  0
 21 27  1  0  0  0  0
 22 23  2  0  0  0  0
 22 25  1  0  0  0  0
 23 24  1  0  0  0  0
 25 26  2  0  0  0  0
 26 27  1  0  0  0  0
M  END
>  <CHROM.1>
-112.75319155,-82.32403653,-85.12705499,61.36997415,-179.00164714,-146.62196470
84.53874470,14.62176955,-5.94266930,8.62517854,-1.91549007,-1.12957332,-1.12839962

>  <Name>
ligand

>  <RI>
0

>  <Rbt.Current_Directory>
/home/itssahil/PROJECTS/Mol_Feturizer/New_Systems/rnas/3GX5

>  <Rbt.Executable>
rbdock ($Id: //depot/dev/client3/rdock/2013.1/src/exe/rbdock.cxx#4 $)

>  <Rbt.Library>
libRbt.so (2013.1, Build901 2013/11/27)

>  <Rbt.Parameter_File>
/export/apps/rDock/src/rDock_2013.1_src/data/scripts/dock_solv.prm

>  <Rbt.Receptor>
prm/pocket_docking_2.prm

>  <SCORE>
1.93343

>  <SCORE.INTER>
-7.53722

>  <SCORE.INTER.CONST>
1

>  <SCORE.INTER.POLAR>
0

>  <SCORE.INTER.ROT>
7

>  <SCORE.INTER.SOLV>
18.5721

>  <SCORE.INTER.VDW>
-19.4822

>  <SCORE.INTER.norm>
-0.279156

>  <SCORE.INTRA>
9.46035

>  <SCORE.INTRA.DIHEDRAL>
6.56777

>  <SCORE.INTRA.DIHEDRAL.0>
4.28829

>  <SCORE.INTRA.POLAR>
0

>  <SCORE.INTRA.POLAR.0>
0

>  <SCORE.INTRA.REPUL>
0

>  <SCORE.INTRA.REPUL.0>
0

>  <SCORE.INTRA.SOLV>
0.338444

>  <SCORE.INTRA.SOLV.lig_0>
-48.6018

>  <SCORE.INTRA.VDW>
6.00724

>  <SCORE.INTRA.VDW.0>
-2.1506

>  <SCORE.INTRA.norm>
0.350383

>  <SCORE.RESTR>
0.0103012

>  <SCORE.RESTR.CAVITY>
0.0103012

>  <SCORE.RESTR.norm>
0.000381527

>  <SCORE.SYSTEM>
0

>  <SCORE.SYSTEM.CONST>
0

>  <SCORE.SYSTEM.DIHEDRAL>
0

>  <SCORE.SYSTEM.SOLV>
0

>  <SCORE.SYSTEM.norm>
0

>  <SCORE.heavy>
27

>  <SCORE.norm>
0.0716086

>  <RMSD>
1.522

$$$$
ligand
 OpenBabel11021811483D
libRbt.so/2013.1/901 2013/11/27
 27 29  0  0  0  0  0  0  0  0999 V2000
   16.0632   -4.6440   11.4588 N   0  0  0  0  0  0  0  0  0  0  0  0
   14.9813   -5.0000   12.3789 C   0  0  2  0  0  0  0  0  0  0  0  0
   15.2813   -6.1498   13.3437 C   0  0  0  0  0  0  0  0  0  0  0  0
   14.5537   -6.3062   14.3234 O   0  0  0  0  0  0  0  0  0  0  0  0
   13.6890   -5.2608   11.6233 C   0  0  0  0  0  0  0  0  0  0  0  0
   13.7970   -6.4921   10.7403 C   0  0  0  0  0  0  0  0  0  0  0  0
   12.1887   -6.9270   10.0550 S   0  0  2  0  0  0  0  0  0  0  0  0
   11.3934   -7.6033   11.5279 C   0  0  0  0  0  0  0  0  0  0  0  0
   12.5998   -8.4664    9.2008 C   0  0  0  0  0  0  0  0  0  0  0  0
   13.1239   -8.1873    7.8042 C   0  0  1  0  0  0  0  0  0  0  0  0
   12.7859   -6.8805    7.3990 O   0  0  0  0  0  0  0  0  0  0  0  0
   14.6365   -8.2472    7.7222 C   0  0  1  0  0  0  0  0  0  0  0  0
   15.0087   -9.5487    7.3446 O   0  0  0  0  0  0  0  0  0  0  0  0
   14.9726   -7.2472    6.6345 C   0  0  1  0  0  0  0  0  0  0  0  0
   15.2018   -7.9759    5.4494 O   0  0  0  0  0  0  0  0  0  0  0  0
   13.7380   -6.3546    6.4912 C   0  0  2  0  0  0  0  0  0  0  0  0
   16.2265   -6.9275   13.1875 O   0  0  0  0  0  0  0  0  0  0  0  0
   17.5015   -2.9957    7.8954 N   0  0  0  0  0  0  0  0  0  0  0  0
   17.6464   -4.2920    7.4643 C   0  0  0  0  0  0  0  0  0  0  0  0
   16.5249   -5.0230    7.1395 N   0  0  0  0  0  0  0  0  0  0  0  0
   15.2881   -4.4857    7.2352 C   0  0  0  0  0  0  0  0  0  0  0  0
   15.1268   -3.1735    7.6556 C   0  0  0  0  0  0  0  0  0  0  0  0
   16.2508   -2.4246    7.9976 C   0  0  0  0  0  0  0  0  0  0  0  0
   16.1365   -1.1626    8.4123 N   0  0  0  0  0  0  0  0  0  0  0  0
   13.7979   -2.8939    7.6505 N   0  0  0  0  0  0  0  0  0  0  0  0
   13.1358   -3.9933    7.2222 C   0  0  0  0  0  0  0  0  0  0  0  0
   14.0452   -4.9865    6.9537 N   0  0  0  0  0  0  0  0  0  0  0  0
  2  1  1  6  0  0  0
  2  3  1  0  0  0  0
  2  5  1  0  0  0  0
  3  4  1  0  0  0  0
  3 17  1  0  0  0  0
  5  6  1  0  0  0  0
  7  6  1  1  0  0  0
  7  8  1  0  0  0  0
  7  9  1  0  0  0  0
 10  9  1  1  0  0  0
 10 11  1  0  0  0  0
 10 12  1  0  0  0  0
 11 16  1  0  0  0  0
 12 13  1  6  0  0  0
 12 14  1  0  0  0  0
 14 15  1  6  0  0  0
 14 16  1  0  0  0  0
 16 27  1  1  0  0  0
 18 19  2  0  0  0  0
 18 23  1  0  0  0  0
 19 20  1  0  0  0  0
 20 21  2  0  0  0  0
 21 22  1  0  0  0  0
 21 27  1  0  0  0  0
 22 23  2  0  0  0  0
 22 25  1  0  0  0  0
 23 24  1  0  0  0  0
 25 26  2  0  0  0  0
 26 27  1  0  0  0  0
M  END
>  <CHROM.1>
164.08600323,66.07480551,171.28294430,-73.40601126,-85.77059822,-17.48564398
125.29155043,14.51515161,-5.83253738,9.07056472,-2.12048396,-1.03221746,-1.64776680

>  <Name>
ligand

>  <RI>
0

>  <Rbt.Current_Directory>
/home/itssahil/PROJECTS/Mol_Feturizer/New_Systems/rnas/3GX5

>  <Rbt.Executable>
rbdock ($Id: //depot/dev/client3/rdock/2013.1/src/exe/rbdock.cxx#4 $)

>  <Rbt.Library>
libRbt.so (2013.1, Build901 2013/11/27)

>  <Rbt.Parameter_File>
/export/apps/rDock/src/rDock_2013.1_src/data/scripts/dock_solv.prm

>  <Rbt.Receptor>
prm/pocket_docking_2.prm

>  <SCORE>
-9.79469

>  <SCORE.INTER>
-12.0555

>  <SCORE.INTER.CONST>
1

>  <SCORE.INTER.POLAR>
0

>  <SCORE.INTER.ROT>
7

>  <SCORE.INTER.SOLV>
19.7605

>  <SCORE.INTER.VDW>
-22.8905

>  <SCORE.INTER.norm>
-0.4465

>  <SCORE.INTRA>
2.22059

>  <SCORE.INTRA.DIHEDRAL>
4.65147

>  <SCORE.INTRA.DIHEDRAL.0>
4.28829

>  <SCORE.INTRA.POLAR>
0

>  <SCORE.INTRA.POLAR.0>
0

>  <SCORE.INTRA.REPUL>
0

>  <SCORE.INTRA.REPUL.0>
0

>  <SCORE.INTRA.SOLV>
-0.438184

>  <SCORE.INTRA.SOLV.lig_0>
-48.6018

>  <SCORE.INTRA.VDW>
0.113942

>  <SCORE.INTRA.VDW.0>
-2.1506

>  <SCORE.INTRA.norm>
0.082244

>  <SCORE.RESTR>
0.040229

>  <SCORE.RESTR.CAVITY>
0.040229

>  <SCORE.RESTR.norm>
0.00148996

>  <SCORE.SYSTEM>
0

>  <SCORE.SYSTEM.CONST>
0

>  <SCORE.SYSTEM.DIHEDRAL>
0

>  <SCORE.SYSTEM.SOLV>
0

>  <SCORE.SYSTEM.norm>
0

>  <SCORE.heavy>
27

>  <SCORE.norm>
-0.362766

>  <RMSD>
1.542

$$$$
ligand
 OpenBabel11021811483D
libRbt.so/2013.1/901 2013/11/27
 27 29  0  0  0  0  0  0  0  0999 V2000
   14.8090   -6.5845   14.3592 N   0  0  0  0  0  0  0  0  0  0  0  0
   14.9641   -6.1531   12.9686 C   0  0  2  0  0  0  0  0  0  0  0  0
   15.8405   -4.9173   12.7504 C   0  0  0  0  0  0  0  0  0  0  0  0
   16.6110   -4.8992   11.7914 O   0  0  0  0  0  0  0  0  0  0  0  0
   13.6109   -5.9723   12.3016 C   0  0  0  0  0  0  0  0  0  0  0  0
   12.8058   -7.2604   12.3133 C   0  0  0  0  0  0  0  0  0  0  0  0
   11.8670   -7.4383   10.7862 S   0  0  2  0  0  0  0  0  0  0  0  0
   11.1424   -9.0702   11.0525 C   0  0  0  0  0  0  0  0  0  0  0  0
   13.1897   -7.8800    9.6356 C   0  0  0  0  0  0  0  0  0  0  0  0
   12.7774   -7.5978    8.2026 C   0  0  1  0  0  0  0  0  0  0  0  0
   12.5148   -6.2249    8.0227 O   0  0  0  0  0  0  0  0  0  0  0  0
   13.8688   -7.9253    7.2026 C   0  0  1  0  0  0  0  0  0  0  0  0
   13.6740   -9.2411    6.7490 O   0  0  0  0  0  0  0  0  0  0  0  0
   13.6400   -6.9250    6.0876 C   0  0  1  0  0  0  0  0  0  0  0  0
   12.9441   -7.5931    5.0594 O   0  0  0  0  0  0  0  0  0  0  0  0
   12.7779   -5.8149    6.6924 C   0  0  2  0  0  0  0  0  0  0  0  0
   15.8144   -3.9357   13.4978 O   0  0  0  0  0  0  0  0  0  0  0  0
   17.2058   -3.5792    8.3699 N   0  0  0  0  0  0  0  0  0  0  0  0
   16.8409   -4.9004    8.4624 C   0  0  0  0  0  0  0  0  0  0  0  0
   15.6224   -5.2993    7.9587 N   0  0  0  0  0  0  0  0  0  0  0  0
   14.7839   -4.4146    7.3741 C   0  0  0  0  0  0  0  0  0  0  0  0
   15.1445   -3.0798    7.2609 C   0  0  0  0  0  0  0  0  0  0  0  0
   16.3693   -2.6590    7.7747 C   0  0  0  0  0  0  0  0  0  0  0  0
   16.7486   -1.3835    7.6912 N   0  0  0  0  0  0  0  0  0  0  0  0
   14.1333   -2.4260    6.6329 N   0  0  0  0  0  0  0  0  0  0  0  0
   13.1653   -3.3251    6.3407 C   0  0  0  0  0  0  0  0  0  0  0  0
   13.5559   -4.5635    6.7869 N   0  0  0  0  0  0  0  0  0  0  0  0
  2  1  1  1  0  0  0
  2  3  1  0  0  0  0
  2  5  1  0  0  0  0
  3  4  1  0  0  0  0
  3 17  1  0  0  0  0
  5  6  1  0  0  0  0
  7  6  1  1  0  0  0
  7  8  1  0  0  0  0
  7  9  1  0  0  0  0
 10  9  1  1  0  0  0
 10 11  1  0  0  0  0
 10 12  1  0  0  0  0
 11 16  1  0  0  0  0
 12 13  1  6  0  0  0
 12 14  1  0  0  0  0
 14 15  1  6  0  0  0
 14 16  1  0  0  0  0
 16 27  1  1  0  0  0
 18 19  2  0  0  0  0
 18 23  1  0  0  0  0
 19 20  1  0  0  0  0
 20 21  2  0  0  0  0
 21 22  1  0  0  0  0
 21 27  1  0  0  0  0
 22 23  2  0  0  0  0
 22 25  1  0  0  0  0
 23 24  1  0  0  0  0
 25 26  2  0  0  0  0
 26 27  1  0  0  0  0
M  END
>  <CHROM.1>
139.67265020,-59.18683318,-142.98035837,176.04764462,-159.19261683,61.37817203
61.20321484,14.16718522,-5.74580398,9.15974245,-1.72312811,-0.90820262,-1.36740259

>  <Name>
ligand

>  <RI>
0

>  <Rbt.Current_Directory>
/home/itssahil/PROJECTS/Mol_Feturizer/New_Systems/rnas/3GX5

>  <Rbt.Executable>
rbdock ($Id: //depot/dev/client3/rdock/2013.1/src/exe/rbdock.cxx#4 $)

>  <Rbt.Library>
libRbt.so (2013.1, Build901 2013/11/27)

>  <Rbt.Parameter_File>
/export/apps/rDock/src/rDock_2013.1_src/data/scripts/dock_solv.prm

>  <Rbt.Receptor>
prm/pocket_docking_5.prm

>  <SCORE>
-14.0536

>  <SCORE.INTER>
-14.9614

>  <SCORE.INTER.CONST>
1

>  <SCORE.INTER.POLAR>
0

>  <SCORE.INTER.ROT>
7

>  <SCORE.INTER.SOLV>
21.805

>  <SCORE.INTER.VDW>
-25.5093

>  <SCORE.INTER.norm>
-0.554128

>  <SCORE.INTRA>
0.907894

>  <SCORE.INTRA.DIHEDRAL>
5.11278

>  <SCORE.INTRA.DIHEDRAL.0>
4.28829

>  <SCORE.INTRA.POLAR>
0

>  <SCORE.INTRA.POLAR.0>
0

>  <SCORE.INTRA.REPUL>
0

>  <SCORE.INTRA.REPUL.0>
0

>  <SCORE.INTRA.SOLV>
-0.541931

>  <SCORE.INTRA.SOLV.lig_0>
-48.6018

>  <SCORE.INTRA.VDW>
-1.37753

>  <SCORE.INTRA.VDW.0>
-2.1506

>  <SCORE.INTRA.norm>
0.0336257

>  <SCORE.RESTR>
0

>  <SCORE.RESTR.CAVITY>
0

>  <SCORE.RESTR.norm>
0

>  <SCORE.SYSTEM>
0

>  <SCORE.SYSTEM.CONST>
0

>  <SCORE.SYSTEM.DIHEDRAL>
0

>  <SCORE.SYSTEM.SOLV>
0

>  <SCORE.SYSTEM.norm>
0

>  <SCORE.heavy>
27

>  <SCORE.norm>
-0.520502

>  <RMSD>
1.557

$$$$
ligand
 OpenBabel11021811483D
libRbt.so/2013.1/901 2013/11/27
 27 29  0  0  0  0  0  0  0  0999 V2000
   13.4739   -4.6668    9.3764 N   0  0  0  0  0  0  0  0  0  0  0  0
   13.5128   -6.0526    9.8473 C   0  0  2  0  0  0  0  0  0  0  0  0
   12.8074   -6.3217   11.1788 C   0  0  0  0  0  0  0  0  0  0  0  0
   11.9717   -7.2229   11.2349 O   0  0  0  0  0  0  0  0  0  0  0  0
   14.9395   -6.5741    9.8841 C   0  0  0  0  0  0  0  0  0  0  0  0
   15.0130   -7.9565   10.5095 C   0  0  0  0  0  0  0  0  0  0  0  0
   13.9278   -9.1051    9.6445 S   0  0  2  0  0  0  0  0  0  0  0  0
   14.4602  -10.6606   10.3902 C   0  0  0  0  0  0  0  0  0  0  0  0
   14.7779   -9.2271    8.0536 C   0  0  0  0  0  0  0  0  0  0  0  0
   13.9004   -8.7079    6.9296 C   0  0  1  0  0  0  0  0  0  0  0  0
   13.3405   -7.4608    7.2724 O   0  0  0  0  0  0  0  0  0  0  0  0
   14.6736   -8.4552    5.6503 C   0  0  1  0  0  0  0  0  0  0  0  0
   14.6017   -9.6105    4.8533 O   0  0  0  0  0  0  0  0  0  0  0  0
   13.9289   -7.3026    5.0076 C   0  0  1  0  0  0  0  0  0  0  0  0
   13.0907   -7.8460    4.0126 O   0  0  0  0  0  0  0  0  0  0  0  0
   13.1003   -6.6653    6.1251 C   0  0  2  0  0  0  0  0  0  0  0  0
   13.0345   -5.6706   12.2021 O   0  0  0  0  0  0  0  0  0  0  0  0
   17.3042   -3.8326    7.4368 N   0  0  0  0  0  0  0  0  0  0  0  0
   17.2405   -5.1828    7.1917 C   0  0  0  0  0  0  0  0  0  0  0  0
   16.0303   -5.7504    6.8585 N   0  0  0  0  0  0  0  0  0  0  0  0
   14.9085   -5.0015    6.7663 C   0  0  0  0  0  0  0  0  0  0  0  0
   14.9598   -3.6346    6.9973 C   0  0  0  0  0  0  0  0  0  0  0  0
   16.1746   -3.0475    7.3453 C   0  0  0  0  0  0  0  0  0  0  0  0
   16.2632   -1.7383    7.5815 N   0  0  0  0  0  0  0  0  0  0  0  0
   13.7079   -3.1357    6.8300 N   0  0  0  0  0  0  0  0  0  0  0  0
   12.8885   -4.1557    6.4857 C   0  0  0  0  0  0  0  0  0  0  0  0
   13.6182   -5.3178    6.4348 N   0  0  0  0  0  0  0  0  0  0  0  0
  2  1  1  1  0  0  0
  2  3  1  0  0  0  0
  2  5  1  0  0  0  0
  3  4  1  0  0  0  0
  3 17  1  0  0  0  0
  5  6  1  0  0  0  0
  7  6  1  1  0  0  0
  7  8  1  0  0  0  0
  7  9  1  0  0  0  0
 10  9  1  1  0  0  0
 10 11  1  0  0  0  0
 10 12  1  0  0  0  0
 11 16  1  0  0  0  0
 12 13  1  6  0  0  0
 12 14  1  0  0  0  0
 14 15  1  6  0  0  0
 14 16  1  0  0  0  0
 16 27  1  1  0  0  0
 18 19  2  0  0  0  0
 18 23  1  0  0  0  0
 19 20  1  0  0  0  0
 20 21  2  0  0  0  0
 21 22  1  0  0  0  0
 21 27  1  0  0  0  0
 22 23  2  0  0  0  0
 22 25  1  0  0  0  0
 23 24  1  0  0  0  0
 25 26  2  0  0  0  0
 26 27  1  0  0  0  0
M  END
>  <CHROM.1>
127.52299012,173.90953323,55.84734805,169.94851707,-117.26355295,47.88560109
59.36619588,14.30084338,-6.52003951,7.96718368,0.06023047,1.30496984,0.95970298

>  <Name>
ligand

>  <RI>
0

>  <Rbt.Current_Directory>
/home/itssahil/PROJECTS/Mol_Feturizer/New_Systems/rnas/3GX5

>  <Rbt.Executable>
rbdock ($Id: //depot/dev/client3/rdock/2013.1/src/exe/rbdock.cxx#4 $)

>  <Rbt.Library>
libRbt.so (2013.1, Build901 2013/11/27)

>  <Rbt.Parameter_File>
/export/apps/rDock/src/rDock_2013.1_src/data/scripts/dock_solv.prm

>  <Rbt.Receptor>
prm/pocket_docking_2.prm

>  <SCORE>
-10.2593

>  <SCORE.INTER>
-11.3551

>  <SCORE.INTER.CONST>
1

>  <SCORE.INTER.POLAR>
0

>  <SCORE.INTER.ROT>
7

>  <SCORE.INTER.SOLV>
17.6023

>  <SCORE.INTER.VDW>
-21.7042

>  <SCORE.INTER.norm>
-0.42056

>  <SCORE.INTRA>
0.670669

>  <SCORE.INTRA.DIHEDRAL>
3.79257

>  <SCORE.INTRA.DIHEDRAL.0>
4.28829

>  <SCORE.INTRA.POLAR>
0

>  <SCORE.INTRA.POLAR.0>
0

>  <SCORE.INTRA.REPUL>
0

>  <SCORE.INTRA.REPUL.0>
0

>  <SCORE.INTRA.SOLV>
3.33537

>  <SCORE.INTRA.SOLV.lig_0>
-48.6018

>  <SCORE.INTRA.VDW>
-2.8933

>  <SCORE.INTRA.VDW.0>
-2.1506

>  <SCORE.INTRA.norm>
0.0248396

>  <SCORE.RESTR>
0.425146

>  <SCORE.RESTR.CAVITY>
0.425146

>  <SCORE.RESTR.norm>
0.0157461

>  <SCORE.SYSTEM>
0

>  <SCORE.SYSTEM.CONST>
0

>  <SCORE.SYSTEM.DIHEDRAL>
0

>  <SCORE.SYSTEM.SOLV>
0

>  <SCORE.SYSTEM.norm>
0

>  <SCORE.heavy>
27

>  <SCORE.norm>
-0.379975

>  <RMSD>
1.566

$$$$
ligand
 OpenBabel11021811483D
libRbt.so/2013.1/901 2013/11/27
 27 29  0  0  0  0  0  0  0  0999 V2000
   15.1783   -6.8527   13.9586 N   0  0  0  0  0  0  0  0  0  0  0  0
   15.6630   -6.5630   12.6077 C   0  0  2  0  0  0  0  0  0  0  0  0
   15.0985   -5.2980   11.9565 C   0  0  0  0  0  0  0  0  0  0  0  0
   15.8557   -4.5772   11.3078 O   0  0  0  0  0  0  0  0  0  0  0  0
   15.4756   -7.7627   11.6942 C   0  0  0  0  0  0  0  0  0  0  0  0
   14.0220   -8.2000   11.6377 C   0  0  0  0  0  0  0  0  0  0  0  0
   13.1376   -7.3052   10.3483 S   0  0  2  0  0  0  0  0  0  0  0  0
   11.5167   -7.1529   11.1285 C   0  0  0  0  0  0  0  0  0  0  0  0
   12.7902   -8.6509    9.1920 C   0  0  0  0  0  0  0  0  0  0  0  0
   13.1178   -8.2396    7.7684 C   0  0  1  0  0  0  0  0  0  0  0  0
   12.7000   -6.9157    7.5255 O   0  0  0  0  0  0  0  0  0  0  0  0
   14.6071   -8.2420    7.4848 C   0  0  1  0  0  0  0  0  0  0  0  0
   14.9545   -9.4946    6.9507 O   0  0  0  0  0  0  0  0  0  0  0  0
   14.7734   -7.1446    6.4532 C   0  0  1  0  0  0  0  0  0  0  0  0
   14.8591   -7.7645    5.1898 O   0  0  0  0  0  0  0  0  0  0  0  0
   13.5112   -6.2850    6.5502 C   0  0  2  0  0  0  0  0  0  0  0  0
   13.9152   -4.9625   12.0567 O   0  0  0  0  0  0  0  0  0  0  0  0
   17.3562   -2.9815    7.8620 N   0  0  0  0  0  0  0  0  0  0  0  0
   17.4731   -4.2397    7.3231 C   0  0  0  0  0  0  0  0  0  0  0  0
   16.3333   -4.9619    7.0455 N   0  0  0  0  0  0  0  0  0  0  0  0
   15.1055   -4.4525    7.2916 C   0  0  0  0  0  0  0  0  0  0  0  0
   14.9712   -3.1779    7.8226 C   0  0  0  0  0  0  0  0  0  0  0  0
   16.1149   -2.4391    8.1183 C   0  0  0  0  0  0  0  0  0  0  0  0
   16.0272   -1.2134    8.6357 N   0  0  0  0  0  0  0  0  0  0  0  0
   13.6449   -2.9195    7.9574 N   0  0  0  0  0  0  0  0  0  0  0  0
   12.9566   -3.9942    7.5082 C   0  0  0  0  0  0  0  0  0  0  0  0
   13.8468   -4.9504    7.0853 N   0  0  0  0  0  0  0  0  0  0  0  0
  2  1  1  1  0  0  0
  2  3  1  0  0  0  0
  2  5  1  0  0  0  0
  3  4  1  0  0  0  0
  3 17  1  0  0  0  0
  5  6  1  0  0  0  0
  7  6  1  1  0  0  0
  7  8  1  0  0  0  0
  7  9  1  0  0  0  0
 10  9  1  1  0  0  0
 10 11  1  0  0  0  0
 10 12  1  0  0  0  0
 11 16  1  0  0  0  0
 12 13  1  6  0  0  0
 12 14  1  0  0  0  0
 14 15  1  6  0  0  0
 14 16  1  0  0  0  0
 16 27  1  1  0  0  0
 18 19  2  0  0  0  0
 18 23  1  0  0  0  0
 19 20  1  0  0  0  0
 20 21  2  0  0  0  0
 21 22  1  0  0  0  0
 21 27  1  0  0  0  0
 22 23  2  0  0  0  0
 22 25  1  0  0  0  0
 23 24  1  0  0  0  0
 25 26  2  0  0  0  0
 26 27  1  0  0  0  0
M  END
>  <CHROM.1>
139.13615419,57.16259810,87.93645766,-145.31056730,-133.73417222,-41.21602925
122.64682954,14.53171901,-5.94100945,8.99786819,-2.33987691,-1.15154467,-1.57777245

>  <Name>
ligand

>  <RI>
0

>  <Rbt.Current_Directory>
/home/itssahil/PROJECTS/Mol_Feturizer/New_Systems/rnas/3GX5

>  <Rbt.Executable>
rbdock ($Id: //depot/dev/client3/rdock/2013.1/src/exe/rbdock.cxx#4 $)

>  <Rbt.Library>
libRbt.so (2013.1, Build901 2013/11/27)

>  <Rbt.Parameter_File>
/export/apps/rDock/src/rDock_2013.1_src/data/scripts/dock_solv.prm

>  <Rbt.Receptor>
prm/pocket_docking_2.prm

>  <SCORE>
-3.97346

>  <SCORE.INTER>
-8.16176

>  <SCORE.INTER.CONST>
1

>  <SCORE.INTER.POLAR>
0

>  <SCORE.INTER.ROT>
7

>  <SCORE.INTER.SOLV>
19.3203

>  <SCORE.INTER.VDW>
-20.1479

>  <SCORE.INTER.norm>
-0.302287

>  <SCORE.INTRA>
4.16481

>  <SCORE.INTRA.DIHEDRAL>
10.633

>  <SCORE.INTRA.DIHEDRAL.0>
4.28829

>  <SCORE.INTRA.POLAR>
0

>  <SCORE.INTRA.POLAR.0>
0

>  <SCORE.INTRA.REPUL>
0

>  <SCORE.INTRA.REPUL.0>
0

>  <SCORE.INTRA.SOLV>
0.137601

>  <SCORE.INTRA.SOLV.lig_0>
-48.6018

>  <SCORE.INTRA.VDW>
-1.22049

>  <SCORE.INTRA.VDW.0>
-2.1506

>  <SCORE.INTRA.norm>
0.154252

>  <SCORE.RESTR>
0.0234887

>  <SCORE.RESTR.CAVITY>
0.0234887

>  <SCORE.RESTR.norm>
0.000869953

>  <SCORE.SYSTEM>
0

>  <SCORE.SYSTEM.CONST>
0

>  <SCORE.SYSTEM.DIHEDRAL>
0

>  <SCORE.SYSTEM.SOLV>
0

>  <SCORE.SYSTEM.norm>
0

>  <SCORE.heavy>
27

>  <SCORE.norm>
-0.147165

>  <RMSD>
1.570

$$$$
ligand
 OpenBabel11021811483D
libRbt.so/2013.1/901 2013/11/27
 27 29  0  0  0  0  0  0  0  0999 V2000
   14.6379   -4.8515   12.3563 N   0  0  0  0  0  0  0  0  0  0  0  0
   14.5674   -5.7910   11.2355 C   0  0  2  0  0  0  0  0  0  0  0  0
   13.1945   -5.9342   10.5742 C   0  0  0  0  0  0  0  0  0  0  0  0
   13.0553   -5.5593    9.4107 O   0  0  0  0  0  0  0  0  0  0  0  0
   15.1134   -7.1523   11.6324 C   0  0  0  0  0  0  0  0  0  0  0  0
   15.5051   -7.9733   10.4159 C   0  0  0  0  0  0  0  0  0  0  0  0
   14.0607   -8.7733    9.6956 S   0  0  2  0  0  0  0  0  0  0  0  0
   14.1655  -10.3881   10.4960 C   0  0  0  0  0  0  0  0  0  0  0  0
   14.7031   -9.2047    8.0617 C   0  0  0  0  0  0  0  0  0  0  0  0
   13.8049   -8.6610    6.9659 C   0  0  1  0  0  0  0  0  0  0  0  0
   13.2799   -7.4053    7.3317 O   0  0  0  0  0  0  0  0  0  0  0  0
   14.5469   -8.4154    5.6668 C   0  0  1  0  0  0  0  0  0  0  0  0
   14.4295   -9.5638    4.8654 O   0  0  0  0  0  0  0  0  0  0  0  0
   13.8076   -7.2442    5.0522 C   0  0  1  0  0  0  0  0  0  0  0  0
   12.9311   -7.7645    4.0780 O   0  0  0  0  0  0  0  0  0  0  0  0
   13.0234   -6.5978    6.1962 C   0  0  2  0  0  0  0  0  0  0  0  0
   12.2145   -6.4053   11.1577 O   0  0  0  0  0  0  0  0  0  0  0  0
   17.3207   -3.8553    7.3921 N   0  0  0  0  0  0  0  0  0  0  0  0
   17.2234   -5.2020    7.1391 C   0  0  0  0  0  0  0  0  0  0  0  0
   15.9925   -5.7440    6.8411 N   0  0  0  0  0  0  0  0  0  0  0  0
   14.8828   -4.9736    6.7910 C   0  0  0  0  0  0  0  0  0  0  0  0
   14.9675   -3.6097    7.0305 C   0  0  0  0  0  0  0  0  0  0  0  0
   16.2038   -3.0484    7.3433 C   0  0  0  0  0  0  0  0  0  0  0  0
   16.3248   -1.7431    7.5864 N   0  0  0  0  0  0  0  0  0  0  0  0
   13.7205   -3.0861    6.9077 N   0  0  0  0  0  0  0  0  0  0  0  0
   12.8711   -4.0878    6.5825 C   0  0  0  0  0  0  0  0  0  0  0  0
   13.5767   -5.2629    6.4992 N   0  0  0  0  0  0  0  0  0  0  0  0
  2  1  1  1  0  0  0
  2  3  1  0  0  0  0
  2  5  1  0  0  0  0
  3  4  1  0  0  0  0
  3 17  1  0  0  0  0
  5  6  1  0  0  0  0
  7  6  1  1  0  0  0
  7  8  1  0  0  0  0
  7  9  1  0  0  0  0
 10  9  1  1  0  0  0
 10 11  1  0  0  0  0
 10 12  1  0  0  0  0
 11 16  1  0  0  0  0
 12 13  1  6  0  0  0
 12 14  1  0  0  0  0
 14 15  1  6  0  0  0
 14 16  1  0  0  0  0
 16 27  1  1  0  0  0
 18 19  2  0  0  0  0
 18 23  1  0  0  0  0
 19 20  1  0  0  0  0
 20 21  2  0  0  0  0
 21 22  1  0  0  0  0
 21 27  1  0  0  0  0
 22 23  2  0  0  0  0
 22 25  1  0  0  0  0
 23 24  1  0  0  0  0
 25 26  2  0  0  0  0
 26 27  1  0  0  0  0
M  END
>  <CHROM.1>
114.29485517,-159.97407418,-81.76364179,-95.11130152,-125.93840348,36.23088211
59.63581300,14.39087350,-6.43006703,8.06959334,-2.42342634,-1.31292360,-1.53459100

>  <Name>
ligand

>  <RI>
0

>  <Rbt.Current_Directory>
/home/itssahil/PROJECTS/Mol_Feturizer/New_Systems/rnas/3GX5

>  <Rbt.Executable>
rbdock ($Id: //depot/dev/client3/rdock/2013.1/src/exe/rbdock.cxx#4 $)

>  <Rbt.Library>
libRbt.so (2013.1, Build901 2013/11/27)

>  <Rbt.Parameter_File>
/export/apps/rDock/src/rDock_2013.1_src/data/scripts/dock_solv.prm

>  <Rbt.Receptor>
prm/pocket_docking_2.prm

>  <SCORE>
-9.77416

>  <SCORE.INTER>
-11.0143

>  <SCORE.INTER.CONST>
1

>  <SCORE.INTER.POLAR>
0

>  <SCORE.INTER.ROT>
7

>  <SCORE.INTER.SOLV>
19.1512

>  <SCORE.INTER.VDW>
-21.9933

>  <SCORE.INTER.norm>
-0.407936

>  <SCORE.INTRA>
1.24012

>  <SCORE.INTRA.DIHEDRAL>
9.7413

>  <SCORE.INTRA.DIHEDRAL.0>
4.28829

>  <SCORE.INTRA.POLAR>
0

>  <SCORE.INTRA.POLAR.0>
0

>  <SCORE.INTRA.REPUL>
0

>  <SCORE.INTRA.REPUL.0>
0

>  <SCORE.INTRA.SOLV>
-0.972921

>  <SCORE.INTRA.SOLV.lig_0>
-48.6018

>  <SCORE.INTRA.VDW>
-3.14407

>  <SCORE.INTRA.VDW.0>
-2.1506

>  <SCORE.INTRA.norm>
0.0459302

>  <SCORE.RESTR>
0

>  <SCORE.RESTR.CAVITY>
0

>  <SCORE.RESTR.norm>
0

>  <SCORE.SYSTEM>
0

>  <SCORE.SYSTEM.CONST>
0

>  <SCORE.SYSTEM.DIHEDRAL>
0

>  <SCORE.SYSTEM.SOLV>
0

>  <SCORE.SYSTEM.norm>
0

>  <SCORE.heavy>
27

>  <SCORE.norm>
-0.362006

>  <RMSD>
1.589

$$$$
ligand
 OpenBabel11021811483D
libRbt.so/2013.1/901 2013/11/27
 27 29  0  0  0  0  0  0  0  0999 V2000
   15.5263   -7.4209   11.9988 N   0  0  0  0  0  0  0  0  0  0  0  0
   14.5096   -6.3891   12.2124 C   0  0  2  0  0  0  0  0  0  0  0  0
   15.0323   -5.0281   12.6786 C   0  0  0  0  0  0  0  0  0  0  0  0
   15.5325   -4.9377   13.7990 O   0  0  0  0  0  0  0  0  0  0  0  0
   13.4161   -6.8880   13.1421 C   0  0  0  0  0  0  0  0  0  0  0  0
   12.6947   -8.0916   12.5606 C   0  0  0  0  0  0  0  0  0  0  0  0
   11.8633   -7.6541   11.0235 S   0  0  2  0  0  0  0  0  0  0  0  0
   10.8033   -9.1009   10.8181 C   0  0  0  0  0  0  0  0  0  0  0  0
   13.1555   -8.0547    9.8242 C   0  0  0  0  0  0  0  0  0  0  0  0
   12.7575   -7.6075    8.4297 C   0  0  1  0  0  0  0  0  0  0  0  0
   12.5354   -6.2161    8.3990 O   0  0  0  0  0  0  0  0  0  0  0  0
   13.8430   -7.8568    7.4012 C   0  0  1  0  0  0  0  0  0  0  0  0
   13.6120   -9.1097    6.8078 O   0  0  0  0  0  0  0  0  0  0  0  0
   13.6478   -6.7357    6.4006 C   0  0  1  0  0  0  0  0  0  0  0  0
   12.9370   -7.2683    5.3056 O   0  0  0  0  0  0  0  0  0  0  0  0
   12.8157   -5.6727    7.1210 C   0  0  2  0  0  0  0  0  0  0  0  0
   14.9701   -4.0112   11.9824 O   0  0  0  0  0  0  0  0  0  0  0  0
   17.6484   -3.6637    7.2847 N   0  0  0  0  0  0  0  0  0  0  0  0
   17.2807   -4.9512    6.9780 C   0  0  0  0  0  0  0  0  0  0  0  0
   15.9458   -5.2914    6.9902 N   0  0  0  0  0  0  0  0  0  0  0  0
   14.9948   -4.3803    7.2954 C   0  0  0  0  0  0  0  0  0  0  0  0
   15.3497   -3.0728    7.5936 C   0  0  0  0  0  0  0  0  0  0  0  0
   16.6966   -2.7159    7.5956 C   0  0  0  0  0  0  0  0  0  0  0  0
   17.0779   -1.4712    7.8834 N   0  0  0  0  0  0  0  0  0  0  0  0
   14.2107   -2.3791    7.8498 N   0  0  0  0  0  0  0  0  0  0  0  0
   13.1610   -3.2197    7.7014 C   0  0  0  0  0  0  0  0  0  0  0  0
   13.6292   -4.4621    7.3509 N   0  0  0  0  0  0  0  0  0  0  0  0
  2  1  1  1  0  0  0
  2  3  1  0  0  0  0
  2  5  1  0  0  0  0
  3  4  1  0  0  0  0
  3 17  1  0  0  0  0
  5  6  1  0  0  0  0
  7  6  1  1  0  0  0
  7  8  1  0  0  0  0
  7  9  1  0  0  0  0
 10  9  1  1  0  0  0
 10 11  1  0  0  0  0
 10 12  1  0  0  0  0
 11 16  1  0  0  0  0
 12 13  1  6  0  0  0
 12 14  1  0  0  0  0
 14 15  1  6  0  0  0
 14 16  1  0  0  0  0
 16 27  1  1  0  0  0
 18 19  2  0  0  0  0
 18 23  1  0  0  0  0
 19 20  1  0  0  0  0
 20 21  2  0  0  0  0
 21 22  1  0  0  0  0
 21 27  1  0  0  0  0
 22 23  2  0  0  0  0
 22 25  1  0  0  0  0
 23 24  1  0  0  0  0
 25 26  2  0  0  0  0
 26 27  1  0  0  0  0
M  END
>  <CHROM.1>
-67.14898698,-61.38333065,-62.65546331,-166.59010396,-172.96245012,59.58507339
96.62661317,14.12749387,-5.84700432,9.18657501,-2.35881872,-0.91293716,-1.51014173

>  <Name>
ligand

>  <RI>
0

>  <Rbt.Current_Directory>
/home/itssahil/PROJECTS/Mol_Feturizer/New_Systems/rnas/3GX5

>  <Rbt.Executable>
rbdock ($Id: //depot/dev/client3/rdock/2013.1/src/exe/rbdock.cxx#4 $)

>  <Rbt.Library>
libRbt.so (2013.1, Build901 2013/11/27)

>  <Rbt.Parameter_File>
/export/apps/rDock/src/rDock_2013.1_src/data/scripts/dock_solv.prm

>  <Rbt.Receptor>
prm/pocket_docking_7.prm

>  <SCORE>
-14.0445

>  <SCORE.INTER>
-15.1361

>  <SCORE.INTER.CONST>
1

>  <SCORE.INTER.POLAR>
0

>  <SCORE.INTER.ROT>
7

>  <SCORE.INTER.SOLV>
17.1257

>  <SCORE.INTER.VDW>
-24.0659

>  <SCORE.INTER.norm>
-0.560595

>  <SCORE.INTRA>
1.09151

>  <SCORE.INTRA.DIHEDRAL>
1.16996

>  <SCORE.INTRA.DIHEDRAL.0>
4.28829

>  <SCORE.INTRA.POLAR>
0

>  <SCORE.INTRA.POLAR.0>
0

>  <SCORE.INTRA.REPUL>
0

>  <SCORE.INTRA.REPUL.0>
0

>  <SCORE.INTRA.SOLV>
1.15926

>  <SCORE.INTRA.SOLV.lig_0>
-48.6018

>  <SCORE.INTRA.VDW>
-0.0731021

>  <SCORE.INTRA.VDW.0>
-2.1506

>  <SCORE.INTRA.norm>
0.0404262

>  <SCORE.RESTR>
0

>  <SCORE.RESTR.CAVITY>
0

>  <SCORE.RESTR.norm>
0

>  <SCORE.SYSTEM>
0

>  <SCORE.SYSTEM.CONST>
0

>  <SCORE.SYSTEM.DIHEDRAL>
0

>  <SCORE.SYSTEM.SOLV>
0

>  <SCORE.SYSTEM.norm>
0

>  <SCORE.heavy>
27

>  <SCORE.norm>
-0.520169

>  <RMSD>
1.610

$$$$
ligand
 OpenBabel11021811483D
libRbt.so/2013.1/901 2013/11/27
 27 29  0  0  0  0  0  0  0  0999 V2000
   12.6395   -5.6075   11.9332 N   0  0  0  0  0  0  0  0  0  0  0  0
   14.0141   -6.1044   11.8471 C   0  0  2  0  0  0  0  0  0  0  0  0
   15.1027   -5.1284   12.2997 C   0  0  0  0  0  0  0  0  0  0  0  0
   15.6318   -4.4004   11.4608 O   0  0  0  0  0  0  0  0  0  0  0  0
   14.3152   -6.6314   10.4541 C   0  0  0  0  0  0  0  0  0  0  0  0
   14.9481   -8.0113   10.5036 C   0  0  0  0  0  0  0  0  0  0  0  0
   13.8803   -9.2301    9.7164 S   0  0  2  0  0  0  0  0  0  0  0  0
   14.3411  -10.7022   10.6544 C   0  0  0  0  0  0  0  0  0  0  0  0
   14.8031   -9.5422    8.1934 C   0  0  0  0  0  0  0  0  0  0  0  0
   14.2021   -8.7760    7.0295 C   0  0  1  0  0  0  0  0  0  0  0  0
   14.1057   -7.4036    7.3354 O   0  0  0  0  0  0  0  0  0  0  0  0
   15.0566   -8.8426    5.7791 C   0  0  1  0  0  0  0  0  0  0  0  0
   14.6092   -9.9185    4.9933 O   0  0  0  0  0  0  0  0  0  0  0  0
   14.7868   -7.5183    5.0940 C   0  0  1  0  0  0  0  0  0  0  0  0
   13.8444   -7.7573    4.0729 O   0  0  0  0  0  0  0  0  0  0  0  0
   14.1988   -6.6031    6.1703 C   0  0  2  0  0  0  0  0  0  0  0  0
   15.4805   -5.0408   13.4712 O   0  0  0  0  0  0  0  0  0  0  0  0
   14.7991   -1.8496    8.2826 N   0  0  0  0  0  0  0  0  0  0  0  0
   13.6497   -2.5979    8.2034 C   0  0  0  0  0  0  0  0  0  0  0  0
   13.6929   -3.8370    7.6029 N   0  0  0  0  0  0  0  0  0  0  0  0
   14.8454   -4.3279    7.0947 C   0  0  0  0  0  0  0  0  0  0  0  0
   16.0170   -3.5899    7.1796 C   0  0  0  0  0  0  0  0  0  0  0  0
   15.9873   -2.3305    7.7749 C   0  0  0  0  0  0  0  0  0  0  0  0
   17.0908   -1.5883    7.8696 N   0  0  0  0  0  0  0  0  0  0  0  0
   17.0104   -4.3161    6.6051 N   0  0  0  0  0  0  0  0  0  0  0  0
   16.4864   -5.4898    6.1826 C   0  0  0  0  0  0  0  0  0  0  0  0
   15.1471   -5.5161    6.4847 N   0  0  0  0  0  0  0  0  0  0  0  0
  2  1  1  6  0  0  0
  2  3  1  0  0  0  0
  2  5  1  0  0  0  0
  3  4  1  0  0  0  0
  3 17  1  0  0  0  0
  5  6  1  0  0  0  0
  7  6  1  1  0  0  0
  7  8  1  0  0  0  0
  7  9  1  0  0  0  0
 10  9  1  1  0  0  0
 10 11  1  0  0  0  0
 10 12  1  0  0  0  0
 11 16  1  0  0  0  0
 12 13  1  6  0  0  0
 12 14  1  0  0  0  0
 14 15  1  6  0  0  0
 14 16  1  0  0  0  0
 16 27  1  1  0  0  0
 18 19  2  0  0  0  0
 18 23  1  0  0  0  0
 19 20  1  0  0  0  0
 20 21  2  0  0  0  0
 21 22  1  0  0  0  0
 21 27  1  0  0  0  0
 22 23  2  0  0  0  0
 22 25  1  0  0  0  0
 23 24  1  0  0  0  0
 25 26  2  0  0  0  0
 26 27  1  0  0  0  0
M  END
>  <CHROM.1>
-92.46767497,-130.68074030,116.47134812,-150.61806520,-100.23486375,54.18896168
-85.68287179,14.78112308,-6.25311716,8.39739987,0.85548282,1.35579756,1.18535675

>  <Name>
ligand

>  <RI>
0

>  <Rbt.Current_Directory>
/home/itssahil/PROJECTS/Mol_Feturizer/New_Systems/rnas/3GX5

>  <Rbt.Executable>
rbdock ($Id: //depot/dev/client3/rdock/2013.1/src/exe/rbdock.cxx#4 $)

>  <Rbt.Library>
libRbt.so (2013.1, Build901 2013/11/27)

>  <Rbt.Parameter_File>
/export/apps/rDock/src/rDock_2013.1_src/data/scripts/dock_solv.prm

>  <Rbt.Receptor>
prm/pocket_docking_2.prm

>  <SCORE>
-2.63951

>  <SCORE.INTER>
-8.96475

>  <SCORE.INTER.CONST>
1

>  <SCORE.INTER.POLAR>
0

>  <SCORE.INTER.ROT>
7

>  <SCORE.INTER.SOLV>
21.3826

>  <SCORE.INTER.VDW>
-21.3707

>  <SCORE.INTER.norm>
-0.332028

>  <SCORE.INTRA>
6.31647

>  <SCORE.INTRA.DIHEDRAL>
15.0508

>  <SCORE.INTRA.DIHEDRAL.0>
4.28829

>  <SCORE.INTRA.POLAR>
0

>  <SCORE.INTRA.POLAR.0>
0

>  <SCORE.INTRA.REPUL>
0

>  <SCORE.INTRA.REPUL.0>
0

>  <SCORE.INTRA.SOLV>
-0.887344

>  <SCORE.INTRA.SOLV.lig_0>
-48.6018

>  <SCORE.INTRA.VDW>
-0.765277

>  <SCORE.INTRA.VDW.0>
-2.1506

>  <SCORE.INTRA.norm>
0.233943

>  <SCORE.RESTR>
0.00875818

>  <SCORE.RESTR.CAVITY>
0.00875818

>  <SCORE.RESTR.norm>
0.000324377

>  <SCORE.SYSTEM>
0

>  <SCORE.SYSTEM.CONST>
0

>  <SCORE.SYSTEM.DIHEDRAL>
0

>  <SCORE.SYSTEM.SOLV>
0

>  <SCORE.SYSTEM.norm>
0

>  <SCORE.heavy>
27

>  <SCORE.norm>
-0.0977598

>  <RMSD>
1.782

$$$$
ligand
 OpenBabel11021811483D
libRbt.so/2013.1/901 2013/11/27
 27 29  0  0  0  0  0  0  0  0999 V2000
   13.9614   -4.2167   10.3958 N   0  0  0  0  0  0  0  0  0  0  0  0
   13.7174   -5.0883   11.5468 C   0  0  2  0  0  0  0  0  0  0  0  0
   14.9562   -5.4862   12.3530 C   0  0  0  0  0  0  0  0  0  0  0  0
   14.8655   -5.5669   13.5773 O   0  0  0  0  0  0  0  0  0  0  0  0
   12.9284   -6.3208   11.1375 C   0  0  0  0  0  0  0  0  0  0  0  0
   13.6342   -7.0964   10.0386 C   0  0  0  0  0  0  0  0  0  0  0  0
   12.5532   -8.3690    9.3626 S   0  0  2  0  0  0  0  0  0  0  0  0
   12.6252   -9.5824   10.6974 C   0  0  0  0  0  0  0  0  0  0  0  0
   13.6706   -9.1563    8.1793 C   0  0  0  0  0  0  0  0  0  0  0  0
   13.6022   -8.4671    6.8289 C   0  0  1  0  0  0  0  0  0  0  0  0
   13.7084   -7.0698    6.9787 O   0  0  0  0  0  0  0  0  0  0  0  0
   14.7471   -8.8543    5.9137 C   0  0  1  0  0  0  0  0  0  0  0  0
   14.3318   -9.9352    5.1173 O   0  0  0  0  0  0  0  0  0  0  0  0
   14.9662   -7.6117    5.0747 C   0  0  1  0  0  0  0  0  0  0  0  0
   14.3292   -7.8237    3.8348 O   0  0  0  0  0  0  0  0  0  0  0  0
   14.2965   -6.4677    5.8391 C   0  0  2  0  0  0  0  0  0  0  0  0
   16.0483   -5.7256   11.8307 O   0  0  0  0  0  0  0  0  0  0  0  0
   15.1762   -1.9010    8.2452 N   0  0  0  0  0  0  0  0  0  0  0  0
   13.9655   -2.4843    7.9603 C   0  0  0  0  0  0  0  0  0  0  0  0
   13.9394   -3.7003    7.3135 N   0  0  0  0  0  0  0  0  0  0  0  0
   15.0828   -4.3281    6.9584 C   0  0  0  0  0  0  0  0  0  0  0  0
   16.3131   -3.7582    7.2518 C   0  0  0  0  0  0  0  0  0  0  0  0
   16.3558   -2.5237    7.8964 C   0  0  0  0  0  0  0  0  0  0  0  0
   17.5184   -1.9406    8.1895 N   0  0  0  0  0  0  0  0  0  0  0  0
   17.2803   -4.5955    6.7962 N   0  0  0  0  0  0  0  0  0  0  0  0
   16.6798   -5.6750    6.2442 C   0  0  0  0  0  0  0  0  0  0  0  0
   15.3181   -5.5284    6.3430 N   0  0  0  0  0  0  0  0  0  0  0  0
  2  1  1  6  0  0  0
  2  3  1  0  0  0  0
  2  5  1  0  0  0  0
  3  4  1  0  0  0  0
  3 17  1  0  0  0  0
  5  6  1  0  0  0  0
  7  6  1  1  0  0  0
  7  8  1  0  0  0  0
  7  9  1  0  0  0  0
 10  9  1  1  0  0  0
 10 11  1  0  0  0  0
 10 12  1  0  0  0  0
 11 16  1  0  0  0  0
 12 13  1  6  0  0  0
 12 14  1  0  0  0  0
 14 15  1  6  0  0  0
 14 16  1  0  0  0  0
 16 27  1  1  0  0  0
 18 19  2  0  0  0  0
 18 23  1  0  0  0  0
 19 20  1  0  0  0  0
 20 21  2  0  0  0  0
 21 22  1  0  0  0  0
 21 27  1  0  0  0  0
 22 23  2  0  0  0  0
 22 25  1  0  0  0  0
 23 24  1  0  0  0  0
 25 26  2  0  0  0  0
 26 27  1  0  0  0  0
M  END
>  <CHROM.1>
142.27830746,56.95181559,-169.62053052,-75.25810867,-88.44913208,48.40979973
-72.84406302,14.56129644,-6.09626431,8.29783126,1.18338539,1.11658222,1.14395930

>  <Name>
ligand

>  <RI>
0

>  <Rbt.Current_Directory>
/home/itssahil/PROJECTS/Mol_Feturizer/New_Systems/rnas/3GX5

>  <Rbt.Executable>
rbdock ($Id: //depot/dev/client3/rdock/2013.1/src/exe/rbdock.cxx#4 $)

>  <Rbt.Library>
libRbt.so (2013.1, Build901 2013/11/27)

>  <Rbt.Parameter_File>
/export/apps/rDock/src/rDock_2013.1_src/data/scripts/dock_solv.prm

>  <Rbt.Receptor>
prm/pocket_docking_3.prm

>  <SCORE>
-13.7011

>  <SCORE.INTER>
-14.4793

>  <SCORE.INTER.CONST>
1

>  <SCORE.INTER.POLAR>
0

>  <SCORE.INTER.ROT>
7

>  <SCORE.INTER.SOLV>
20.8933

>  <SCORE.INTER.VDW>
-24.884

>  <SCORE.INTER.norm>
-0.536272

>  <SCORE.INTRA>
0.778223

>  <SCORE.INTRA.DIHEDRAL>
1.25126

>  <SCORE.INTRA.DIHEDRAL.0>
4.28829

>  <SCORE.INTRA.POLAR>
0

>  <SCORE.INTRA.POLAR.0>
0

>  <SCORE.INTRA.REPUL>
0

>  <SCORE.INTRA.REPUL.0>
0

>  <SCORE.INTRA.SOLV>
1.28087

>  <SCORE.INTRA.SOLV.lig_0>
-48.6018

>  <SCORE.INTRA.VDW>
-0.487838

>  <SCORE.INTRA.VDW.0>
-2.1506

>  <SCORE.INTRA.norm>
0.0288231

>  <SCORE.RESTR>
0

>  <SCORE.RESTR.CAVITY>
0

>  <SCORE.RESTR.norm>
0

>  <SCORE.SYSTEM>
0

>  <SCORE.SYSTEM.CONST>
0

>  <SCORE.SYSTEM.DIHEDRAL>
0

>  <SCORE.SYSTEM.SOLV>
0

>  <SCORE.SYSTEM.norm>
0

>  <SCORE.heavy>
27

>  <SCORE.norm>
-0.507449

>  <RMSD>
1.806

$$$$
ligand
 OpenBabel11021811483D
libRbt.so/2013.1/901 2013/11/27
 27 29  0  0  0  0  0  0  0  0999 V2000
   14.3839   -5.9741   12.3413 N   0  0  0  0  0  0  0  0  0  0  0  0
   13.5371   -6.0336   11.1483 C   0  0  2  0  0  0  0  0  0  0  0  0
   12.3996   -7.0569   11.1916 C   0  0  0  0  0  0  0  0  0  0  0  0
   12.4612   -7.9772   12.0058 O   0  0  0  0  0  0  0  0  0  0  0  0
   14.3759   -6.2207    9.8953 C   0  0  0  0  0  0  0  0  0  0  0  0
   15.1862   -7.5043    9.9520 C   0  0  0  0  0  0  0  0  0  0  0  0
   14.1729   -8.9180    9.4828 S   0  0  2  0  0  0  0  0  0  0  0  0
   15.0067  -10.2226   10.4112 C   0  0  0  0  0  0  0  0  0  0  0  0
   14.8263   -9.2584    7.8318 C   0  0  0  0  0  0  0  0  0  0  0  0
   13.9084   -8.6992    6.7604 C   0  0  1  0  0  0  0  0  0  0  0  0
   13.3568   -7.4692    7.1716 O   0  0  0  0  0  0  0  0  0  0  0  0
   14.6357   -8.3927    5.4660 C   0  0  1  0  0  0  0  0  0  0  0  0
   14.5397   -9.5159    4.6269 O   0  0  0  0  0  0  0  0  0  0  0  0
   13.8654   -7.2190    4.8958 C   0  0  1  0  0  0  0  0  0  0  0  0
   12.9947   -7.7265    3.9097 O   0  0  0  0  0  0  0  0  0  0  0  0
   13.0742   -6.6302    6.0657 C   0  0  2  0  0  0  0  0  0  0  0  0
   11.4215   -7.0051   10.4410 O   0  0  0  0  0  0  0  0  0  0  0  0
   17.2992   -3.8452    7.4116 N   0  0  0  0  0  0  0  0  0  0  0  0
   17.2300   -5.1871    7.1258 C   0  0  0  0  0  0  0  0  0  0  0  0
   16.0147   -5.7424    6.7904 N   0  0  0  0  0  0  0  0  0  0  0  0
   14.8933   -4.9895    6.7354 C   0  0  0  0  0  0  0  0  0  0  0  0
   14.9499   -3.6304    7.0077 C   0  0  0  0  0  0  0  0  0  0  0  0
   16.1699   -3.0561    7.3586 C   0  0  0  0  0  0  0  0  0  0  0  0
   16.2637   -1.7549    7.6339 N   0  0  0  0  0  0  0  0  0  0  0  0
   13.6969   -3.1248    6.8716 N   0  0  0  0  0  0  0  0  0  0  0  0
   12.8714   -4.1326    6.5062 C   0  0  0  0  0  0  0  0  0  0  0  0
   13.5984   -5.2936    6.4104 N   0  0  0  0  0  0  0  0  0  0  0  0
  2  1  1  1  0  0  0
  2  3  1  0  0  0  0
  2  5  1  0  0  0  0
  3  4  1  0  0  0  0
  3 17  1  0  0  0  0
  5  6  1  0  0  0  0
  7  6  1  1  0  0  0
  7  8  1  0  0  0  0
  7  9  1  0  0  0  0
 10  9  1  1  0  0  0
 10 11  1  0  0  0  0
 10 12  1  0  0  0  0
 11 16  1  0  0  0  0
 12 13  1  6  0  0  0
 12 14  1  0  0  0  0
 14 15  1  6  0  0  0
 14 16  1  0  0  0  0
 16 27  1  1  0  0  0
 18 19  2  0  0  0  0
 18 23  1  0  0  0  0
 19 20  1  0  0  0  0
 20 21  2  0  0  0  0
 21 22  1  0  0  0  0
 21 27  1  0  0  0  0
 22 23  2  0  0  0  0
 22 25  1  0  0  0  0
 23 24  1  0  0  0  0
 25 26  2  0  0  0  0
 26 27  1  0  0  0  0
M  END
>  <CHROM.1>
-18.97003633,59.85752046,81.46786280,-152.19726656,-100.65577672,37.03514885
57.95622632,14.29119882,-6.59841449,7.99909195,-2.63170678,-1.26577525,-1.93715129

>  <Name>
ligand

>  <RI>
0

>  <Rbt.Current_Directory>
/home/itssahil/PROJECTS/Mol_Feturizer/New_Systems/rnas/3GX5

>  <Rbt.Executable>
rbdock ($Id: //depot/dev/client3/rdock/2013.1/src/exe/rbdock.cxx#4 $)

>  <Rbt.Library>
libRbt.so (2013.1, Build901 2013/11/27)

>  <Rbt.Parameter_File>
/export/apps/rDock/src/rDock_2013.1_src/data/scripts/dock_solv.prm

>  <Rbt.Receptor>
prm/pocket_docking_2.prm

>  <SCORE>
-11.8676

>  <SCORE.INTER>
-12.7148

>  <SCORE.INTER.CONST>
1

>  <SCORE.INTER.POLAR>
0

>  <SCORE.INTER.ROT>
7

>  <SCORE.INTER.SOLV>
16.7541

>  <SCORE.INTER.VDW>
-22.3279

>  <SCORE.INTER.norm>
-0.470918

>  <SCORE.INTRA>
0.847162

>  <SCORE.INTRA.DIHEDRAL>
7.61013

>  <SCORE.INTRA.DIHEDRAL.0>
4.28829

>  <SCORE.INTRA.POLAR>
0

>  <SCORE.INTRA.POLAR.0>
0

>  <SCORE.INTRA.REPUL>
0

>  <SCORE.INTRA.REPUL.0>
0

>  <SCORE.INTRA.SOLV>
0.221701

>  <SCORE.INTRA.SOLV.lig_0>
-48.6018

>  <SCORE.INTRA.VDW>
-3.06875

>  <SCORE.INTRA.VDW.0>
-2.1506

>  <SCORE.INTRA.norm>
0.0313764

>  <SCORE.RESTR>
0

>  <SCORE.RESTR.CAVITY>
0

>  <SCORE.RESTR.norm>
0

>  <SCORE.SYSTEM>
0

>  <SCORE.SYSTEM.CONST>
0

>  <SCORE.SYSTEM.DIHEDRAL>
0

>  <SCORE.SYSTEM.SOLV>
0

>  <SCORE.SYSTEM.norm>
0

>  <SCORE.heavy>
27

>  <SCORE.norm>
-0.439542

>  <RMSD>
1.842

$$$$
ligand
 OpenBabel11021811483D
libRbt.so/2013.1/901 2013/11/27
 27 29  0  0  0  0  0  0  0  0999 V2000
   10.1933   -6.4194   11.7607 N   0  0  0  0  0  0  0  0  0  0  0  0
   10.8869   -7.5625   12.3575 C   0  0  2  0  0  0  0  0  0  0  0  0
   12.1951   -7.2403   13.0838 C   0  0  0  0  0  0  0  0  0  0  0  0
   12.9837   -6.4528   12.5626 O   0  0  0  0  0  0  0  0  0  0  0  0
   11.1027   -8.6630   11.3321 C   0  0  0  0  0  0  0  0  0  0  0  0
   12.0636   -8.2275   10.2393 C   0  0  0  0  0  0  0  0  0  0  0  0
   12.6743   -9.6535    9.3233 S   0  0  2  0  0  0  0  0  0  0  0  0
   13.6881  -10.4331   10.5974 C   0  0  0  0  0  0  0  0  0  0  0  0
   13.9752   -8.8783    8.3356 C   0  0  0  0  0  0  0  0  0  0  0  0
   13.4044   -8.2777    7.0642 C   0  0  1  0  0  0  0  0  0  0  0  0
   12.9003   -6.9846    7.3087 O   0  0  0  0  0  0  0  0  0  0  0  0
   14.4491   -8.0959    5.9806 C   0  0  1  0  0  0  0  0  0  0  0  0
   14.4419   -9.2381    5.1619 O   0  0  0  0  0  0  0  0  0  0  0  0
   13.9638   -6.8779    5.2210 C   0  0  1  0  0  0  0  0  0  0  0  0
   13.3078   -7.3393    4.0613 O   0  0  0  0  0  0  0  0  0  0  0  0
   12.9799   -6.1682    6.1536 C   0  0  2  0  0  0  0  0  0  0  0  0
   12.5001   -7.7399   14.1702 O   0  0  0  0  0  0  0  0  0  0  0  0
   17.3373   -3.4923    7.2808 N   0  0  0  0  0  0  0  0  0  0  0  0
   17.2349   -4.7890    6.8392 C   0  0  0  0  0  0  0  0  0  0  0  0
   15.9877   -5.3214    6.5969 N   0  0  0  0  0  0  0  0  0  0  0  0
   14.8666   -4.5893    6.7834 C   0  0  0  0  0  0  0  0  0  0  0  0
   14.9547   -3.2740    7.2156 C   0  0  0  0  0  0  0  0  0  0  0  0
   16.2086   -2.7246    7.4748 C   0  0  0  0  0  0  0  0  0  0  0  0
   16.3342   -1.4664    7.8978 N   0  0  0  0  0  0  0  0  0  0  0  0
   13.6933   -2.7796    7.3081 N   0  0  0  0  0  0  0  0  0  0  0  0
   12.8298   -3.7496    6.9286 C   0  0  0  0  0  0  0  0  0  0  0  0
   13.5411   -4.8753    6.5934 N   0  0  0  0  0  0  0  0  0  0  0  0
  2  1  1  6  0  0  0
  2  3  1  0  0  0  0
  2  5  1  0  0  0  0
  3  4  1  0  0  0  0
  3 17  1  0  0  0  0
  5  6  1  0  0  0  0
  7  6  1  1  0  0  0
  7  8  1  0  0  0  0
  7  9  1  0  0  0  0
 10  9  1  1  0  0  0
 10 11  1  0  0  0  0
 10 12  1  0  0  0  0
 11 16  1  0  0  0  0
 12 13  1  6  0  0  0
 12 14  1  0  0  0  0
 14 15  1  6  0  0  0
 14 16  1  0  0  0  0
 16 27  1  1  0  0  0
 18 19  2  0  0  0  0
 18 23  1  0  0  0  0
 19 20  1  0  0  0  0
 20 21  2  0  0  0  0
 21 22  1  0  0  0  0
 21 27  1  0  0  0  0
 22 23  2  0  0  0  0
 22 25  1  0  0  0  0
 23 24  1  0  0  0  0
 25 26  2  0  0  0  0
 26 27  1  0  0  0  0
M  END
>  <CHROM.1>
-42.97450444,66.31302392,163.60210000,-68.50626312,-85.01516204,84.45768862
82.11420513,13.64489228,-6.58638165,8.43711120,-2.94516032,-1.10647827,-2.29047808

>  <Name>
ligand

>  <RI>
0

>  <Rbt.Current_Directory>
/home/itssahil/PROJECTS/Mol_Feturizer/New_Systems/rnas/3GX5

>  <Rbt.Executable>
rbdock ($Id: //depot/dev/client3/rdock/2013.1/src/exe/rbdock.cxx#4 $)

>  <Rbt.Library>
libRbt.so (2013.1, Build901 2013/11/27)

>  <Rbt.Parameter_File>
/export/apps/rDock/src/rDock_2013.1_src/data/scripts/dock_solv.prm

>  <Rbt.Receptor>
prm/pocket_docking_8.prm

>  <SCORE>
-14.8972

>  <SCORE.INTER>
-15.8574

>  <SCORE.INTER.CONST>
1

>  <SCORE.INTER.POLAR>
0

>  <SCORE.INTER.ROT>
7

>  <SCORE.INTER.SOLV>
24.7969

>  <SCORE.INTER.VDW>
-27.1039

>  <SCORE.INTER.norm>
-0.58731

>  <SCORE.INTRA>
0.96019

>  <SCORE.INTRA.DIHEDRAL>
2.76908

>  <SCORE.INTRA.DIHEDRAL.0>
4.28829

>  <SCORE.INTRA.POLAR>
0

>  <SCORE.INTRA.POLAR.0>
0

>  <SCORE.INTRA.REPUL>
0

>  <SCORE.INTRA.REPUL.0>
0

>  <SCORE.INTRA.SOLV>
-0.624347

>  <SCORE.INTRA.SOLV.lig_0>
-48.6018

>  <SCORE.INTRA.VDW>
-0.112176

>  <SCORE.INTRA.VDW.0>
-2.1506

>  <SCORE.INTRA.norm>
0.0355626

>  <SCORE.RESTR>
0

>  <SCORE.RESTR.CAVITY>
0

>  <SCORE.RESTR.norm>
0

>  <SCORE.SYSTEM>
0

>  <SCORE.SYSTEM.CONST>
0

>  <SCORE.SYSTEM.DIHEDRAL>
0

>  <SCORE.SYSTEM.SOLV>
0

>  <SCORE.SYSTEM.norm>
0

>  <SCORE.heavy>
27

>  <SCORE.norm>
-0.551748

>  <RMSD>
1.913

$$$$
ligand
 OpenBabel11021811483D
libRbt.so/2013.1/901 2013/11/27
 27 29  0  0  0  0  0  0  0  0999 V2000
   12.9724   -8.7889   13.2175 N   0  0  0  0  0  0  0  0  0  0  0  0
   14.2563   -8.0851   13.2037 C   0  0  2  0  0  0  0  0  0  0  0  0
   14.4327   -7.0042   14.2729 C   0  0  0  0  0  0  0  0  0  0  0  0
   15.5449   -6.5023   14.4301 O   0  0  0  0  0  0  0  0  0  0  0  0
   14.5536   -7.5241   11.8232 C   0  0  0  0  0  0  0  0  0  0  0  0
   14.2399   -8.5322   10.7311 C   0  0  0  0  0  0  0  0  0  0  0  0
   14.3829   -7.7729    9.1038 S   0  0  2  0  0  0  0  0  0  0  0  0
   13.0762   -6.5328    9.2210 C   0  0  0  0  0  0  0  0  0  0  0  0
   13.5370   -9.0070    8.0887 C   0  0  0  0  0  0  0  0  0  0  0  0
   13.4713   -8.5628    6.6391 C   0  0  1  0  0  0  0  0  0  0  0  0
   12.9293   -7.2656    6.5413 O   0  0  0  0  0  0  0  0  0  0  0  0
   14.8389   -8.4691    5.9915 C   0  0  1  0  0  0  0  0  0  0  0  0
   15.1134   -9.6924    5.3565 O   0  0  0  0  0  0  0  0  0  0  0  0
   14.6759   -7.3539    4.9786 C   0  0  1  0  0  0  0  0  0  0  0  0
   14.4771   -7.9555    3.7190 O   0  0  0  0  0  0  0  0  0  0  0  0
   13.4307   -6.5761    5.4099 C   0  0  2  0  0  0  0  0  0  0  0  0
   13.5086   -6.6144   14.9919 O   0  0  0  0  0  0  0  0  0  0  0  0
   17.1740   -3.6449    7.6040 N   0  0  0  0  0  0  0  0  0  0  0  0
   17.2281   -4.9795    7.2828 C   0  0  0  0  0  0  0  0  0  0  0  0
   16.1292   -5.5788    6.7074 N   0  0  0  0  0  0  0  0  0  0  0  0
   15.0030   -4.8759    6.4520 C   0  0  0  0  0  0  0  0  0  0  0  0
   14.9383   -3.5242    6.7580 C   0  0  0  0  0  0  0  0  0  0  0  0
   16.0380   -2.9062    7.3497 C   0  0  0  0  0  0  0  0  0  0  0  0
   16.0121   -1.6109    7.6646 N   0  0  0  0  0  0  0  0  0  0  0  0
   13.7112   -3.0718    6.3925 N   0  0  0  0  0  0  0  0  0  0  0  0
   13.0226   -4.1044    5.8538 C   0  0  0  0  0  0  0  0  0  0  0  0
   13.8115   -5.2282    5.8767 N   0  0  0  0  0  0  0  0  0  0  0  0
  2  1  1  6  0  0  0
  2  3  1  0  0  0  0
  2  5  1  0  0  0  0
  3  4  1  0  0  0  0
  3 17  1  0  0  0  0
  5  6  1  0  0  0  0
  7  6  1  1  0  0  0
  7  8  1  0  0  0  0
  7  9  1  0  0  0  0
 10  9  1  1  0  0  0
 10 11  1  0  0  0  0
 10 12  1  0  0  0  0
 11 16  1  0  0  0  0
 12 13  1  6  0  0  0
 12 14  1  0  0  0  0
 14 15  1  6  0  0  0
 14 16  1  0  0  0  0
 16 27  1  1  0  0  0
 18 19  2  0  0  0  0
 18 23  1  0  0  0  0
 19 20  1  0  0  0  0
 20 21  2  0  0  0  0
 21 22  1  0  0  0  0
 21 27  1  0  0  0  0
 22 23  2  0  0  0  0
 22 25  1  0  0  0  0
 23 24  1  0  0  0  0
 25 26  2  0  0  0  0
 26 27  1  0  0  0  0
M  END
>  <CHROM.1>
170.42751728,-43.99321464,172.21442271,-63.27085487,177.68777294,-52.26604252
84.80209235,14.50815092,-6.49619457,8.43669667,1.79937596,1.27598785,1.56436656

>  <Name>
ligand

>  <RI>
0

>  <Rbt.Current_Directory>
/home/itssahil/PROJECTS/Mol_Feturizer/New_Systems/rnas/3GX5

>  <Rbt.Executable>
rbdock ($Id: //depot/dev/client3/rdock/2013.1/src/exe/rbdock.cxx#4 $)

>  <Rbt.Library>
libRbt.so (2013.1, Build901 2013/11/27)

>  <Rbt.Parameter_File>
/export/apps/rDock/src/rDock_2013.1_src/data/scripts/dock_solv.prm

>  <Rbt.Receptor>
prm/pocket_docking_3.prm

>  <SCORE>
-9.68113

>  <SCORE.INTER>
-10.7982

>  <SCORE.INTER.CONST>
1

>  <SCORE.INTER.POLAR>
0

>  <SCORE.INTER.ROT>
7

>  <SCORE.INTER.SOLV>
15.2647

>  <SCORE.INTER.VDW>
-20.5537

>  <SCORE.INTER.norm>
-0.399934

>  <SCORE.INTRA>
1.10646

>  <SCORE.INTRA.DIHEDRAL>
0.592697

>  <SCORE.INTRA.DIHEDRAL.0>
4.28829

>  <SCORE.INTRA.POLAR>
0

>  <SCORE.INTRA.POLAR.0>
0

>  <SCORE.INTRA.REPUL>
0

>  <SCORE.INTRA.REPUL.0>
0

>  <SCORE.INTRA.SOLV>
0.0655491

>  <SCORE.INTRA.SOLV.lig_0>
-48.6018

>  <SCORE.INTRA.VDW>
0.777338

>  <SCORE.INTRA.VDW.0>
-2.1506

>  <SCORE.INTRA.norm>
0.04098

>  <SCORE.RESTR>
0.0106268

>  <SCORE.RESTR.CAVITY>
0.0106268

>  <SCORE.RESTR.norm>
0.000393584

>  <SCORE.SYSTEM>
0

>  <SCORE.SYSTEM.CONST>
0

>  <SCORE.SYSTEM.DIHEDRAL>
0

>  <SCORE.SYSTEM.SOLV>
0

>  <SCORE.SYSTEM.norm>
0

>  <SCORE.heavy>
27

>  <SCORE.norm>
-0.35856

>  <RMSD>
1.933

$$$$
ligand
 OpenBabel11021811483D
libRbt.so/2013.1/901 2013/11/27
 27 29  0  0  0  0  0  0  0  0999 V2000
   13.4733   -8.1880   14.4429 N   0  0  0  0  0  0  0  0  0  0  0  0
   13.6751   -8.0425   13.0000 C   0  0  2  0  0  0  0  0  0  0  0  0
   12.7949   -6.9987   12.3082 C   0  0  0  0  0  0  0  0  0  0  0  0
   13.3241   -5.9858   11.8525 O   0  0  0  0  0  0  0  0  0  0  0  0
   13.5631   -9.3852   12.2976 C   0  0  0  0  0  0  0  0  0  0  0  0
   14.2729   -9.3740   10.9547 C   0  0  0  0  0  0  0  0  0  0  0  0
   13.3342   -8.4231    9.7464 S   0  0  2  0  0  0  0  0  0  0  0  0
   11.9347   -9.5348    9.4921 C   0  0  0  0  0  0  0  0  0  0  0  0
   14.2766   -8.7766    8.2446 C   0  0  0  0  0  0  0  0  0  0  0  0
   13.5753   -8.2164    7.0209 C   0  0  1  0  0  0  0  0  0  0  0  0
   13.0770   -6.9243    7.2823 O   0  0  0  0  0  0  0  0  0  0  0  0
   14.5065   -8.0482    5.8364 C   0  0  1  0  0  0  0  0  0  0  0  0
   14.4378   -9.2109    5.0501 O   0  0  0  0  0  0  0  0  0  0  0  0
   13.9303   -6.8566    5.0987 C   0  0  1  0  0  0  0  0  0  0  0  0
   13.1720   -7.3562    4.0201 O   0  0  0  0  0  0  0  0  0  0  0  0
   13.0307   -6.1367    6.1056 C   0  0  2  0  0  0  0  0  0  0  0  0
   11.5729   -7.1234   12.1903 O   0  0  0  0  0  0  0  0  0  0  0  0
   17.3591   -3.5509    7.5190 N   0  0  0  0  0  0  0  0  0  0  0  0
   17.2315   -4.8887    7.2340 C   0  0  0  0  0  0  0  0  0  0  0  0
   15.9972   -5.3869    6.8789 N   0  0  0  0  0  0  0  0  0  0  0  0
   14.9136   -4.5821    6.8037 C   0  0  0  0  0  0  0  0  0  0  0  0
   15.0297   -3.2265    7.0751 C   0  0  0  0  0  0  0  0  0  0  0  0
   16.2693   -2.7096    7.4457 C   0  0  0  0  0  0  0  0  0  0  0  0
   16.4198   -1.4137    7.7207 N   0  0  0  0  0  0  0  0  0  0  0  0
   13.8044   -2.6628    6.9169 N   0  0  0  0  0  0  0  0  0  0  0  0
   12.9386   -3.6313    6.5390 C   0  0  0  0  0  0  0  0  0  0  0  0
   13.6115   -4.8255    6.4573 N   0  0  0  0  0  0  0  0  0  0  0  0
  2  1  1  1  0  0  0
  2  3  1  0  0  0  0
  2  5  1  0  0  0  0
  3  4  1  0  0  0  0
  3 17  1  0  0  0  0
  5  6  1  0  0  0  0
  7  6  1  1  0  0  0
  7  8  1  0  0  0  0
  7  9  1  0  0  0  0
 10  9  1  1  0  0  0
 10 11  1  0  0  0  0
 10 12  1  0  0  0  0
 11 16  1  0  0  0  0
 12 13  1  6  0  0  0
 12 14  1  0  0  0  0
 14 15  1  6  0  0  0
 14 16  1  0  0  0  0
 16 27  1  1  0  0  0
 18 19  2  0  0  0  0
 18 23  1  0  0  0  0
 19 20  1  0  0  0  0
 20 21  2  0  0  0  0
 21 22  1  0  0  0  0
 21 27  1  0  0  0  0
 22 23  2  0  0  0  0
 22 25  1  0  0  0  0
 23 24  1  0  0  0  0
 25 26  2  0  0  0  0
 26 27  1  0  0  0  0
M  END
>  <CHROM.1>
112.10097421,-157.93958859,-73.43918915,-70.76549557,172.86472608,42.62045898
66.35309754,14.04452824,-6.52742069,8.43965394,-2.38917301,-1.19130636,-1.74599169

>  <Name>
ligand

>  <RI>
0

>  <Rbt.Current_Directory>
/home/itssahil/PROJECTS/Mol_Feturizer/New_Systems/rnas/3GX5

>  <Rbt.Executable>
rbdock ($Id: //depot/dev/client3/rdock/2013.1/src/exe/rbdock.cxx#4 $)

>  <Rbt.Library>
libRbt.so (2013.1, Build901 2013/11/27)

>  <Rbt.Parameter_File>
/export/apps/rDock/src/rDock_2013.1_src/data/scripts/dock_solv.prm

>  <Rbt.Receptor>
prm/pocket_docking_4.prm

>  <SCORE>
-13.2678

>  <SCORE.INTER>
-13.2919

>  <SCORE.INTER.CONST>
1

>  <SCORE.INTER.POLAR>
0

>  <SCORE.INTER.ROT>
7

>  <SCORE.INTER.SOLV>
16.0873

>  <SCORE.INTER.VDW>
-22.4904

>  <SCORE.INTER.norm>
-0.492294

>  <SCORE.INTRA>
0.0240908

>  <SCORE.INTRA.DIHEDRAL>
2.31707

>  <SCORE.INTRA.DIHEDRAL.0>
4.28829

>  <SCORE.INTRA.POLAR>
0

>  <SCORE.INTRA.POLAR.0>
0

>  <SCORE.INTRA.REPUL>
0

>  <SCORE.INTRA.REPUL.0>
0

>  <SCORE.INTRA.SOLV>
-1.05614

>  <SCORE.INTRA.SOLV.lig_0>
-48.6018

>  <SCORE.INTRA.VDW>
-0.606371

>  <SCORE.INTRA.VDW.0>
-2.1506

>  <SCORE.INTRA.norm>
0.000892252

>  <SCORE.RESTR>
0

>  <SCORE.RESTR.CAVITY>
0

>  <SCORE.RESTR.norm>
0

>  <SCORE.SYSTEM>
0

>  <SCORE.SYSTEM.CONST>
0

>  <SCORE.SYSTEM.DIHEDRAL>
0

>  <SCORE.SYSTEM.SOLV>
0

>  <SCORE.SYSTEM.norm>
0

>  <SCORE.heavy>
27

>  <SCORE.norm>
-0.491402

>  <RMSD>
1.978

$$$$
ligand
 OpenBabel11021811483D
libRbt.so/2013.1/901 2013/11/27
 27 29  0  0  0  0  0  0  0  0999 V2000
   16.4586   -6.9942   11.0051 N   0  0  0  0  0  0  0  0  0  0  0  0
   15.1761   -6.7817   11.6788 C   0  0  2  0  0  0  0  0  0  0  0  0
   15.2333   -5.9697   12.9750 C   0  0  0  0  0  0  0  0  0  0  0  0
   15.6557   -6.5118   13.9955 O   0  0  0  0  0  0  0  0  0  0  0  0
   14.4567   -8.1006   11.9064 C   0  0  0  0  0  0  0  0  0  0  0  0
   14.3252   -8.8948   10.6183 C   0  0  0  0  0  0  0  0  0  0  0  0
   13.8659   -7.8169    9.2499 S   0  0  2  0  0  0  0  0  0  0  0  0
   12.2483   -7.2560    9.8226 C   0  0  0  0  0  0  0  0  0  0  0  0
   13.3445   -9.0414    8.0263 C   0  0  0  0  0  0  0  0  0  0  0  0
   13.4853   -8.4936    6.6181 C   0  0  1  0  0  0  0  0  0  0  0  0
   13.5420   -7.0856    6.6364 O   0  0  0  0  0  0  0  0  0  0  0  0
   14.7706   -8.9317    5.9438 C   0  0  1  0  0  0  0  0  0  0  0  0
   14.5091  -10.1002    5.2081 O   0  0  0  0  0  0  0  0  0  0  0  0
   15.1024   -7.7727    5.0258 C   0  0  1  0  0  0  0  0  0  0  0  0
   14.6797   -8.1290    3.7288 O   0  0  0  0  0  0  0  0  0  0  0  0
   14.2976   -6.5811    5.5494 C   0  0  2  0  0  0  0  0  0  0  0  0
   14.8687   -4.7929   13.0463 O   0  0  0  0  0  0  0  0  0  0  0  0
   14.6584   -2.0772    8.1956 N   0  0  0  0  0  0  0  0  0  0  0  0
   13.5207   -2.7751    7.8705 C   0  0  0  0  0  0  0  0  0  0  0  0
   13.6315   -3.9510    7.1616 N   0  0  0  0  0  0  0  0  0  0  0  0
   14.8385   -4.4291    6.7845 C   0  0  0  0  0  0  0  0  0  0  0  0
   15.9972   -3.7427    7.1175 C   0  0  0  0  0  0  0  0  0  0  0  0
   15.9008   -2.5464    7.8253 C   0  0  0  0  0  0  0  0  0  0  0  0
   16.9908   -1.8544    8.1582 N   0  0  0  0  0  0  0  0  0  0  0  0
   17.0526   -4.4429    6.6277 N   0  0  0  0  0  0  0  0  0  0  0  0
   16.5772   -5.5519    6.0155 C   0  0  0  0  0  0  0  0  0  0  0  0
   15.2073   -5.5621    6.1099 N   0  0  0  0  0  0  0  0  0  0  0  0
  2  1  1  1  0  0  0
  2  3  1  0  0  0  0
  2  5  1  0  0  0  0
  3  4  1  0  0  0  0
  3 17  1  0  0  0  0
  5  6  1  0  0  0  0
  7  6  1  1  0  0  0
  7  8  1  0  0  0  0
  7  9  1  0  0  0  0
 10  9  1  1  0  0  0
 10 11  1  0  0  0  0
 10 12  1  0  0  0  0
 11 16  1  0  0  0  0
 12 13  1  6  0  0  0
 12 14  1  0  0  0  0
 14 15  1  6  0  0  0
 14 16  1  0  0  0  0
 16 27  1  1  0  0  0
 18 19  2  0  0  0  0
 18 23  1  0  0  0  0
 19 20  1  0  0  0  0
 20 21  2  0  0  0  0
 21 22  1  0  0  0  0
 21 27  1  0  0  0  0
 22 23  2  0  0  0  0
 22 25  1  0  0  0  0
 23 24  1  0  0  0  0
 25 26  2  0  0  0  0
 26 27  1  0  0  0  0
M  END
>  <CHROM.1>
-75.93058979,-53.06920378,-42.39912074,-63.21761033,-154.94693808,-19.76438145
-59.29595424,14.76092335,-6.30625106,8.33400339,1.37747435,1.30849628,1.59139891

>  <Name>
ligand

>  <RI>
0

>  <Rbt.Current_Directory>
/home/itssahil/PROJECTS/Mol_Feturizer/New_Systems/rnas/3GX5

>  <Rbt.Executable>
rbdock ($Id: //depot/dev/client3/rdock/2013.1/src/exe/rbdock.cxx#4 $)

>  <Rbt.Library>
libRbt.so (2013.1, Build901 2013/11/27)

>  <Rbt.Parameter_File>
/export/apps/rDock/src/rDock_2013.1_src/data/scripts/dock_solv.prm

>  <Rbt.Receptor>
prm/pocket_docking_2.prm

>  <SCORE>
-5.25194

>  <SCORE.INTER>
-11.6604

>  <SCORE.INTER.CONST>
1

>  <SCORE.INTER.POLAR>
0

>  <SCORE.INTER.ROT>
7

>  <SCORE.INTER.SOLV>
15.5362

>  <SCORE.INTER.VDW>
-21.219

>  <SCORE.INTER.norm>
-0.431867

>  <SCORE.INTRA>
5.85609

>  <SCORE.INTRA.DIHEDRAL>
7.06246

>  <SCORE.INTRA.DIHEDRAL.0>
4.28829

>  <SCORE.INTRA.POLAR>
0

>  <SCORE.INTRA.POLAR.0>
0

>  <SCORE.INTRA.REPUL>
0

>  <SCORE.INTRA.REPUL.0>
0

>  <SCORE.INTRA.SOLV>
0.990895

>  <SCORE.INTRA.SOLV.lig_0>
-48.6018

>  <SCORE.INTRA.VDW>
1.82942

>  <SCORE.INTRA.VDW.0>
-2.1506

>  <SCORE.INTRA.norm>
0.216892

>  <SCORE.RESTR>
0.55238

>  <SCORE.RESTR.CAVITY>
0.55238

>  <SCORE.RESTR.norm>
0.0204585

>  <SCORE.SYSTEM>
0

>  <SCORE.SYSTEM.CONST>
0

>  <SCORE.SYSTEM.DIHEDRAL>
0

>  <SCORE.SYSTEM.SOLV>
0

>  <SCORE.SYSTEM.norm>
0

>  <SCORE.heavy>
27

>  <SCORE.norm>
-0.194516

>  <RMSD>
2.156

$$$$
ligand
 OpenBabel11021811483D
libRbt.so/2013.1/901 2013/11/27
 27 29  0  0  0  0  0  0  0  0999 V2000
   12.5772   -7.6073   13.6584 N   0  0  0  0  0  0  0  0  0  0  0  0
   12.8158   -7.3742   12.2328 C   0  0  2  0  0  0  0  0  0  0  0  0
   11.5924   -6.9539   11.4146 C   0  0  0  0  0  0  0  0  0  0  0  0
   10.5012   -6.8769   11.9776 O   0  0  0  0  0  0  0  0  0  0  0  0
   13.5001   -8.5708   11.5935 C   0  0  0  0  0  0  0  0  0  0  0  0
   14.1052   -8.2145   10.2465 C   0  0  0  0  0  0  0  0  0  0  0  0
   14.7310   -9.6877    9.4200 S   0  0  2  0  0  0  0  0  0  0  0  0
   16.2563   -9.9448   10.3509 C   0  0  0  0  0  0  0  0  0  0  0  0
   15.4160   -8.9558    7.9154 C   0  0  0  0  0  0  0  0  0  0  0  0
   14.3102   -8.4509    7.0070 C   0  0  1  0  0  0  0  0  0  0  0  0
   13.7419   -7.2700    7.5255 O   0  0  0  0  0  0  0  0  0  0  0  0
   14.8107   -8.0750    5.6262 C   0  0  1  0  0  0  0  0  0  0  0  0
   14.6683   -9.1910    4.7841 O   0  0  0  0  0  0  0  0  0  0  0  0
   13.8828   -6.9532    5.2059 C   0  0  1  0  0  0  0  0  0  0  0  0
   12.9112   -7.5099    4.3491 O   0  0  0  0  0  0  0  0  0  0  0  0
   13.2376   -6.4392    6.4947 C   0  0  2  0  0  0  0  0  0  0  0  0
   11.6483   -6.6929   10.2098 O   0  0  0  0  0  0  0  0  0  0  0  0
   17.4032   -3.3987    7.4008 N   0  0  0  0  0  0  0  0  0  0  0  0
   17.3863   -4.7426    7.1166 C   0  0  0  0  0  0  0  0  0  0  0  0
   16.1786   -5.3718    6.9087 N   0  0  0  0  0  0  0  0  0  0  0  0
   15.0137   -4.6893    6.9769 C   0  0  0  0  0  0  0  0  0  0  0  0
   15.0156   -3.3290    7.2493 C   0  0  0  0  0  0  0  0  0  0  0  0
   16.2285   -2.6805    7.4720 C   0  0  0  0  0  0  0  0  0  0  0  0
   16.2713   -1.3757    7.7430 N   0  0  0  0  0  0  0  0  0  0  0  0
   13.7267   -2.9015    7.2494 N   0  0  0  0  0  0  0  0  0  0  0  0
   12.9303   -3.9584    6.9680 C   0  0  0  0  0  0  0  0  0  0  0  0
   13.7127   -5.0727    6.7893 N   0  0  0  0  0  0  0  0  0  0  0  0
  2  1  1  1  0  0  0
  2  3  1  0  0  0  0
  2  5  1  0  0  0  0
  3  4  1  0  0  0  0
  3 17  1  0  0  0  0
  5  6  1  0  0  0  0
  7  6  1  1  0  0  0
  7  8  1  0  0  0  0
  7  9  1  0  0  0  0
 10  9  1  1  0  0  0
 10 11  1  0  0  0  0
 10 12  1  0  0  0  0
 11 16  1  0  0  0  0
 12 13  1  6  0  0  0
 12 14  1  0  0  0  0
 14 15  1  6  0  0  0
 14 16  1  0  0  0  0
 16 27  1  1  0  0  0
 18 19  2  0  0  0  0
 18 23  1  0  0  0  0
 19 20  1  0  0  0  0
 20 21  2  0  0  0  0
 21 22  1  0  0  0  0
 21 27  1  0  0  0  0
 22 23  2  0  0  0  0
 22 25  1  0  0  0  0
 23 24  1  0  0  0  0
 25 26  2  0  0  0  0
 26 27  1  0  0  0  0
M  END
>  <CHROM.1>
-2.08174006,-163.85364257,-173.06574546,-76.48062948,-69.90371091,73.70001159
55.17023549,14.22338438,-6.61983109,8.29023861,2.72177681,-1.18020910,-2.89044006

>  <Name>
ligand

>  <RI>
0

>  <Rbt.Current_Directory>
/home/itssahil/PROJECTS/Mol_Feturizer/New_Systems/rnas/3GX5

>  <Rbt.Executable>
rbdock ($Id: //depot/dev/client3/rdock/2013.1/src/exe/rbdock.cxx#4 $)

>  <Rbt.Library>
libRbt.so (2013.1, Build901 2013/11/27)

>  <Rbt.Parameter_File>
/export/apps/rDock/src/rDock_2013.1_src/data/scripts/dock_solv.prm

>  <Rbt.Receptor>
prm/pocket_docking_5.prm

>  <SCORE>
-13.643

>  <SCORE.INTER>
-13.1764

>  <SCORE.INTER.CONST>
1

>  <SCORE.INTER.POLAR>
0

>  <SCORE.INTER.ROT>
7

>  <SCORE.INTER.SOLV>
17.1613

>  <SCORE.INTER.VDW>
-22.7714

>  <SCORE.INTER.norm>
-0.488016

>  <SCORE.INTRA>
-0.466572

>  <SCORE.INTRA.DIHEDRAL>
1.00462

>  <SCORE.INTRA.DIHEDRAL.0>
4.28829

>  <SCORE.INTRA.POLAR>
0

>  <SCORE.INTRA.POLAR.0>
0

>  <SCORE.INTRA.REPUL>
0

>  <SCORE.INTRA.REPUL.0>
0

>  <SCORE.INTRA.SOLV>
-1.11833

>  <SCORE.INTRA.SOLV.lig_0>
-48.6018

>  <SCORE.INTRA.VDW>
-0.409716

>  <SCORE.INTRA.VDW.0>
-2.1506

>  <SCORE.INTRA.norm>
-0.0172804

>  <SCORE.RESTR>
0

>  <SCORE.RESTR.CAVITY>
0

>  <SCORE.RESTR.norm>
0

>  <SCORE.SYSTEM>
0

>  <SCORE.SYSTEM.CONST>
0

>  <SCORE.SYSTEM.DIHEDRAL>
0

>  <SCORE.SYSTEM.SOLV>
0

>  <SCORE.SYSTEM.norm>
0

>  <SCORE.heavy>
27

>  <SCORE.norm>
-0.505297

>  <RMSD>
2.157

$$$$
ligand
 OpenBabel11021811483D
libRbt.so/2013.1/901 2013/11/27
 27 29  0  0  0  0  0  0  0  0999 V2000
   12.5841   -7.5307   13.6035 N   0  0  0  0  0  0  0  0  0  0  0  0
   12.8215   -7.3262   12.1733 C   0  0  2  0  0  0  0  0  0  0  0  0
   11.5938   -6.9403   11.3447 C   0  0  0  0  0  0  0  0  0  0  0  0
   10.4922   -6.9192   11.8924 O   0  0  0  0  0  0  0  0  0  0  0  0
   13.5221   -8.5278   11.5615 C   0  0  0  0  0  0  0  0  0  0  0  0
   14.1265   -8.1930   10.2087 C   0  0  0  0  0  0  0  0  0  0  0  0
   14.7942   -9.6718    9.4262 S   0  0  2  0  0  0  0  0  0  0  0  0
   16.3014   -9.8861   10.3965 C   0  0  0  0  0  0  0  0  0  0  0  0
   15.5023   -8.9585    7.9233 C   0  0  0  0  0  0  0  0  0  0  0  0
   14.4103   -8.4746    6.9872 C   0  0  1  0  0  0  0  0  0  0  0  0
   13.7971   -7.3130    7.4980 O   0  0  0  0  0  0  0  0  0  0  0  0
   14.9403   -8.0745    5.6243 C   0  0  1  0  0  0  0  0  0  0  0  0
   14.8510   -9.1868    4.7700 O   0  0  0  0  0  0  0  0  0  0  0  0
   13.9961   -6.9734    5.1859 C   0  0  1  0  0  0  0  0  0  0  0  0
   13.0642   -7.5476    4.2971 O   0  0  0  0  0  0  0  0  0  0  0  0
   13.3012   -6.4869    6.4594 C   0  0  2  0  0  0  0  0  0  0  0  0
   11.6563   -6.6533   10.1462 O   0  0  0  0  0  0  0  0  0  0  0  0
   17.3734   -3.3056    7.3048 N   0  0  0  0  0  0  0  0  0  0  0  0
   17.3994   -4.6402    6.9805 C   0  0  0  0  0  0  0  0  0  0  0  0
   16.2108   -5.3122    6.7979 N   0  0  0  0  0  0  0  0  0  0  0  0
   15.0230   -4.6803    6.9294 C   0  0  0  0  0  0  0  0  0  0  0  0
   14.9809   -3.3295    7.2428 C   0  0  0  0  0  0  0  0  0  0  0  0
   16.1745   -2.6385    7.4408 C   0  0  0  0  0  0  0  0  0  0  0  0
   16.1754   -1.3415    7.7497 N   0  0  0  0  0  0  0  0  0  0  0  0
   13.6769   -2.9554    7.3031 N   0  0  0  0  0  0  0  0  0  0  0  0
   12.9132   -4.0355    7.0189 C   0  0  0  0  0  0  0  0  0  0  0  0
   13.7321   -5.1111    6.7779 N   0  0  0  0  0  0  0  0  0  0  0  0
  2  1  1  1  0  0  0
  2  3  1  0  0  0  0
  2  5  1  0  0  0  0
  3  4  1  0  0  0  0
  3 17  1  0  0  0  0
  5  6  1  0  0  0  0
  7  6  1  1  0  0  0
  7  8  1  0  0  0  0
  7  9  1  0  0  0  0
 10  9  1  1  0  0  0
 10 11  1  0  0  0  0
 10 12  1  0  0  0  0
 11 16  1  0  0  0  0
 12 13  1  6  0  0  0
 12 14  1  0  0  0  0
 14 15  1  6  0  0  0
 14 16  1  0  0  0  0
 16 27  1  1  0  0  0
 18 19  2  0  0  0  0
 18 23  1  0  0  0  0
 19 20  1  0  0  0  0
 20 21  2  0  0  0  0
 21 22  1  0  0  0  0
 21 27  1  0  0  0  0
 22 23  2  0  0  0  0
 22 25  1  0  0  0  0
 23 24  1  0  0  0  0
 25 26  2  0  0  0  0
 26 27  1  0  0  0  0
M  END
>  <CHROM.1>
-5.07491866,-163.74715466,-173.89734486,-75.28771981,-69.24136470,71.86272770
59.24074627,14.25799581,-6.60983697,8.26077717,2.65254550,-1.16275260,-2.97337136

>  <Name>
ligand

>  <RI>
0

>  <Rbt.Current_Directory>
/home/itssahil/PROJECTS/Mol_Feturizer/New_Systems/rnas/3GX5

>  <Rbt.Executable>
rbdock ($Id: //depot/dev/client3/rdock/2013.1/src/exe/rbdock.cxx#4 $)

>  <Rbt.Library>
libRbt.so (2013.1, Build901 2013/11/27)

>  <Rbt.Parameter_File>
/export/apps/rDock/src/rDock_2013.1_src/data/scripts/dock_solv.prm

>  <Rbt.Receptor>
prm/pocket_docking_4.prm

>  <SCORE>
-13.7174

>  <SCORE.INTER>
-13.1443

>  <SCORE.INTER.CONST>
1

>  <SCORE.INTER.POLAR>
0

>  <SCORE.INTER.ROT>
7

>  <SCORE.INTER.SOLV>
17.346

>  <SCORE.INTER.VDW>
-22.8115

>  <SCORE.INTER.norm>
-0.486826

>  <SCORE.INTRA>
-0.573067

>  <SCORE.INTRA.DIHEDRAL>
0.752712

>  <SCORE.INTRA.DIHEDRAL.0>
4.28829

>  <SCORE.INTRA.POLAR>
0

>  <SCORE.INTRA.POLAR.0>
0

>  <SCORE.INTRA.REPUL>
0

>  <SCORE.INTRA.REPUL.0>
0

>  <SCORE.INTRA.SOLV>
-1.1122

>  <SCORE.INTRA.SOLV.lig_0>
-48.6018

>  <SCORE.INTRA.VDW>
-0.393324

>  <SCORE.INTRA.VDW.0>
-2.1506

>  <SCORE.INTRA.norm>
-0.0212247

>  <SCORE.RESTR>
0

>  <SCORE.RESTR.CAVITY>
0

>  <SCORE.RESTR.norm>
0

>  <SCORE.SYSTEM>
0

>  <SCORE.SYSTEM.CONST>
0

>  <SCORE.SYSTEM.DIHEDRAL>
0

>  <SCORE.SYSTEM.SOLV>
0

>  <SCORE.SYSTEM.norm>
0

>  <SCORE.heavy>
27

>  <SCORE.norm>
-0.508051

>  <RMSD>
2.158

$$$$
ligand
 OpenBabel11021811483D
libRbt.so/2013.1/901 2013/11/27
 27 29  0  0  0  0  0  0  0  0999 V2000
   17.3738   -5.4895   10.9717 N   0  0  0  0  0  0  0  0  0  0  0  0
   17.0619   -6.7436   10.2835 C   0  0  2  0  0  0  0  0  0  0  0  0
   18.1313   -7.2530    9.3140 C   0  0  0  0  0  0  0  0  0  0  0  0
   18.1111   -8.4364    8.9781 O   0  0  0  0  0  0  0  0  0  0  0  0
   15.7106   -6.6632    9.5933 C   0  0  0  0  0  0  0  0  0  0  0  0
   14.5687   -6.8457   10.5783 C   0  0  0  0  0  0  0  0  0  0  0  0
   12.9794   -6.7440    9.7362 S   0  0  2  0  0  0  0  0  0  0  0  0
   11.8837   -7.2701   11.0711 C   0  0  0  0  0  0  0  0  0  0  0  0
   13.0232   -8.2677    8.7642 C   0  0  0  0  0  0  0  0  0  0  0  0
   13.3002   -7.9695    7.3022 C   0  0  1  0  0  0  0  0  0  0  0  0
   12.9024   -6.6566    6.9793 O   0  0  0  0  0  0  0  0  0  0  0  0
   14.7759   -8.0304    6.9602 C   0  0  1  0  0  0  0  0  0  0  0  0
   15.0725   -9.3269    6.5063 O   0  0  0  0  0  0  0  0  0  0  0  0
   14.9235   -7.0154    5.8447 C   0  0  1  0  0  0  0  0  0  0  0  0
   14.9425   -7.7275    4.6280 O   0  0  0  0  0  0  0  0  0  0  0  0
   13.6861   -6.1192    5.9285 C   0  0  2  0  0  0  0  0  0  0  0  0
   19.0204   -6.5303    8.8557 O   0  0  0  0  0  0  0  0  0  0  0  0
   17.5608   -3.0592    7.6726 N   0  0  0  0  0  0  0  0  0  0  0  0
   17.6216   -4.3918    7.3445 C   0  0  0  0  0  0  0  0  0  0  0  0
   16.4834   -5.0289    6.9013 N   0  0  0  0  0  0  0  0  0  0  0  0
   15.3120   -4.3649    6.7818 C   0  0  0  0  0  0  0  0  0  0  0  0
   15.2382   -3.0156    7.0960 C   0  0  0  0  0  0  0  0  0  0  0  0
   16.3784   -2.3597    7.5554 C   0  0  0  0  0  0  0  0  0  0  0  0
   16.3462   -1.0654    7.8738 N   0  0  0  0  0  0  0  0  0  0  0  0
   13.9621   -2.6055    6.8785 N   0  0  0  0  0  0  0  0  0  0  0  0
   13.2501   -3.6618    6.4225 C   0  0  0  0  0  0  0  0  0  0  0  0
   14.0736   -4.7582    6.3500 N   0  0  0  0  0  0  0  0  0  0  0  0
  2  1  1  6  0  0  0
  2  3  1  0  0  0  0
  2  5  1  0  0  0  0
  3  4  1  0  0  0  0
  3 17  1  0  0  0  0
  5  6  1  0  0  0  0
  7  6  1  1  0  0  0
  7  8  1  0  0  0  0
  7  9  1  0  0  0  0
 10  9  1  1  0  0  0
 10 11  1  0  0  0  0
 10 12  1  0  0  0  0
 11 16  1  0  0  0  0
 12 13  1  6  0  0  0
 12 14  1  0  0  0  0
 14 15  1  6  0  0  0
 14 16  1  0  0  0  0
 16 27  1  1  0  0  0
 18 19  2  0  0  0  0
 18 23  1  0  0  0  0
 19 20  1  0  0  0  0
 20 21  2  0  0  0  0
 21 22  1  0  0  0  0
 21 27  1  0  0  0  0
 22 23  2  0  0  0  0
 22 25  1  0  0  0  0
 23 24  1  0  0  0  0
 25 26  2  0  0  0  0
 26 27  1  0  0  0  0
M  END
>  <CHROM.1>
161.03813734,-78.49348608,179.92176838,170.78971605,-104.84209534,-24.67409848
105.59667361,15.20881055,-5.95832044,7.99359878,-1.00879349,0.43665245,2.67210045

>  <Name>
ligand

>  <RI>
0

>  <Rbt.Current_Directory>
/home/itssahil/PROJECTS/Mol_Feturizer/New_Systems/rnas/3GX5

>  <Rbt.Executable>
rbdock ($Id: //depot/dev/client3/rdock/2013.1/src/exe/rbdock.cxx#4 $)

>  <Rbt.Library>
libRbt.so (2013.1, Build901 2013/11/27)

>  <Rbt.Parameter_File>
/export/apps/rDock/src/rDock_2013.1_src/data/scripts/dock_solv.prm

>  <Rbt.Receptor>
prm/pocket_docking_5.prm

>  <SCORE>
-8.69648

>  <SCORE.INTER>
-10.1094

>  <SCORE.INTER.CONST>
1

>  <SCORE.INTER.POLAR>
0

>  <SCORE.INTER.ROT>
7

>  <SCORE.INTER.SOLV>
17.7751

>  <SCORE.INTER.VDW>
-20.9313

>  <SCORE.INTER.norm>
-0.374422

>  <SCORE.INTRA>
1.41291

>  <SCORE.INTRA.DIHEDRAL>
6.51502

>  <SCORE.INTRA.DIHEDRAL.0>
4.28829

>  <SCORE.INTRA.POLAR>
0

>  <SCORE.INTRA.POLAR.0>
0

>  <SCORE.INTRA.REPUL>
0

>  <SCORE.INTRA.REPUL.0>
0

>  <SCORE.INTRA.SOLV>
-0.251793

>  <SCORE.INTRA.SOLV.lig_0>
-48.6018

>  <SCORE.INTRA.VDW>
-1.71871

>  <SCORE.INTRA.VDW.0>
-2.1506

>  <SCORE.INTRA.norm>
0.0523299

>  <SCORE.RESTR>
0

>  <SCORE.RESTR.CAVITY>
0

>  <SCORE.RESTR.norm>
0

>  <SCORE.SYSTEM>
0

>  <SCORE.SYSTEM.CONST>
0

>  <SCORE.SYSTEM.DIHEDRAL>
0

>  <SCORE.SYSTEM.SOLV>
0

>  <SCORE.SYSTEM.norm>
0

>  <SCORE.heavy>
27

>  <SCORE.norm>
-0.322092

>  <RMSD>
2.264

$$$$
ligand
 OpenBabel11021811483D
libRbt.so/2013.1/901 2013/11/27
 27 29  0  0  0  0  0  0  0  0999 V2000
   12.8959   -8.1545   13.0432 N   0  0  0  0  0  0  0  0  0  0  0  0
   11.9976   -7.1624   12.4496 C   0  0  2  0  0  0  0  0  0  0  0  0
   10.6283   -7.6857   12.0090 C   0  0  0  0  0  0  0  0  0  0  0  0
    9.6560   -6.9352   12.0811 O   0  0  0  0  0  0  0  0  0  0  0  0
   12.6795   -6.4252   11.3093 C   0  0  0  0  0  0  0  0  0  0  0  0
   13.6409   -7.3284   10.5560 C   0  0  0  0  0  0  0  0  0  0  0  0
   12.7391   -8.5366    9.5701 S   0  0  2  0  0  0  0  0  0  0  0  0
   13.0423  -10.0254   10.5452 C   0  0  0  0  0  0  0  0  0  0  0  0
   13.9173   -8.8113    8.2266 C   0  0  0  0  0  0  0  0  0  0  0  0
   13.4034   -8.2207    6.9266 C   0  0  1  0  0  0  0  0  0  0  0  0
   12.9464   -6.9026    7.1264 O   0  0  0  0  0  0  0  0  0  0  0  0
   14.4814   -8.1083    5.8665 C   0  0  1  0  0  0  0  0  0  0  0  0
   14.4481   -9.2697    5.0758 O   0  0  0  0  0  0  0  0  0  0  0  0
   14.0652   -6.8915    5.0651 C   0  0  1  0  0  0  0  0  0  0  0  0
   13.4202   -7.3553    3.9003 O   0  0  0  0  0  0  0  0  0  0  0  0
   13.0880   -6.1195    5.9543 C   0  0  2  0  0  0  0  0  0  0  0  0
   10.4519   -8.8321   11.5880 O   0  0  0  0  0  0  0  0  0  0  0  0
   17.4655   -3.6796    7.4717 N   0  0  0  0  0  0  0  0  0  0  0  0
   17.3167   -4.9962    7.1089 C   0  0  0  0  0  0  0  0  0  0  0  0
   16.0722   -5.4561    6.7382 N   0  0  0  0  0  0  0  0  0  0  0  0
   14.9990   -4.6342    6.7231 C   0  0  0  0  0  0  0  0  0  0  0  0
   15.1364   -3.2989    7.0735 C   0  0  0  0  0  0  0  0  0  0  0  0
   16.3867   -2.8212    7.4606 C   0  0  0  0  0  0  0  0  0  0  0  0
   16.5577   -1.5461    7.8107 N   0  0  0  0  0  0  0  0  0  0  0  0
   13.9174   -2.7107    6.9627 N   0  0  0  0  0  0  0  0  0  0  0  0
   13.0345   -3.6436    6.5373 C   0  0  0  0  0  0  0  0  0  0  0  0
   13.6902   -4.8394    6.3771 N   0  0  0  0  0  0  0  0  0  0  0  0
  2  1  1  6  0  0  0
  2  3  1  0  0  0  0
  2  5  1  0  0  0  0
  3  4  1  0  0  0  0
  3 17  1  0  0  0  0
  5  6  1  0  0  0  0
  7  6  1  1  0  0  0
  7  8  1  0  0  0  0
  7  9  1  0  0  0  0
 10  9  1  1  0  0  0
 10 11  1  0  0  0  0
 10 12  1  0  0  0  0
 11 16  1  0  0  0  0
 12 13  1  6  0  0  0
 12 14  1  0  0  0  0
 14 15  1  6  0  0  0
 14 16  1  0  0  0  0
 16 27  1  1  0  0  0
 18 19  2  0  0  0  0
 18 23  1  0  0  0  0
 19 20  1  0  0  0  0
 20 21  2  0  0  0  0
 21 22  1  0  0  0  0
 21 27  1  0  0  0  0
 22 23  2  0  0  0  0
 22 25  1  0  0  0  0
 23 24  1  0  0  0  0
 25 26  2  0  0  0  0
 26 27  1  0  0  0  0
M  END
>  <CHROM.1>
147.43744196,33.79519691,71.96893932,-106.87776814,-109.87647232,48.04682306
75.13041602,13.66983714,-6.50579656,8.29286590,-2.92110750,-1.02730314,-2.24724900

>  <Name>
ligand

>  <RI>
0

>  <Rbt.Current_Directory>
/home/itssahil/PROJECTS/Mol_Feturizer/New_Systems/rnas/3GX5

>  <Rbt.Executable>
rbdock ($Id: //depot/dev/client3/rdock/2013.1/src/exe/rbdock.cxx#4 $)

>  <Rbt.Library>
libRbt.so (2013.1, Build901 2013/11/27)

>  <Rbt.Parameter_File>
/export/apps/rDock/src/rDock_2013.1_src/data/scripts/dock_solv.prm

>  <Rbt.Receptor>
prm/pocket_docking_7.prm

>  <SCORE>
-12.9335

>  <SCORE.INTER>
-17.5253

>  <SCORE.INTER.CONST>
1

>  <SCORE.INTER.POLAR>
0

>  <SCORE.INTER.ROT>
7

>  <SCORE.INTER.SOLV>
16.5042

>  <SCORE.INTER.VDW>
-25.4516

>  <SCORE.INTER.norm>
-0.649085

>  <SCORE.INTRA>
4.59184

>  <SCORE.INTRA.DIHEDRAL>
8.64768

>  <SCORE.INTRA.DIHEDRAL.0>
4.28829

>  <SCORE.INTRA.POLAR>
0

>  <SCORE.INTRA.POLAR.0>
0

>  <SCORE.INTRA.REPUL>
0

>  <SCORE.INTRA.REPUL.0>
0

>  <SCORE.INTRA.SOLV>
1.77439

>  <SCORE.INTRA.SOLV.lig_0>
-48.6018

>  <SCORE.INTRA.VDW>
-0.619192

>  <SCORE.INTRA.VDW.0>
-2.1506

>  <SCORE.INTRA.norm>
0.170068

>  <SCORE.RESTR>
0

>  <SCORE.RESTR.CAVITY>
0

>  <SCORE.RESTR.norm>
0

>  <SCORE.SYSTEM>
0

>  <SCORE.SYSTEM.CONST>
0

>  <SCORE.SYSTEM.DIHEDRAL>
0

>  <SCORE.SYSTEM.SOLV>
0

>  <SCORE.SYSTEM.norm>
0

>  <SCORE.heavy>
27

>  <SCORE.norm>
-0.479017

>  <RMSD>
2.414

$$$$
ligand
 OpenBabel11021811483D
libRbt.so/2013.1/901 2013/11/27
 27 29  0  0  0  0  0  0  0  0999 V2000
   13.4544   -8.1726   12.8244 N   0  0  0  0  0  0  0  0  0  0  0  0
   12.0904   -7.6470   12.7405 C   0  0  2  0  0  0  0  0  0  0  0  0
   11.1695   -7.9996   13.9111 C   0  0  0  0  0  0  0  0  0  0  0  0
   10.4299   -8.9775   13.8094 O   0  0  0  0  0  0  0  0  0  0  0  0
   11.4426   -8.0252   11.4191 C   0  0  0  0  0  0  0  0  0  0  0  0
   12.3890   -7.8086   10.2508 C   0  0  0  0  0  0  0  0  0  0  0  0
   12.6131   -9.3354    9.3215 S   0  0  2  0  0  0  0  0  0  0  0  0
   13.5505  -10.3001   10.5256 C   0  0  0  0  0  0  0  0  0  0  0  0
   13.9560   -8.8519    8.2117 C   0  0  0  0  0  0  0  0  0  0  0  0
   13.4098   -8.2288    6.9403 C   0  0  1  0  0  0  0  0  0  0  0  0
   12.9206   -6.9316    7.1935 O   0  0  0  0  0  0  0  0  0  0  0  0
   14.4706   -8.0492    5.8722 C   0  0  1  0  0  0  0  0  0  0  0  0
   14.4581   -9.1817    5.0402 O   0  0  0  0  0  0  0  0  0  0  0  0
   14.0119   -6.8159    5.1208 C   0  0  1  0  0  0  0  0  0  0  0  0
   13.3645   -7.2546    3.9476 O   0  0  0  0  0  0  0  0  0  0  0  0
   13.0261   -6.1032    6.0491 C   0  0  2  0  0  0  0  0  0  0  0  0
   11.1298   -7.3428   14.9551 O   0  0  0  0  0  0  0  0  0  0  0  0
   17.3979   -3.5255    7.3380 N   0  0  0  0  0  0  0  0  0  0  0  0
   17.2829   -4.8194    6.8910 C   0  0  0  0  0  0  0  0  0  0  0  0
   16.0338   -5.3238    6.6027 N   0  0  0  0  0  0  0  0  0  0  0  0
   14.9232   -4.5671    6.7495 C   0  0  0  0  0  0  0  0  0  0  0  0
   15.0247   -3.2544    7.1866 C   0  0  0  0  0  0  0  0  0  0  0  0
   16.2802   -2.7331    7.4921 C   0  0  0  0  0  0  0  0  0  0  0  0
   16.4182   -1.4784    7.9213 N   0  0  0  0  0  0  0  0  0  0  0  0
   13.7720   -2.7321    7.2340 N   0  0  0  0  0  0  0  0  0  0  0  0
   12.9016   -3.6824    6.8218 C   0  0  0  0  0  0  0  0  0  0  0  0
   13.5995   -4.8234    6.5110 N   0  0  0  0  0  0  0  0  0  0  0  0
  2  1  1  1  0  0  0
  2  3  1  0  0  0  0
  2  5  1  0  0  0  0
  3  4  1  0  0  0  0
  3 17  1  0  0  0  0
  5  6  1  0  0  0  0
  7  6  1  1  0  0  0
  7  8  1  0  0  0  0
  7  9  1  0  0  0  0
 10  9  1  1  0  0  0
 10 11  1  0  0  0  0
 10 12  1  0  0  0  0
 11 16  1  0  0  0  0
 12 13  1  6  0  0  0
 12 14  1  0  0  0  0
 14 15  1  6  0  0  0
 14 16  1  0  0  0  0
 16 27  1  1  0  0  0
 18 19  2  0  0  0  0
 18 23  1  0  0  0  0
 19 20  1  0  0  0  0
 20 21  2  0  0  0  0
 21 22  1  0  0  0  0
 21 27  1  0  0  0  0
 22 23  2  0  0  0  0
 22 25  1  0  0  0  0
 23 24  1  0  0  0  0
 25 26  2  0  0  0  0
 26 27  1  0  0  0  0
M  END
>  <CHROM.1>
-95.11818022,-44.75895131,123.22232403,-69.21589184,-88.40355086,73.54610697
80.55578972,13.65196003,-6.67310976,8.55839944,-2.78028277,-1.10852636,-2.19094165

>  <Name>
ligand

>  <RI>
0

>  <Rbt.Current_Directory>
/home/itssahil/PROJECTS/Mol_Feturizer/New_Systems/rnas/3GX5

>  <Rbt.Executable>
rbdock ($Id: //depot/dev/client3/rdock/2013.1/src/exe/rbdock.cxx#4 $)

>  <Rbt.Library>
libRbt.so (2013.1, Build901 2013/11/27)

>  <Rbt.Parameter_File>
/export/apps/rDock/src/rDock_2013.1_src/data/scripts/dock_solv.prm

>  <Rbt.Receptor>
prm/pocket_docking_6.prm

>  <SCORE>
-12.9126

>  <SCORE.INTER>
-17.6503

>  <SCORE.INTER.CONST>
1

>  <SCORE.INTER.POLAR>
0

>  <SCORE.INTER.ROT>
7

>  <SCORE.INTER.SOLV>
16.2302

>  <SCORE.INTER.VDW>
-25.4436

>  <SCORE.INTER.norm>
-0.653716

>  <SCORE.INTRA>
4.73178

>  <SCORE.INTRA.DIHEDRAL>
7.00005

>  <SCORE.INTRA.DIHEDRAL.0>
4.28829

>  <SCORE.INTRA.POLAR>
0

>  <SCORE.INTRA.POLAR.0>
0

>  <SCORE.INTRA.REPUL>
0

>  <SCORE.INTRA.REPUL.0>
0

>  <SCORE.INTRA.SOLV>
1.37155

>  <SCORE.INTRA.SOLV.lig_0>
-48.6018

>  <SCORE.INTRA.VDW>
0.545973

>  <SCORE.INTRA.VDW.0>
-2.1506

>  <SCORE.INTRA.norm>
0.175251

>  <SCORE.RESTR>
0.00592349

>  <SCORE.RESTR.CAVITY>
0.00592349

>  <SCORE.RESTR.norm>
0.000219388

>  <SCORE.SYSTEM>
0

>  <SCORE.SYSTEM.CONST>
0

>  <SCORE.SYSTEM.DIHEDRAL>
0

>  <SCORE.SYSTEM.SOLV>
0

>  <SCORE.SYSTEM.norm>
0

>  <SCORE.heavy>
27

>  <SCORE.norm>
-0.478246

>  <RMSD>
2.418

$$$$
ligand
 OpenBabel11021811483D
libRbt.so/2013.1/901 2013/11/27
 27 29  0  0  0  0  0  0  0  0999 V2000
   10.8798   -7.5947   13.3522 N   0  0  0  0  0  0  0  0  0  0  0  0
   12.1351   -7.8105   14.0743 C   0  0  2  0  0  0  0  0  0  0  0  0
   12.1594   -7.3224   15.5248 C   0  0  0  0  0  0  0  0  0  0  0  0
   11.0907   -7.1311   16.1034 O   0  0  0  0  0  0  0  0  0  0  0  0
   13.3122   -7.2417   13.2999 C   0  0  0  0  0  0  0  0  0  0  0  0
   13.6632   -8.1069   12.1017 C   0  0  0  0  0  0  0  0  0  0  0  0
   12.5963   -7.7199   10.7027 S   0  0  2  0  0  0  0  0  0  0  0  0
   11.4807   -9.1382   10.7580 C   0  0  0  0  0  0  0  0  0  0  0  0
   13.6579   -8.2249    9.3290 C   0  0  0  0  0  0  0  0  0  0  0  0
   13.0462   -7.8285    7.9980 C   0  0  1  0  0  0  0  0  0  0  0  0
   12.7328   -6.4545    7.9851 O   0  0  0  0  0  0  0  0  0  0  0  0
   13.9958   -8.0278    6.8331 C   0  0  1  0  0  0  0  0  0  0  0  0
   13.7676   -9.3030    6.2884 O   0  0  0  0  0  0  0  0  0  0  0  0
   13.5947   -6.9391    5.8584 C   0  0  1  0  0  0  0  0  0  0  0  0
   12.7776   -7.5346    4.8757 O   0  0  0  0  0  0  0  0  0  0  0  0
   12.8014   -5.9175    6.6759 C   0  0  2  0  0  0  0  0  0  0  0  0
   13.2055   -7.1053   16.1423 O   0  0  0  0  0  0  0  0  0  0  0  0
   17.1819   -3.6201    8.3939 N   0  0  0  0  0  0  0  0  0  0  0  0
   16.8373   -4.9472    8.4779 C   0  0  0  0  0  0  0  0  0  0  0  0
   15.6287   -5.3630    7.9641 N   0  0  0  0  0  0  0  0  0  0  0  0
   14.7803   -4.4889    7.3777 C   0  0  0  0  0  0  0  0  0  0  0  0
   15.1205   -3.1481    7.2729 C   0  0  0  0  0  0  0  0  0  0  0  0
   16.3350   -2.7104    7.7971 C   0  0  0  0  0  0  0  0  0  0  0  0
   16.6947   -1.4287    7.7219 N   0  0  0  0  0  0  0  0  0  0  0  0
   14.1035   -2.5075    6.6410 N   0  0  0  0  0  0  0  0  0  0  0  0
   13.1518   -3.4203    6.3380 C   0  0  0  0  0  0  0  0  0  0  0  0
   13.5589   -4.6545    6.7814 N   0  0  0  0  0  0  0  0  0  0  0  0
  2  1  1  6  0  0  0
  2  3  1  0  0  0  0
  2  5  1  0  0  0  0
  3  4  1  0  0  0  0
  3 17  1  0  0  0  0
  5  6  1  0  0  0  0
  7  6  1  1  0  0  0
  7  8  1  0  0  0  0
  7  9  1  0  0  0  0
 10  9  1  1  0  0  0
 10 11  1  0  0  0  0
 10 12  1  0  0  0  0
 11 16  1  0  0  0  0
 12 13  1  6  0  0  0
 12 14  1  0  0  0  0
 14 15  1  6  0  0  0
 14 16  1  0  0  0  0
 16 27  1  1  0  0  0
 18 19  2  0  0  0  0
 18 23  1  0  0  0  0
 19 20  1  0  0  0  0
 20 21  2  0  0  0  0
 21 22  1  0  0  0  0
 21 27  1  0  0  0  0
 22 23  2  0  0  0  0
 22 25  1  0  0  0  0
 23 24  1  0  0  0  0
 25 26  2  0  0  0  0
 26 27  1  0  0  0  0
M  END
>  <CHROM.1>
19.42239619,-74.06262810,82.57220492,-103.76987335,-172.62660920,53.37074438
51.50605991,13.60771476,-6.29332130,9.47853190,2.19516754,1.02408578,1.40651647

>  <Name>
ligand

>  <RI>
0

>  <Rbt.Current_Directory>
/home/itssahil/PROJECTS/Mol_Feturizer/New_Systems/rnas/3GX5

>  <Rbt.Executable>
rbdock ($Id: //depot/dev/client3/rdock/2013.1/src/exe/rbdock.cxx#4 $)

>  <Rbt.Library>
libRbt.so (2013.1, Build901 2013/11/27)

>  <Rbt.Parameter_File>
/export/apps/rDock/src/rDock_2013.1_src/data/scripts/dock_solv.prm

>  <Rbt.Receptor>
prm/pocket_docking_7.prm

>  <SCORE>
-10.0936

>  <SCORE.INTER>
-12.7429

>  <SCORE.INTER.CONST>
1

>  <SCORE.INTER.POLAR>
0

>  <SCORE.INTER.ROT>
7

>  <SCORE.INTER.SOLV>
18.3922

>  <SCORE.INTER.VDW>
-22.8927

>  <SCORE.INTER.norm>
-0.471959

>  <SCORE.INTRA>
2.64929

>  <SCORE.INTRA.DIHEDRAL>
5.1979

>  <SCORE.INTRA.DIHEDRAL.0>
4.28829

>  <SCORE.INTRA.POLAR>
0

>  <SCORE.INTRA.POLAR.0>
0

>  <SCORE.INTRA.REPUL>
0

>  <SCORE.INTRA.REPUL.0>
0

>  <SCORE.INTRA.SOLV>
1.70501

>  <SCORE.INTRA.SOLV.lig_0>
-48.6018

>  <SCORE.INTRA.VDW>
-0.80216

>  <SCORE.INTRA.VDW.0>
-2.1506

>  <SCORE.INTRA.norm>
0.098122

>  <SCORE.RESTR>
0

>  <SCORE.RESTR.CAVITY>
0

>  <SCORE.RESTR.norm>
0

>  <SCORE.SYSTEM>
0

>  <SCORE.SYSTEM.CONST>
0

>  <SCORE.SYSTEM.DIHEDRAL>
0

>  <SCORE.SYSTEM.SOLV>
0

>  <SCORE.SYSTEM.norm>
0

>  <SCORE.heavy>
27

>  <SCORE.norm>
-0.373837

>  <RMSD>
2.465

$$$$
ligand
 OpenBabel11021811483D
libRbt.so/2013.1/901 2013/11/27
 27 29  0  0  0  0  0  0  0  0999 V2000
   12.6064   -6.3357   11.7569 N   0  0  0  0  0  0  0  0  0  0  0  0
   11.8835   -7.3711   11.0157 C   0  0  2  0  0  0  0  0  0  0  0  0
   10.5659   -7.8371   11.6398 C   0  0  0  0  0  0  0  0  0  0  0  0
    9.8455   -7.0066   12.1921 O   0  0  0  0  0  0  0  0  0  0  0  0
   12.7847   -8.5588   10.7224 C   0  0  0  0  0  0  0  0  0  0  0  0
   13.8560   -8.2089    9.7039 C   0  0  0  0  0  0  0  0  0  0  0  0
   14.6700   -9.6979    9.0992 S   0  0  2  0  0  0  0  0  0  0  0  0
   16.1311   -9.7084   10.1595 C   0  0  0  0  0  0  0  0  0  0  0  0
   15.4100   -9.0723    7.5728 C   0  0  0  0  0  0  0  0  0  0  0  0
   14.3397   -8.5991    6.6066 C   0  0  1  0  0  0  0  0  0  0  0  0
   13.7055   -7.4400    7.0971 O   0  0  0  0  0  0  0  0  0  0  0  0
   14.9027   -8.1999    5.2568 C   0  0  1  0  0  0  0  0  0  0  0  0
   14.8434   -9.3156    4.4043 O   0  0  0  0  0  0  0  0  0  0  0  0
   13.9629   -7.1068    4.7898 C   0  0  1  0  0  0  0  0  0  0  0  0
   13.0586   -7.6903    3.8789 O   0  0  0  0  0  0  0  0  0  0  0  0
   13.2315   -6.6208    6.0429 C   0  0  2  0  0  0  0  0  0  0  0  0
   10.1930   -9.0133   11.6198 O   0  0  0  0  0  0  0  0  0  0  0  0
   17.1871   -3.5034    7.4762 N   0  0  0  0  0  0  0  0  0  0  0  0
   17.2252   -4.8542    7.2291 C   0  0  0  0  0  0  0  0  0  0  0  0
   16.0679   -5.5044    6.8609 N   0  0  0  0  0  0  0  0  0  0  0  0
   14.8995   -4.8358    6.7365 C   0  0  0  0  0  0  0  0  0  0  0  0
   14.8482   -3.4691    6.9691 C   0  0  0  0  0  0  0  0  0  0  0  0
   16.0083   -2.7992    7.3523 C   0  0  0  0  0  0  0  0  0  0  0  0
   15.9980   -1.4875    7.5912 N   0  0  0  0  0  0  0  0  0  0  0  0
   13.5698   -3.0588    6.7658 N   0  0  0  0  0  0  0  0  0  0  0  0
   12.8341   -4.1330    6.3977 C   0  0  0  0  0  0  0  0  0  0  0  0
   13.6447   -5.2410    6.3678 N   0  0  0  0  0  0  0  0  0  0  0  0
  2  1  1  1  0  0  0
  2  3  1  0  0  0  0
  2  5  1  0  0  0  0
  3  4  1  0  0  0  0
  3 17  1  0  0  0  0
  5  6  1  0  0  0  0
  7  6  1  1  0  0  0
  7  8  1  0  0  0  0
  7  9  1  0  0  0  0
 10  9  1  1  0  0  0
 10 11  1  0  0  0  0
 10 12  1  0  0  0  0
 11 16  1  0  0  0  0
 12 13  1  6  0  0  0
 12 14  1  0  0  0  0
 14 15  1  6  0  0  0
 14 16  1  0  0  0  0
 16 27  1  1  0  0  0
 18 19  2  0  0  0  0
 18 23  1  0  0  0  0
 19 20  1  0  0  0  0
 20 21  2  0  0  0  0
 21 22  1  0  0  0  0
 21 27  1  0  0  0  0
 22 23  2  0  0  0  0
 22 25  1  0  0  0  0
 23 24  1  0  0  0  0
 25 26  2  0  0  0  0
 26 27  1  0  0  0  0
M  END
>  <CHROM.1>
37.73958089,-69.57133851,-167.37668375,-97.12725738,-62.24205556,68.59342060
49.34370414,13.99583084,-6.78222894,7.98038508,2.75325619,-1.03011417,-2.91305690

>  <Name>
ligand

>  <RI>
0

>  <Rbt.Current_Directory>
/home/itssahil/PROJECTS/Mol_Feturizer/New_Systems/rnas/3GX5

>  <Rbt.Executable>
rbdock ($Id: //depot/dev/client3/rdock/2013.1/src/exe/rbdock.cxx#4 $)

>  <Rbt.Library>
libRbt.so (2013.1, Build901 2013/11/27)

>  <Rbt.Parameter_File>
/export/apps/rDock/src/rDock_2013.1_src/data/scripts/dock_solv.prm

>  <Rbt.Receptor>
prm/pocket_docking_5.prm

>  <SCORE>
-13.4899

>  <SCORE.INTER>
-14.6664

>  <SCORE.INTER.CONST>
1

>  <SCORE.INTER.POLAR>
0

>  <SCORE.INTER.ROT>
7

>  <SCORE.INTER.SOLV>
19.9035

>  <SCORE.INTER.VDW>
-24.6788

>  <SCORE.INTER.norm>
-0.5432

>  <SCORE.INTRA>
1.17654

>  <SCORE.INTRA.DIHEDRAL>
2.47034

>  <SCORE.INTRA.DIHEDRAL.0>
4.28829

>  <SCORE.INTRA.POLAR>
0

>  <SCORE.INTRA.POLAR.0>
0

>  <SCORE.INTRA.REPUL>
0

>  <SCORE.INTRA.REPUL.0>
0

>  <SCORE.INTRA.SOLV>
-0.476299

>  <SCORE.INTRA.SOLV.lig_0>
-48.6018

>  <SCORE.INTRA.VDW>
0.179522

>  <SCORE.INTRA.VDW.0>
-2.1506

>  <SCORE.INTRA.norm>
0.0435756

>  <SCORE.RESTR>
0

>  <SCORE.RESTR.CAVITY>
0

>  <SCORE.RESTR.norm>
0

>  <SCORE.SYSTEM>
0

>  <SCORE.SYSTEM.CONST>
0

>  <SCORE.SYSTEM.DIHEDRAL>
0

>  <SCORE.SYSTEM.SOLV>
0

>  <SCORE.SYSTEM.norm>
0

>  <SCORE.heavy>
27

>  <SCORE.norm>
-0.499624

>  <RMSD>
2.474

$$$$
ligand
 OpenBabel11021811483D
libRbt.so/2013.1/901 2013/11/27
 27 29  0  0  0  0  0  0  0  0999 V2000
   12.2493   -7.0389   12.4929 N   0  0  0  0  0  0  0  0  0  0  0  0
   11.5363   -7.4253   11.2738 C   0  0  2  0  0  0  0  0  0  0  0  0
   11.1168   -8.8947   11.1872 C   0  0  0  0  0  0  0  0  0  0  0  0
   11.6928   -9.7181   11.8971 O   0  0  0  0  0  0  0  0  0  0  0  0
   12.3178   -7.0194   10.0355 C   0  0  0  0  0  0  0  0  0  0  0  0
   13.6816   -7.6868    9.9921 C   0  0  0  0  0  0  0  0  0  0  0  0
   13.5566   -9.3464    9.3026 S   0  0  2  0  0  0  0  0  0  0  0  0
   14.7341  -10.2144   10.3605 C   0  0  0  0  0  0  0  0  0  0  0  0
   14.5672   -9.1623    7.8148 C   0  0  0  0  0  0  0  0  0  0  0  0
   13.7512   -8.5819    6.6745 C   0  0  1  0  0  0  0  0  0  0  0  0
   13.1892   -7.3440    7.0459 O   0  0  0  0  0  0  0  0  0  0  0  0
   14.5885   -8.2827    5.4465 C   0  0  1  0  0  0  0  0  0  0  0  0
   14.5425   -9.4004    4.5957 O   0  0  0  0  0  0  0  0  0  0  0  0
   13.8889   -7.0929    4.8214 C   0  0  1  0  0  0  0  0  0  0  0  0
   13.0940   -7.5802    3.7637 O   0  0  0  0  0  0  0  0  0  0  0  0
   13.0139   -6.4950    5.9253 C   0  0  2  0  0  0  0  0  0  0  0  0
   10.2274   -9.2952   10.4313 O   0  0  0  0  0  0  0  0  0  0  0  0
   17.2302   -3.7343    7.3466 N   0  0  0  0  0  0  0  0  0  0  0  0
   17.1685   -5.0638    7.0064 C   0  0  0  0  0  0  0  0  0  0  0  0
   15.9544   -5.6145    6.6594 N   0  0  0  0  0  0  0  0  0  0  0  0
   14.8268   -4.8689    6.6456 C   0  0  0  0  0  0  0  0  0  0  0  0
   14.8756   -3.5218    6.9733 C   0  0  0  0  0  0  0  0  0  0  0  0
   16.0945   -2.9527    7.3365 C   0  0  0  0  0  0  0  0  0  0  0  0
   16.1811   -1.6633    7.6644 N   0  0  0  0  0  0  0  0  0  0  0  0
   13.6176   -3.0210    6.8695 N   0  0  0  0  0  0  0  0  0  0  0  0
   12.7964   -4.0194    6.4703 C   0  0  0  0  0  0  0  0  0  0  0  0
   13.5312   -5.1697    6.3201 N   0  0  0  0  0  0  0  0  0  0  0  0
  2  1  1  1  0  0  0
  2  3  1  0  0  0  0
  2  5  1  0  0  0  0
  3  4  1  0  0  0  0
  3 17  1  0  0  0  0
  5  6  1  0  0  0  0
  7  6  1  1  0  0  0
  7  8  1  0  0  0  0
  7  9  1  0  0  0  0
 10  9  1  1  0  0  0
 10 11  1  0  0  0  0
 10 12  1  0  0  0  0
 11 16  1  0  0  0  0
 12 13  1  6  0  0  0
 12 14  1  0  0  0  0
 14 15  1  6  0  0  0
 14 16  1  0  0  0  0
 16 27  1  1  0  0  0
 18 19  2  0  0  0  0
 18 23  1  0  0  0  0
 19 20  1  0  0  0  0
 20 21  2  0  0  0  0
 21 22  1  0  0  0  0
 21 27  1  0  0  0  0
 22 23  2  0  0  0  0
 22 25  1  0  0  0  0
 23 24  1  0  0  0  0
 25 26  2  0  0  0  0
 26 27  1  0  0  0  0
M  END
>  <CHROM.1>
-20.27413743,60.40107657,83.41391533,-141.28079938,-84.22244155,57.01278983
63.81031560,13.79510596,-6.90177957,7.95122577,-3.12476651,-1.12668578,-2.29669842

>  <Name>
ligand

>  <RI>
0

>  <Rbt.Current_Directory>
/home/itssahil/PROJECTS/Mol_Feturizer/New_Systems/rnas/3GX5

>  <Rbt.Executable>
rbdock ($Id: //depot/dev/client3/rdock/2013.1/src/exe/rbdock.cxx#4 $)

>  <Rbt.Library>
libRbt.so (2013.1, Build901 2013/11/27)

>  <Rbt.Parameter_File>
/export/apps/rDock/src/rDock_2013.1_src/data/scripts/dock_solv.prm

>  <Rbt.Receptor>
prm/pocket_docking_6.prm

>  <SCORE>
-16.4264

>  <SCORE.INTER>
-17.2224

>  <SCORE.INTER.CONST>
1

>  <SCORE.INTER.POLAR>
0

>  <SCORE.INTER.ROT>
7

>  <SCORE.INTER.SOLV>
18.6043

>  <SCORE.INTER.VDW>
-25.9497

>  <SCORE.INTER.norm>
-0.637867

>  <SCORE.INTRA>
0.796055

>  <SCORE.INTRA.DIHEDRAL>
5.48819

>  <SCORE.INTRA.DIHEDRAL.0>
4.28829

>  <SCORE.INTRA.POLAR>
0

>  <SCORE.INTRA.POLAR.0>
0

>  <SCORE.INTRA.REPUL>
0

>  <SCORE.INTRA.REPUL.0>
0

>  <SCORE.INTRA.SOLV>
0.25496

>  <SCORE.INTRA.SOLV.lig_0>
-48.6018

>  <SCORE.INTRA.VDW>
-2.07552

>  <SCORE.INTRA.VDW.0>
-2.1506

>  <SCORE.INTRA.norm>
0.0294835

>  <SCORE.RESTR>
0

>  <SCORE.RESTR.CAVITY>
0

>  <SCORE.RESTR.norm>
0

>  <SCORE.SYSTEM>
0

>  <SCORE.SYSTEM.CONST>
0

>  <SCORE.SYSTEM.DIHEDRAL>
0

>  <SCORE.SYSTEM.SOLV>
0

>  <SCORE.SYSTEM.norm>
0

>  <SCORE.heavy>
27

>  <SCORE.norm>
-0.608384

>  <RMSD>
2.514

$$$$
ligand
 OpenBabel11021811483D
libRbt.so/2013.1/901 2013/11/27
 27 29  0  0  0  0  0  0  0  0999 V2000
   16.4026   -9.0903   12.5135 N   0  0  0  0  0  0  0  0  0  0  0  0
   15.5083   -8.7108   11.4181 C   0  0  2  0  0  0  0  0  0  0  0  0
   15.9365   -9.1693   10.0219 C   0  0  0  0  0  0  0  0  0  0  0  0
   15.6990  -10.3269    9.6797 O   0  0  0  0  0  0  0  0  0  0  0  0
   15.2391   -7.2154   11.4296 C   0  0  0  0  0  0  0  0  0  0  0  0
   13.8811   -6.8970   12.0313 C   0  0  0  0  0  0  0  0  0  0  0  0
   12.6543   -6.6454   10.7364 S   0  0  2  0  0  0  0  0  0  0  0  0
   11.1533   -7.0864   11.6374 C   0  0  0  0  0  0  0  0  0  0  0  0
   12.8805   -8.1565    9.7699 C   0  0  0  0  0  0  0  0  0  0  0  0
   12.8213   -7.8617    8.2824 C   0  0  1  0  0  0  0  0  0  0  0  0
   12.4638   -6.5173    8.0565 O   0  0  0  0  0  0  0  0  0  0  0  0
   14.1619   -8.0345    7.5960 C   0  0  1  0  0  0  0  0  0  0  0  0
   14.2364   -9.3442    7.0921 O   0  0  0  0  0  0  0  0  0  0  0  0
   14.1181   -7.0197    6.4716 C   0  0  1  0  0  0  0  0  0  0  0  0
   13.7874   -7.7148    5.2903 O   0  0  0  0  0  0  0  0  0  0  0  0
   13.0126   -6.0296    6.8449 C   0  0  2  0  0  0  0  0  0  0  0  0
   16.5166   -8.4305    9.2216 O   0  0  0  0  0  0  0  0  0  0  0  0
   17.4244   -3.2609    7.3818 N   0  0  0  0  0  0  0  0  0  0  0  0
   17.2961   -4.5819    7.0274 C   0  0  0  0  0  0  0  0  0  0  0  0
   16.0381   -5.1366    6.9401 N   0  0  0  0  0  0  0  0  0  0  0  0
   14.9313   -4.4030    7.1941 C   0  0  0  0  0  0  0  0  0  0  0  0
   15.0443   -3.0642    7.5396 C   0  0  0  0  0  0  0  0  0  0  0  0
   16.3104   -2.4915    7.6421 C   0  0  0  0  0  0  0  0  0  0  0  0
   16.4605   -1.2100    7.9779 N   0  0  0  0  0  0  0  0  0  0  0  0
   13.7918   -2.5745    7.7277 N   0  0  0  0  0  0  0  0  0  0  0  0
   12.9078   -3.5712    7.4913 C   0  0  0  0  0  0  0  0  0  0  0  0
   13.5974   -4.7093    7.1525 N   0  0  0  0  0  0  0  0  0  0  0  0
  2  1  1  1  0  0  0
  2  3  1  0  0  0  0
  2  5  1  0  0  0  0
  3  4  1  0  0  0  0
  3 17  1  0  0  0  0
  5  6  1  0  0  0  0
  7  6  1  1  0  0  0
  7  8  1  0  0  0  0
  7  9  1  0  0  0  0
 10  9  1  1  0  0  0
 10 11  1  0  0  0  0
 10 12  1  0  0  0  0
 11 16  1  0  0  0  0
 12 13  1  6  0  0  0
 12 14  1  0  0  0  0
 14 15  1  6  0  0  0
 14 16  1  0  0  0  0
 16 27  1  1  0  0  0
 18 19  2  0  0  0  0
 18 23  1  0  0  0  0
 19 20  1  0  0  0  0
 20 21  2  0  0  0  0
 21 22  1  0  0  0  0
 21 27  1  0  0  0  0
 22 23  2  0  0  0  0
 22 25  1  0  0  0  0
 23 24  1  0  0  0  0
 25 26  2  0  0  0  0
 26 27  1  0  0  0  0
M  END
>  <CHROM.1>
80.76049538,-101.45664924,-98.10796283,154.05395635,-138.99747601,-6.29628282
109.71883741,14.48589178,-6.38134530,8.71732258,-1.82775721,-0.91012001,-0.76697762

>  <Name>
ligand

>  <RI>
0

>  <Rbt.Current_Directory>
/home/itssahil/PROJECTS/Mol_Feturizer/New_Systems/rnas/3GX5

>  <Rbt.Executable>
rbdock ($Id: //depot/dev/client3/rdock/2013.1/src/exe/rbdock.cxx#4 $)

>  <Rbt.Library>
libRbt.so (2013.1, Build901 2013/11/27)

>  <Rbt.Parameter_File>
/export/apps/rDock/src/rDock_2013.1_src/data/scripts/dock_solv.prm

>  <Rbt.Receptor>
prm/pocket_docking_3.prm

>  <SCORE>
-2.62461

>  <SCORE.INTER>
-11.5114

>  <SCORE.INTER.CONST>
1

>  <SCORE.INTER.POLAR>
0

>  <SCORE.INTER.ROT>
7

>  <SCORE.INTER.SOLV>
16.7928

>  <SCORE.INTER.VDW>
-21.5385

>  <SCORE.INTER.norm>
-0.426348

>  <SCORE.INTRA>
8.88672

>  <SCORE.INTRA.DIHEDRAL>
17.1517

>  <SCORE.INTRA.DIHEDRAL.0>
4.28829

>  <SCORE.INTRA.POLAR>
0

>  <SCORE.INTRA.POLAR.0>
0

>  <SCORE.INTRA.REPUL>
0

>  <SCORE.INTRA.REPUL.0>
0

>  <SCORE.INTRA.SOLV>
-0.298836

>  <SCORE.INTRA.SOLV.lig_0>
-48.6018

>  <SCORE.INTRA.VDW>
0.460275

>  <SCORE.INTRA.VDW.0>
-2.1506

>  <SCORE.INTRA.norm>
0.329138

>  <SCORE.RESTR>
6.41381e-05

>  <SCORE.RESTR.CAVITY>
6.41381e-05

>  <SCORE.RESTR.norm>
2.37549e-06

>  <SCORE.SYSTEM>
0

>  <SCORE.SYSTEM.CONST>
0

>  <SCORE.SYSTEM.DIHEDRAL>
0

>  <SCORE.SYSTEM.SOLV>
0

>  <SCORE.SYSTEM.norm>
0

>  <SCORE.heavy>
27

>  <SCORE.norm>
-0.0972078

>  <RMSD>
2.535

$$$$
ligand
 OpenBabel11021811483D
libRbt.so/2013.1/901 2013/11/27
 27 29  0  0  0  0  0  0  0  0999 V2000
   11.8777   -8.8033   15.7717 N   0  0  0  0  0  0  0  0  0  0  0  0
   12.7895   -8.2119   14.7906 C   0  0  2  0  0  0  0  0  0  0  0  0
   13.7022   -7.1016   15.3169 C   0  0  0  0  0  0  0  0  0  0  0  0
   14.5383   -6.6126   14.5583 O   0  0  0  0  0  0  0  0  0  0  0  0
   12.0326   -7.7420   13.5596 C   0  0  0  0  0  0  0  0  0  0  0  0
   12.9270   -7.7105   12.3322 C   0  0  0  0  0  0  0  0  0  0  0  0
   11.9465   -7.5043   10.8351 S   0  0  2  0  0  0  0  0  0  0  0  0
   11.0682   -9.0815   10.8165 C   0  0  0  0  0  0  0  0  0  0  0  0
   13.1968   -7.8408    9.5732 C   0  0  0  0  0  0  0  0  0  0  0  0
   12.7730   -7.2801    8.2282 C   0  0  1  0  0  0  0  0  0  0  0  0
   12.6459   -5.8780    8.2926 O   0  0  0  0  0  0  0  0  0  0  0  0
   13.7954   -7.5342    7.1380 C   0  0  1  0  0  0  0  0  0  0  0  0
   13.4547   -8.7286    6.4805 O   0  0  0  0  0  0  0  0  0  0  0  0
   13.6365   -6.3410    6.2177 C   0  0  1  0  0  0  0  0  0  0  0  0
   12.8462   -6.7544    5.1257 O   0  0  0  0  0  0  0  0  0  0  0  0
   12.9098   -5.2736    7.0387 C   0  0  2  0  0  0  0  0  0  0  0  0
   13.6424   -6.6756   16.4735 O   0  0  0  0  0  0  0  0  0  0  0  0
   17.8770   -3.6218    7.1699 N   0  0  0  0  0  0  0  0  0  0  0  0
   17.4106   -4.8632    6.8116 C   0  0  0  0  0  0  0  0  0  0  0  0
   16.0554   -5.1084    6.8430 N   0  0  0  0  0  0  0  0  0  0  0  0
   15.1797   -4.1488    7.2168 C   0  0  0  0  0  0  0  0  0  0  0  0
   15.6345   -2.8860    7.5680 C   0  0  0  0  0  0  0  0  0  0  0  0
   17.0032   -2.6258    7.5512 C   0  0  0  0  0  0  0  0  0  0  0  0
   17.4796   -1.4270    7.8882 N   0  0  0  0  0  0  0  0  0  0  0  0
   14.5545   -2.1273    7.8874 N   0  0  0  0  0  0  0  0  0  0  0  0
   13.4439   -2.8832    7.7268 C   0  0  0  0  0  0  0  0  0  0  0  0
   13.8133   -4.1365    7.3047 N   0  0  0  0  0  0  0  0  0  0  0  0
  2  1  1  1  0  0  0
  2  3  1  0  0  0  0
  2  5  1  0  0  0  0
  3  4  1  0  0  0  0
  3 17  1  0  0  0  0
  5  6  1  0  0  0  0
  7  6  1  1  0  0  0
  7  8  1  0  0  0  0
  7  9  1  0  0  0  0
 10  9  1  1  0  0  0
 10 11  1  0  0  0  0
 10 12  1  0  0  0  0
 11 16  1  0  0  0  0
 12 13  1  6  0  0  0
 12 14  1  0  0  0  0
 14 15  1  6  0  0  0
 14 16  1  0  0  0  0
 16 27  1  1  0  0  0
 18 19  2  0  0  0  0
 18 23  1  0  0  0  0
 19 20  1  0  0  0  0
 20 21  2  0  0  0  0
 21 22  1  0  0  0  0
 21 27  1  0  0  0  0
 22 23  2  0  0  0  0
 22 25  1  0  0  0  0
 23 24  1  0  0  0  0
 25 26  2  0  0  0  0
 26 27  1  0  0  0  0
M  END
>  <CHROM.1>
176.30921426,-154.67536711,167.64849536,-67.16642767,-160.48364828,62.39815871
95.28978497,13.85841485,-6.03754200,9.61861428,-2.07481004,-0.87548774,-1.51110230

>  <Name>
ligand

>  <RI>
0

>  <Rbt.Current_Directory>
/home/itssahil/PROJECTS/Mol_Feturizer/New_Systems/rnas/3GX5

>  <Rbt.Executable>
rbdock ($Id: //depot/dev/client3/rdock/2013.1/src/exe/rbdock.cxx#4 $)

>  <Rbt.Library>
libRbt.so (2013.1, Build901 2013/11/27)

>  <Rbt.Parameter_File>
/export/apps/rDock/src/rDock_2013.1_src/data/scripts/dock_solv.prm

>  <Rbt.Receptor>
prm/pocket_docking_6.prm

>  <SCORE>
-13.5493

>  <SCORE.INTER>
-15.5144

>  <SCORE.INTER.CONST>
1

>  <SCORE.INTER.POLAR>
0

>  <SCORE.INTER.ROT>
7

>  <SCORE.INTER.SOLV>
18.0553

>  <SCORE.INTER.VDW>
-24.628

>  <SCORE.INTER.norm>
-0.574607

>  <SCORE.INTRA>
1.96504

>  <SCORE.INTRA.DIHEDRAL>
3.59934

>  <SCORE.INTRA.DIHEDRAL.0>
4.28829

>  <SCORE.INTRA.POLAR>
0

>  <SCORE.INTRA.POLAR.0>
0

>  <SCORE.INTRA.REPUL>
0

>  <SCORE.INTRA.REPUL.0>
0

>  <SCORE.INTRA.SOLV>
-1.27671

>  <SCORE.INTRA.SOLV.lig_0>
-48.6018

>  <SCORE.INTRA.VDW>
0.803724

>  <SCORE.INTRA.VDW.0>
-2.1506

>  <SCORE.INTRA.norm>
0.0727791

>  <SCORE.RESTR>
0

>  <SCORE.RESTR.CAVITY>
0

>  <SCORE.RESTR.norm>
0

>  <SCORE.SYSTEM>
0

>  <SCORE.SYSTEM.CONST>
0

>  <SCORE.SYSTEM.DIHEDRAL>
0

>  <SCORE.SYSTEM.SOLV>
0

>  <SCORE.SYSTEM.norm>
0

>  <SCORE.heavy>
27

>  <SCORE.norm>
-0.501828

>  <RMSD>
2.541

$$$$
ligand
 OpenBabel11021811483D
libRbt.so/2013.1/901 2013/11/27
 27 29  0  0  0  0  0  0  0  0999 V2000
   16.4787   -7.5443   12.5879 N   0  0  0  0  0  0  0  0  0  0  0  0
   15.9460   -8.5282   11.6434 C   0  0  2  0  0  0  0  0  0  0  0  0
   15.6692   -9.9192   12.2189 C   0  0  0  0  0  0  0  0  0  0  0  0
   14.6184  -10.4854   11.9207 O   0  0  0  0  0  0  0  0  0  0  0  0
   16.8252   -8.6269   10.4080 C   0  0  0  0  0  0  0  0  0  0  0  0
   16.1289   -9.3768    9.2854 C   0  0  0  0  0  0  0  0  0  0  0  0
   15.2698   -8.2317    8.1919 S   0  0  2  0  0  0  0  0  0  0  0  0
   14.0473   -7.5613    9.3387 C   0  0  0  0  0  0  0  0  0  0  0  0
   14.2205   -9.3801    7.2705 C   0  0  0  0  0  0  0  0  0  0  0  0
   13.5397   -8.6790    6.1095 C   0  0  1  0  0  0  0  0  0  0  0  0
   12.9892   -7.4501    6.5254 O   0  0  0  0  0  0  0  0  0  0  0  0
   14.5018   -8.3230    4.9932 C   0  0  1  0  0  0  0  0  0  0  0  0
   14.4982   -9.3689    4.0545 O   0  0  0  0  0  0  0  0  0  0  0  0
   13.9088   -7.0594    4.4035 C   0  0  1  0  0  0  0  0  0  0  0  0
   13.2028   -7.4292    3.2404 O   0  0  0  0  0  0  0  0  0  0  0  0
   12.9534   -6.5108    5.4655 C   0  0  2  0  0  0  0  0  0  0  0  0
   16.4517  -10.5000   12.9760 O   0  0  0  0  0  0  0  0  0  0  0  0
   17.1914   -3.9418    7.1561 N   0  0  0  0  0  0  0  0  0  0  0  0
   17.1237   -5.2197    6.6566 C   0  0  0  0  0  0  0  0  0  0  0  0
   15.9045   -5.7247    6.2614 N   0  0  0  0  0  0  0  0  0  0  0  0
   14.7775   -4.9838    6.3545 C   0  0  0  0  0  0  0  0  0  0  0  0
   14.8322   -3.6868    6.8439 C   0  0  0  0  0  0  0  0  0  0  0  0
   16.0564   -3.1656    7.2572 C   0  0  0  0  0  0  0  0  0  0  0  0
   16.1487   -1.9260    7.7392 N   0  0  0  0  0  0  0  0  0  0  0  0
   13.5733   -3.1780    6.8193 N   0  0  0  0  0  0  0  0  0  0  0  0
   12.7457   -4.1207    6.3123 C   0  0  0  0  0  0  0  0  0  0  0  0
   13.4773   -5.2434    6.0124 N   0  0  0  0  0  0  0  0  0  0  0  0
  2  1  1  1  0  0  0
  2  3  1  0  0  0  0
  2  5  1  0  0  0  0
  3  4  1  0  0  0  0
  3 17  1  0  0  0  0
  5  6  1  0  0  0  0
  7  6  1  1  0  0  0
  7  8  1  0  0  0  0
  7  9  1  0  0  0  0
 10  9  1  1  0  0  0
 10 11  1  0  0  0  0
 10 12  1  0  0  0  0
 11 16  1  0  0  0  0
 12 13  1  6  0  0  0
 12 14  1  0  0  0  0
 14 15  1  6  0  0  0
 14 16  1  0  0  0  0
 16 27  1  1  0  0  0
 18 19  2  0  0  0  0
 18 23  1  0  0  0  0
 19 20  1  0  0  0  0
 20 21  2  0  0  0  0
 21 22  1  0  0  0  0
 21 27  1  0  0  0  0
 22 23  2  0  0  0  0
 22 25  1  0  0  0  0
 23 24  1  0  0  0  0
 25 26  2  0  0  0  0
 26 27  1  0  0  0  0
M  END
>  <CHROM.1>
135.93232088,-166.29737189,93.05472324,-64.01119963,-170.90292135,-46.37019928
70.90312992,14.92901566,-7.05465089,7.75134522,-1.04852763,-1.14368609,-0.48194975

>  <Name>
ligand

>  <RI>
0

>  <Rbt.Current_Directory>
/home/itssahil/PROJECTS/Mol_Feturizer/New_Systems/rnas/3GX5

>  <Rbt.Executable>
rbdock ($Id: //depot/dev/client3/rdock/2013.1/src/exe/rbdock.cxx#4 $)

>  <Rbt.Library>
libRbt.so (2013.1, Build901 2013/11/27)

>  <Rbt.Parameter_File>
/export/apps/rDock/src/rDock_2013.1_src/data/scripts/dock_solv.prm

>  <Rbt.Receptor>
prm/pocket_docking_4.prm

>  <SCORE>
-10.8943

>  <SCORE.INTER>
-11.8355

>  <SCORE.INTER.CONST>
1

>  <SCORE.INTER.POLAR>
0

>  <SCORE.INTER.ROT>
7

>  <SCORE.INTER.SOLV>
18.5622

>  <SCORE.INTER.VDW>
-22.3444

>  <SCORE.INTER.norm>
-0.438353

>  <SCORE.INTRA>
0.941224

>  <SCORE.INTRA.DIHEDRAL>
4.54313

>  <SCORE.INTRA.DIHEDRAL.0>
4.28829

>  <SCORE.INTRA.POLAR>
0

>  <SCORE.INTRA.POLAR.0>
0

>  <SCORE.INTRA.REPUL>
0

>  <SCORE.INTRA.REPUL.0>
0

>  <SCORE.INTRA.SOLV>
-0.374958

>  <SCORE.INTRA.SOLV.lig_0>
-48.6018

>  <SCORE.INTRA.VDW>
-1.14286

>  <SCORE.INTRA.VDW.0>
-2.1506

>  <SCORE.INTRA.norm>
0.0348601

>  <SCORE.RESTR>
0

>  <SCORE.RESTR.CAVITY>
0

>  <SCORE.RESTR.norm>
0

>  <SCORE.SYSTEM>
0

>  <SCORE.SYSTEM.CONST>
0

>  <SCORE.SYSTEM.DIHEDRAL>
0

>  <SCORE.SYSTEM.SOLV>
0

>  <SCORE.SYSTEM.norm>
0

>  <SCORE.heavy>
27

>  <SCORE.norm>
-0.403493

>  <RMSD>
2.657

$$$$
ligand
 OpenBabel11021811483D
libRbt.so/2013.1/901 2013/11/27
 27 29  0  0  0  0  0  0  0  0999 V2000
   11.0888  -10.3302   14.3834 N   0  0  0  0  0  0  0  0  0  0  0  0
   12.3569   -9.9027   13.7892 C   0  0  2  0  0  0  0  0  0  0  0  0
   12.8874   -8.5465   14.2604 C   0  0  0  0  0  0  0  0  0  0  0  0
   12.0895   -7.6265   14.4353 O   0  0  0  0  0  0  0  0  0  0  0  0
   12.2899   -9.9518   12.2719 C   0  0  0  0  0  0  0  0  0  0  0  0
   13.6728   -9.8703   11.6488 C   0  0  0  0  0  0  0  0  0  0  0  0
   13.5574   -9.7672    9.8541 S   0  0  2  0  0  0  0  0  0  0  0  0
   15.3079   -9.8570    9.4221 C   0  0  0  0  0  0  0  0  0  0  0  0
   13.2856   -7.9923    9.6427 C   0  0  0  0  0  0  0  0  0  0  0  0
   12.8119   -7.6810    8.2349 C   0  0  1  0  0  0  0  0  0  0  0  0
   12.5509   -6.3034    8.0921 O   0  0  0  0  0  0  0  0  0  0  0  0
   13.8554   -7.9964    7.1814 C   0  0  1  0  0  0  0  0  0  0  0  0
   13.6315   -9.3023    6.7129 O   0  0  0  0  0  0  0  0  0  0  0  0
   13.5840   -6.9742    6.0963 C   0  0  1  0  0  0  0  0  0  0  0  0
   12.8384   -7.6188    5.0881 O   0  0  0  0  0  0  0  0  0  0  0  0
   12.7574   -5.8703    6.7592 C   0  0  2  0  0  0  0  0  0  0  0  0
   14.0843   -8.3298   14.4687 O   0  0  0  0  0  0  0  0  0  0  0  0
   17.1988   -3.6575    8.4310 N   0  0  0  0  0  0  0  0  0  0  0  0
   16.8202   -4.9736    8.5385 C   0  0  0  0  0  0  0  0  0  0  0  0
   15.6003   -5.3669    8.0336 N   0  0  0  0  0  0  0  0  0  0  0  0
   14.7737   -4.4814    7.4334 C   0  0  0  0  0  0  0  0  0  0  0  0
   15.1482   -3.1518    7.3050 C   0  0  0  0  0  0  0  0  0  0  0  0
   16.3746   -2.7366    7.8198 C   0  0  0  0  0  0  0  0  0  0  0  0
   16.7671   -1.4662    7.7220 N   0  0  0  0  0  0  0  0  0  0  0  0
   14.1469   -2.4961    6.6635 N   0  0  0  0  0  0  0  0  0  0  0  0
   13.1714   -3.3892    6.3777 C   0  0  0  0  0  0  0  0  0  0  0  0
   13.5474   -4.6257    6.8417 N   0  0  0  0  0  0  0  0  0  0  0  0
  2  1  1  1  0  0  0
  2  3  1  0  0  0  0
  2  5  1  0  0  0  0
  3  4  1  0  0  0  0
  3 17  1  0  0  0  0
  5  6  1  0  0  0  0
  7  6  1  1  0  0  0
  7  8  1  0  0  0  0
  7  9  1  0  0  0  0
 10  9  1  1  0  0  0
 10 11  1  0  0  0  0
 10 12  1  0  0  0  0
 11 16  1  0  0  0  0
 12 13  1  6  0  0  0
 12 14  1  0  0  0  0
 14 15  1  6  0  0  0
 14 16  1  0  0  0  0
 16 27  1  1  0  0  0
 18 19  2  0  0  0  0
 18 23  1  0  0  0  0
 19 20  1  0  0  0  0
 20 21  2  0  0  0  0
 21 22  1  0  0  0  0
 21 27  1  0  0  0  0
 22 23  2  0  0  0  0
 22 25  1  0  0  0  0
 23 24  1  0  0  0  0
 25 26  2  0  0  0  0
 26 27  1  0  0  0  0
M  END
>  <CHROM.1>
-39.41528856,-165.06745026,-174.43795571,-174.46917051,-165.90856856,177.66377216
57.83084383,13.87893399,-6.91039408,9.24108424,-2.26509789,-1.14609587,-1.47514986

>  <Name>
ligand

>  <RI>
0

>  <Rbt.Current_Directory>
/home/itssahil/PROJECTS/Mol_Feturizer/New_Systems/rnas/3GX5

>  <Rbt.Executable>
rbdock ($Id: //depot/dev/client3/rdock/2013.1/src/exe/rbdock.cxx#4 $)

>  <Rbt.Library>
libRbt.so (2013.1, Build901 2013/11/27)

>  <Rbt.Parameter_File>
/export/apps/rDock/src/rDock_2013.1_src/data/scripts/dock_solv.prm

>  <Rbt.Receptor>
prm/pocket_docking_7.prm

>  <SCORE>
-10.8422

>  <SCORE.INTER>
-10.4878

>  <SCORE.INTER.CONST>
1

>  <SCORE.INTER.POLAR>
0

>  <SCORE.INTER.ROT>
7

>  <SCORE.INTER.SOLV>
16.1621

>  <SCORE.INTER.VDW>
-20.6459

>  <SCORE.INTER.norm>
-0.388436

>  <SCORE.INTRA>
-0.355124

>  <SCORE.INTRA.DIHEDRAL>
1.97689

>  <SCORE.INTRA.DIHEDRAL.0>
4.28829

>  <SCORE.INTRA.POLAR>
0

>  <SCORE.INTRA.POLAR.0>
0

>  <SCORE.INTRA.REPUL>
0

>  <SCORE.INTRA.REPUL.0>
0

>  <SCORE.INTRA.SOLV>
-0.917717

>  <SCORE.INTRA.SOLV.lig_0>
-48.6018

>  <SCORE.INTRA.VDW>
-0.884711

>  <SCORE.INTRA.VDW.0>
-2.1506

>  <SCORE.INTRA.norm>
-0.0131527

>  <SCORE.RESTR>
0.000687265

>  <SCORE.RESTR.CAVITY>
0.000687265

>  <SCORE.RESTR.norm>
2.54543e-05

>  <SCORE.SYSTEM>
0

>  <SCORE.SYSTEM.CONST>
0

>  <SCORE.SYSTEM.DIHEDRAL>
0

>  <SCORE.SYSTEM.SOLV>
0

>  <SCORE.SYSTEM.norm>
0

>  <SCORE.heavy>
27

>  <SCORE.norm>
-0.401563

>  <RMSD>
2.687

$$$$
ligand
 OpenBabel11021811483D
libRbt.so/2013.1/901 2013/11/27
 27 29  0  0  0  0  0  0  0  0999 V2000
   10.8748  -10.4102   14.2557 N   0  0  0  0  0  0  0  0  0  0  0  0
   12.1368   -9.9038   13.7128 C   0  0  2  0  0  0  0  0  0  0  0  0
   12.5353   -8.4957   14.1613 C   0  0  0  0  0  0  0  0  0  0  0  0
   11.6598   -7.6379   14.2679 O   0  0  0  0  0  0  0  0  0  0  0  0
   12.1564  -10.0067   12.1969 C   0  0  0  0  0  0  0  0  0  0  0  0
   13.5636   -9.8569   11.6450 C   0  0  0  0  0  0  0  0  0  0  0  0
   13.5342   -9.7490    9.8470 S   0  0  2  0  0  0  0  0  0  0  0  0
   15.3058   -9.7874    9.5021 C   0  0  0  0  0  0  0  0  0  0  0  0
   13.2229   -7.9816    9.6279 C   0  0  0  0  0  0  0  0  0  0  0  0
   12.7924   -7.6801    8.2042 C   0  0  1  0  0  0  0  0  0  0  0  0
   12.5291   -6.3047    8.0458 O   0  0  0  0  0  0  0  0  0  0  0  0
   13.8704   -7.9955    7.1859 C   0  0  1  0  0  0  0  0  0  0  0  0
   13.6681   -9.3050    6.7176 O   0  0  0  0  0  0  0  0  0  0  0  0
   13.6283   -6.9804    6.0873 C   0  0  1  0  0  0  0  0  0  0  0  0
   12.9183   -7.6342    5.0595 O   0  0  0  0  0  0  0  0  0  0  0  0
   12.7755   -5.8774    6.7178 C   0  0  2  0  0  0  0  0  0  0  0  0
   13.6998   -8.1773   14.4168 O   0  0  0  0  0  0  0  0  0  0  0  0
   17.1983   -3.6551    8.4261 N   0  0  0  0  0  0  0  0  0  0  0  0
   16.8294   -4.9754    8.5147 C   0  0  0  0  0  0  0  0  0  0  0  0
   15.6131   -5.3707    8.0028 N   0  0  0  0  0  0  0  0  0  0  0  0
   14.7806   -4.4831    7.4138 C   0  0  0  0  0  0  0  0  0  0  0  0
   15.1454   -3.1491    7.3044 C   0  0  0  0  0  0  0  0  0  0  0  0
   16.3680   -2.7320    7.8266 C   0  0  0  0  0  0  0  0  0  0  0  0
   16.7512   -1.4575    7.7468 N   0  0  0  0  0  0  0  0  0  0  0  0
   14.1400   -2.4920    6.6707 N   0  0  0  0  0  0  0  0  0  0  0  0
   13.1716   -3.3882    6.3713 C   0  0  0  0  0  0  0  0  0  0  0  0
   13.5561   -4.6282    6.8186 N   0  0  0  0  0  0  0  0  0  0  0  0
  2  1  1  6  0  0  0
  2  3  1  0  0  0  0
  2  5  1  0  0  0  0
  3  4  1  0  0  0  0
  3 17  1  0  0  0  0
  5  6  1  0  0  0  0
  7  6  1  1  0  0  0
  7  8  1  0  0  0  0
  7  9  1  0  0  0  0
 10  9  1  1  0  0  0
 10 11  1  0  0  0  0
 10 12  1  0  0  0  0
 11 16  1  0  0  0  0
 12 13  1  6  0  0  0
 12 14  1  0  0  0  0
 14 15  1  6  0  0  0
 14 16  1  0  0  0  0
 16 27  1  1  0  0  0
 18 19  2  0  0  0  0
 18 23  1  0  0  0  0
 19 20  1  0  0  0  0
 20 21  2  0  0  0  0
 21 22  1  0  0  0  0
 21 27  1  0  0  0  0
 22 23  2  0  0  0  0
 22 25  1  0  0  0  0
 23 24  1  0  0  0  0
 25 26  2  0  0  0  0
 26 27  1  0  0  0  0
M  END
>  <CHROM.1>
-39.04061542,-164.25087051,-172.00538603,-173.39249300,-165.13614058,178.98930427
59.89324675,13.81271033,-6.90358899,9.21332825,-2.39169346,-1.15570807,-1.59463582

>  <Name>
ligand

>  <RI>
0

>  <Rbt.Current_Directory>
/home/itssahil/PROJECTS/Mol_Feturizer/New_Systems/rnas/3GX5

>  <Rbt.Executable>
rbdock ($Id: //depot/dev/client3/rdock/2013.1/src/exe/rbdock.cxx#4 $)

>  <Rbt.Library>
libRbt.so (2013.1, Build901 2013/11/27)

>  <Rbt.Parameter_File>
/export/apps/rDock/src/rDock_2013.1_src/data/scripts/dock_solv.prm

>  <Rbt.Receptor>
prm/pocket_docking_6.prm

>  <SCORE>
-10.746

>  <SCORE.INTER>
-10.5282

>  <SCORE.INTER.CONST>
1

>  <SCORE.INTER.POLAR>
0

>  <SCORE.INTER.ROT>
7

>  <SCORE.INTER.SOLV>
16.5815

>  <SCORE.INTER.VDW>
-20.8126

>  <SCORE.INTER.norm>
-0.389933

>  <SCORE.INTRA>
-0.217798

>  <SCORE.INTRA.DIHEDRAL>
2.32361

>  <SCORE.INTRA.DIHEDRAL.0>
4.28829

>  <SCORE.INTRA.POLAR>
0

>  <SCORE.INTRA.POLAR.0>
0

>  <SCORE.INTRA.REPUL>
0

>  <SCORE.INTRA.REPUL.0>
0

>  <SCORE.INTRA.SOLV>
-0.91701

>  <SCORE.INTRA.SOLV.lig_0>
-48.6018

>  <SCORE.INTRA.VDW>
-0.921099

>  <SCORE.INTRA.VDW.0>
-2.1506

>  <SCORE.INTRA.norm>
-0.0080666

>  <SCORE.RESTR>
0

>  <SCORE.RESTR.CAVITY>
0

>  <SCORE.RESTR.norm>
0

>  <SCORE.SYSTEM>
0

>  <SCORE.SYSTEM.CONST>
0

>  <SCORE.SYSTEM.DIHEDRAL>
0

>  <SCORE.SYSTEM.SOLV>
0

>  <SCORE.SYSTEM.norm>
0

>  <SCORE.heavy>
27

>  <SCORE.norm>
-0.398

>  <RMSD>
2.726

$$$$
ligand
 OpenBabel11021811483D
libRbt.so/2013.1/901 2013/11/27
 27 29  0  0  0  0  0  0  0  0999 V2000
   15.9862   -9.6031   12.7160 N   0  0  0  0  0  0  0  0  0  0  0  0
   14.5750   -9.2456   12.5598 C   0  0  2  0  0  0  0  0  0  0  0  0
   13.6286  -10.4035   12.2333 C   0  0  0  0  0  0  0  0  0  0  0  0
   13.9467  -11.1971   11.3487 O   0  0  0  0  0  0  0  0  0  0  0  0
   14.4078   -8.1196   11.5533 C   0  0  0  0  0  0  0  0  0  0  0  0
   14.7471   -8.5748   10.1444 C   0  0  0  0  0  0  0  0  0  0  0  0
   13.3707   -8.2612    9.0253 S   0  0  2  0  0  0  0  0  0  0  0  0
   12.2151   -9.5292    9.5874 C   0  0  0  0  0  0  0  0  0  0  0  0
   13.9815   -9.0559    7.5206 C   0  0  0  0  0  0  0  0  0  0  0  0
   13.3889   -8.4038    6.2851 C   0  0  1  0  0  0  0  0  0  0  0  0
   12.8616   -7.1348    6.5979 O   0  0  0  0  0  0  0  0  0  0  0  0
   14.4211   -8.1470    5.2048 C   0  0  1  0  0  0  0  0  0  0  0  0
   14.4297   -9.2466    4.3297 O   0  0  0  0  0  0  0  0  0  0  0  0
   13.9060   -6.9023    4.5108 C   0  0  1  0  0  0  0  0  0  0  0  0
   13.2499   -7.3179    3.3340 O   0  0  0  0  0  0  0  0  0  0  0  0
   12.9159   -6.2601    5.4848 C   0  0  2  0  0  0  0  0  0  0  0  0
   12.5539  -10.5760   12.8147 O   0  0  0  0  0  0  0  0  0  0  0  0
   17.1325   -3.7508    7.3129 N   0  0  0  0  0  0  0  0  0  0  0  0
   17.0440   -5.0561    6.8940 C   0  0  0  0  0  0  0  0  0  0  0  0
   15.8348   -5.5384    6.4436 N   0  0  0  0  0  0  0  0  0  0  0  0
   14.7379   -4.7491    6.4047 C   0  0  0  0  0  0  0  0  0  0  0  0
   14.8150   -3.4250    6.8114 C   0  0  0  0  0  0  0  0  0  0  0  0
   16.0286   -2.9254    7.2791 C   0  0  0  0  0  0  0  0  0  0  0  0
   16.1412   -1.6604    7.6849 N   0  0  0  0  0  0  0  0  0  0  0  0
   13.5848   -2.8698    6.6609 N   0  0  0  0  0  0  0  0  0  0  0  0
   12.7545   -3.8115    6.1566 C   0  0  0  0  0  0  0  0  0  0  0  0
   13.4551   -4.9799    5.9852 N   0  0  0  0  0  0  0  0  0  0  0  0
  2  1  1  6  0  0  0
  2  3  1  0  0  0  0
  2  5  1  0  0  0  0
  3  4  1  0  0  0  0
  3 17  1  0  0  0  0
  5  6  1  0  0  0  0
  7  6  1  1  0  0  0
  7  8  1  0  0  0  0
  7  9  1  0  0  0  0
 10  9  1  1  0  0  0
 10 11  1  0  0  0  0
 10 12  1  0  0  0  0
 11 16  1  0  0  0  0
 12 13  1  6  0  0  0
 12 14  1  0  0  0  0
 14 15  1  6  0  0  0
 14 16  1  0  0  0  0
 16 27  1  1  0  0  0
 18 19  2  0  0  0  0
 18 23  1  0  0  0  0
 19 20  1  0  0  0  0
 20 21  2  0  0  0  0
 21 22  1  0  0  0  0
 21 27  1  0  0  0  0
 22 23  2  0  0  0  0
 22 25  1  0  0  0  0
 23 24  1  0  0  0  0
 25 26  2  0  0  0  0
 26 27  1  0  0  0  0
M  END
>  <CHROM.1>
-46.95741151,68.30443855,124.64916960,-72.14274638,-152.38380962,17.75966815
69.68251559,14.21868230,-7.08721382,7.95843961,-1.82843439,-1.13770119,-1.04792616

>  <Name>
ligand

>  <RI>
0

>  <Rbt.Current_Directory>
/home/itssahil/PROJECTS/Mol_Feturizer/New_Systems/rnas/3GX5

>  <Rbt.Executable>
rbdock ($Id: //depot/dev/client3/rdock/2013.1/src/exe/rbdock.cxx#4 $)

>  <Rbt.Library>
libRbt.so (2013.1, Build901 2013/11/27)

>  <Rbt.Parameter_File>
/export/apps/rDock/src/rDock_2013.1_src/data/scripts/dock_solv.prm

>  <Rbt.Receptor>
prm/pocket_docking_2.prm

>  <SCORE>
-5.12594

>  <SCORE.INTER>
-12.6473

>  <SCORE.INTER.CONST>
1

>  <SCORE.INTER.POLAR>
0

>  <SCORE.INTER.ROT>
7

>  <SCORE.INTER.SOLV>
18.1416

>  <SCORE.INTER.VDW>
-22.7454

>  <SCORE.INTER.norm>
-0.468419

>  <SCORE.INTRA>
6.05765

>  <SCORE.INTRA.DIHEDRAL>
11.8386

>  <SCORE.INTRA.DIHEDRAL.0>
4.28829

>  <SCORE.INTRA.POLAR>
0

>  <SCORE.INTRA.POLAR.0>
0

>  <SCORE.INTRA.REPUL>
0

>  <SCORE.INTRA.REPUL.0>
0

>  <SCORE.INTRA.SOLV>
-0.517743

>  <SCORE.INTRA.SOLV.lig_0>
-48.6018

>  <SCORE.INTRA.VDW>
0.397239

>  <SCORE.INTRA.VDW.0>
-2.1506

>  <SCORE.INTRA.norm>
0.224357

>  <SCORE.RESTR>
1.46371

>  <SCORE.RESTR.CAVITY>
1.46371

>  <SCORE.RESTR.norm>
0.0542115

>  <SCORE.SYSTEM>
0

>  <SCORE.SYSTEM.CONST>
0

>  <SCORE.SYSTEM.DIHEDRAL>
0

>  <SCORE.SYSTEM.SOLV>
0

>  <SCORE.SYSTEM.norm>
0

>  <SCORE.heavy>
27

>  <SCORE.norm>
-0.18985

>  <RMSD>
2.746

$$$$
ligand
 OpenBabel11021811483D
libRbt.so/2013.1/901 2013/11/27
 27 29  0  0  0  0  0  0  0  0999 V2000
   15.2106   -9.7299   13.1799 N   0  0  0  0  0  0  0  0  0  0  0  0
   14.0342   -9.5527   12.3263 C   0  0  2  0  0  0  0  0  0  0  0  0
   13.7309  -10.7051   11.3657 C   0  0  0  0  0  0  0  0  0  0  0  0
   12.6773  -11.3262   11.4995 O   0  0  0  0  0  0  0  0  0  0  0  0
   14.1025   -8.2344   11.5738 C   0  0  0  0  0  0  0  0  0  0  0  0
   15.3934   -8.1087   10.7832 C   0  0  0  0  0  0  0  0  0  0  0  0
   15.0927   -7.3127    9.1954 S   0  0  2  0  0  0  0  0  0  0  0  0
   14.0950   -5.9077    9.7336 C   0  0  0  0  0  0  0  0  0  0  0  0
   13.7865   -8.3748    8.5363 C   0  0  0  0  0  0  0  0  0  0  0  0
   13.3577   -7.9125    7.1560 C   0  0  1  0  0  0  0  0  0  0  0  0
   12.9090   -6.5771    7.1968 O   0  0  0  0  0  0  0  0  0  0  0  0
   14.4969   -7.9158    6.1557 C   0  0  1  0  0  0  0  0  0  0  0  0
   14.4929   -9.1499    5.4835 O   0  0  0  0  0  0  0  0  0  0  0  0
   14.1457   -6.7814    5.2145 C   0  0  1  0  0  0  0  0  0  0  0  0
   13.5629   -7.3537    4.0652 O   0  0  0  0  0  0  0  0  0  0  0  0
   13.1298   -5.9162    5.9633 C   0  0  2  0  0  0  0  0  0  0  0  0
   14.4996  -11.0458   10.4626 O   0  0  0  0  0  0  0  0  0  0  0  0
   17.3176   -3.4096    7.8599 N   0  0  0  0  0  0  0  0  0  0  0  0
   17.1559   -4.7614    7.6760 C   0  0  0  0  0  0  0  0  0  0  0  0
   15.9687   -5.2337    7.1611 N   0  0  0  0  0  0  0  0  0  0  0  0
   14.9645   -4.3905    6.8323 C   0  0  0  0  0  0  0  0  0  0  0  0
   15.1182   -3.0219    6.9992 C   0  0  0  0  0  0  0  0  0  0  0  0
   16.3093   -2.5296    7.5286 C   0  0  0  0  0  0  0  0  0  0  0  0
   16.4926   -1.2215    7.7102 N   0  0  0  0  0  0  0  0  0  0  0  0
   13.9733   -2.4197    6.5860 N   0  0  0  0  0  0  0  0  0  0  0  0
   13.1232   -3.3791    6.1529 C   0  0  0  0  0  0  0  0  0  0  0  0
   13.7249   -4.6056    6.2920 N   0  0  0  0  0  0  0  0  0  0  0  0
  2  1  1  6  0  0  0
  2  3  1  0  0  0  0
  2  5  1  0  0  0  0
  3  4  1  0  0  0  0
  3 17  1  0  0  0  0
  5  6  1  0  0  0  0
  7  6  1  1  0  0  0
  7  8  1  0  0  0  0
  7  9  1  0  0  0  0
 10  9  1  1  0  0  0
 10 11  1  0  0  0  0
 10 12  1  0  0  0  0
 11 16  1  0  0  0  0
 12 13  1  6  0  0  0
 12 14  1  0  0  0  0
 14 15  1  6  0  0  0
 14 16  1  0  0  0  0
 16 27  1  1  0  0  0
 18 19  2  0  0  0  0
 18 23  1  0  0  0  0
 19 20  1  0  0  0  0
 20 21  2  0  0  0  0
 21 22  1  0  0  0  0
 21 27  1  0  0  0  0
 22 23  2  0  0  0  0
 22 25  1  0  0  0  0
 23 24  1  0  0  0  0
 25 26  2  0  0  0  0
 26 27  1  0  0  0  0
M  END
>  <CHROM.1>
116.68196069,54.77296755,141.67305594,47.56047104,-179.23422821,-58.03333602
67.41741047,14.54411961,-6.68993509,8.23730828,-1.86098724,-1.11884443,-0.89346888

>  <Name>
ligand

>  <RI>
0

>  <Rbt.Current_Directory>
/home/itssahil/PROJECTS/Mol_Feturizer/New_Systems/rnas/3GX5

>  <Rbt.Executable>
rbdock ($Id: //depot/dev/client3/rdock/2013.1/src/exe/rbdock.cxx#4 $)

>  <Rbt.Library>
libRbt.so (2013.1, Build901 2013/11/27)

>  <Rbt.Parameter_File>
/export/apps/rDock/src/rDock_2013.1_src/data/scripts/dock_solv.prm

>  <Rbt.Receptor>
prm/pocket_docking_2.prm

>  <SCORE>
-5.99283

>  <SCORE.INTER>
-9.36311

>  <SCORE.INTER.CONST>
1

>  <SCORE.INTER.POLAR>
0

>  <SCORE.INTER.ROT>
7

>  <SCORE.INTER.SOLV>
17.0763

>  <SCORE.INTER.VDW>
-20.2009

>  <SCORE.INTER.norm>
-0.346782

>  <SCORE.INTRA>
2.2911

>  <SCORE.INTRA.DIHEDRAL>
3.49917

>  <SCORE.INTRA.DIHEDRAL.0>
4.28829

>  <SCORE.INTRA.POLAR>
0

>  <SCORE.INTRA.POLAR.0>
0

>  <SCORE.INTRA.REPUL>
0

>  <SCORE.INTRA.REPUL.0>
0

>  <SCORE.INTRA.SOLV>
-0.208648

>  <SCORE.INTRA.SOLV.lig_0>
-48.6018

>  <SCORE.INTRA.VDW>
0.64584

>  <SCORE.INTRA.VDW.0>
-2.1506

>  <SCORE.INTRA.norm>
0.0848556

>  <SCORE.RESTR>
1.07918

>  <SCORE.RESTR.CAVITY>
1.07918

>  <SCORE.RESTR.norm>
0.0399698

>  <SCORE.SYSTEM>
0

>  <SCORE.SYSTEM.CONST>
0

>  <SCORE.SYSTEM.DIHEDRAL>
0

>  <SCORE.SYSTEM.SOLV>
0

>  <SCORE.SYSTEM.norm>
0

>  <SCORE.heavy>
27

>  <SCORE.norm>
-0.221956

>  <RMSD>
2.886

$$$$
ligand
 OpenBabel11021811483D
libRbt.so/2013.1/901 2013/11/27
 27 29  0  0  0  0  0  0  0  0999 V2000
   14.8425   -9.8641   13.1483 N   0  0  0  0  0  0  0  0  0  0  0  0
   15.9962  -10.2536   12.3353 C   0  0  2  0  0  0  0  0  0  0  0  0
   17.3486  -10.2406   13.0521 C   0  0  0  0  0  0  0  0  0  0  0  0
   17.4214   -9.7336   14.1707 O   0  0  0  0  0  0  0  0  0  0  0  0
   16.0616   -9.4347   11.0571 C   0  0  0  0  0  0  0  0  0  0  0  0
   14.8726   -9.7132   10.1538 C   0  0  0  0  0  0  0  0  0  0  0  0
   14.9526   -8.7009    8.6658 S   0  0  2  0  0  0  0  0  0  0  0  0
   14.3157   -7.1410    9.3139 C   0  0  0  0  0  0  0  0  0  0  0  0
   13.4831   -9.2857    7.7899 C   0  0  0  0  0  0  0  0  0  0  0  0
   13.4125   -8.6925    6.3948 C   0  0  1  0  0  0  0  0  0  0  0  0
   13.0596   -7.3293    6.4523 O   0  0  0  0  0  0  0  0  0  0  0  0
   14.7464   -8.7249    5.6751 C   0  0  1  0  0  0  0  0  0  0  0  0
   14.8102   -9.9040    4.9130 O   0  0  0  0  0  0  0  0  0  0  0  0
   14.6977   -7.5013    4.7826 C   0  0  1  0  0  0  0  0  0  0  0  0
   14.3535   -7.9389    3.4872 O   0  0  0  0  0  0  0  0  0  0  0  0
   13.6002   -6.6055    5.3610 C   0  0  2  0  0  0  0  0  0  0  0  0
   18.3755  -10.7119   12.5560 O   0  0  0  0  0  0  0  0  0  0  0  0
   17.9204   -4.3792    7.3099 N   0  0  0  0  0  0  0  0  0  0  0  0
   17.7760   -5.6557    6.8232 C   0  0  0  0  0  0  0  0  0  0  0  0
   16.5472   -6.0612    6.3506 N   0  0  0  0  0  0  0  0  0  0  0  0
   15.4854   -5.2246    6.3554 C   0  0  0  0  0  0  0  0  0  0  0  0
   15.6192   -3.9282    6.8308 C   0  0  0  0  0  0  0  0  0  0  0  0
   16.8531   -3.5066    7.3218 C   0  0  0  0  0  0  0  0  0  0  0  0
   17.0199   -2.2706    7.7933 N   0  0  0  0  0  0  0  0  0  0  0  0
   14.4141   -3.3136    6.7122 N   0  0  0  0  0  0  0  0  0  0  0  0
   13.5441   -4.1909    6.1607 C   0  0  0  0  0  0  0  0  0  0  0  0
   14.1939   -5.3777    5.9269 N   0  0  0  0  0  0  0  0  0  0  0  0
  2  1  1  1  0  0  0
  2  3  1  0  0  0  0
  2  5  1  0  0  0  0
  3  4  1  0  0  0  0
  3 17  1  0  0  0  0
  5  6  1  0  0  0  0
  7  6  1  1  0  0  0
  7  8  1  0  0  0  0
  7  9  1  0  0  0  0
 10  9  1  1  0  0  0
 10 11  1  0  0  0  0
 10 12  1  0  0  0  0
 11 16  1  0  0  0  0
 12 13  1  6  0  0  0
 12 14  1  0  0  0  0
 14 15  1  6  0  0  0
 14 16  1  0  0  0  0
 16 27  1  1  0  0  0
 18 19  2  0  0  0  0
 18 23  1  0  0  0  0
 19 20  1  0  0  0  0
 20 21  2  0  0  0  0
 21 22  1  0  0  0  0
 21 27  1  0  0  0  0
 22 23  2  0  0  0  0
 22 25  1  0  0  0  0
 23 24  1  0  0  0  0
 25 26  2  0  0  0  0
 26 27  1  0  0  0  0
M  END
>  <CHROM.1>
-10.32275124,-64.83245769,178.59443553,-80.18403809,-173.07856781,-73.06111260
90.62339139,15.36872545,-7.40360695,8.09587625,1.20860299,1.00910784,2.47969905

>  <Name>
ligand

>  <RI>
0

>  <Rbt.Current_Directory>
/home/itssahil/PROJECTS/Mol_Feturizer/New_Systems/rnas/3GX5

>  <Rbt.Executable>
rbdock ($Id: //depot/dev/client3/rdock/2013.1/src/exe/rbdock.cxx#4 $)

>  <Rbt.Library>
libRbt.so (2013.1, Build901 2013/11/27)

>  <Rbt.Parameter_File>
/export/apps/rDock/src/rDock_2013.1_src/data/scripts/dock_solv.prm

>  <Rbt.Receptor>
prm/pocket_docking_6.prm

>  <SCORE>
-12.7751

>  <SCORE.INTER>
-12.5554

>  <SCORE.INTER.CONST>
1

>  <SCORE.INTER.POLAR>
0

>  <SCORE.INTER.ROT>
7

>  <SCORE.INTER.SOLV>
16.1593

>  <SCORE.INTER.VDW>
-22.0234

>  <SCORE.INTER.norm>
-0.465016

>  <SCORE.INTRA>
-0.219634

>  <SCORE.INTRA.DIHEDRAL>
0.830596

>  <SCORE.INTRA.DIHEDRAL.0>
4.28829

>  <SCORE.INTRA.POLAR>
0

>  <SCORE.INTRA.POLAR.0>
0

>  <SCORE.INTRA.REPUL>
0

>  <SCORE.INTRA.REPUL.0>
0

>  <SCORE.INTRA.SOLV>
-0.277451

>  <SCORE.INTRA.SOLV.lig_0>
-48.6018

>  <SCORE.INTRA.VDW>
-0.496207

>  <SCORE.INTRA.VDW.0>
-2.1506

>  <SCORE.INTRA.norm>
-0.00813461

>  <SCORE.RESTR>
0

>  <SCORE.RESTR.CAVITY>
0

>  <SCORE.RESTR.norm>
0

>  <SCORE.SYSTEM>
0

>  <SCORE.SYSTEM.CONST>
0

>  <SCORE.SYSTEM.DIHEDRAL>
0

>  <SCORE.SYSTEM.SOLV>
0

>  <SCORE.SYSTEM.norm>
0

>  <SCORE.heavy>
27

>  <SCORE.norm>
-0.47315

>  <RMSD>
2.887

$$$$
ligand
 OpenBabel11021811483D
libRbt.so/2013.1/901 2013/11/27
 27 29  0  0  0  0  0  0  0  0999 V2000
   13.9676   -8.7958   13.6916 N   0  0  0  0  0  0  0  0  0  0  0  0
   13.8448   -9.5841   12.4638 C   0  0  2  0  0  0  0  0  0  0  0  0
   13.2280  -10.9754   12.6267 C   0  0  0  0  0  0  0  0  0  0  0  0
   12.3752  -11.3436   11.8199 O   0  0  0  0  0  0  0  0  0  0  0  0
   15.1774   -9.6725   11.7392 C   0  0  0  0  0  0  0  0  0  0  0  0
   15.0018  -10.1264   10.3002 C   0  0  0  0  0  0  0  0  0  0  0  0
   14.1590   -8.8622    9.3323 S   0  0  2  0  0  0  0  0  0  0  0  0
   12.5121   -9.5943    9.2276 C   0  0  0  0  0  0  0  0  0  0  0  0
   14.7688   -9.2540    7.6760 C   0  0  0  0  0  0  0  0  0  0  0  0
   13.8718   -8.6492    6.6117 C   0  0  1  0  0  0  0  0  0  0  0  0
   13.3341   -7.4237    7.0534 O   0  0  0  0  0  0  0  0  0  0  0  0
   14.6185   -8.3156    5.3352 C   0  0  1  0  0  0  0  0  0  0  0  0
   14.5152   -9.4118    4.4619 O   0  0  0  0  0  0  0  0  0  0  0  0
   13.8725   -7.1138    4.7918 C   0  0  1  0  0  0  0  0  0  0  0  0
   13.0057   -7.5784    3.7814 O   0  0  0  0  0  0  0  0  0  0  0  0
   13.0768   -6.5479    5.9699 C   0  0  2  0  0  0  0  0  0  0  0  0
   13.5432  -11.7468   13.5369 O   0  0  0  0  0  0  0  0  0  0  0  0
   17.3452   -3.8502    7.3559 N   0  0  0  0  0  0  0  0  0  0  0  0
   17.2609   -5.1786    7.0164 C   0  0  0  0  0  0  0  0  0  0  0  0
   16.0359   -5.7112    6.6795 N   0  0  0  0  0  0  0  0  0  0  0  0
   14.9195   -4.9489    6.6749 C   0  0  0  0  0  0  0  0  0  0  0  0
   14.9911   -3.6026    7.0019 C   0  0  0  0  0  0  0  0  0  0  0  0
   16.2212   -3.0517    7.3549 C   0  0  0  0  0  0  0  0  0  0  0  0
   16.3297   -1.7637    7.6818 N   0  0  0  0  0  0  0  0  0  0  0  0
   13.7398   -3.0832    6.9083 N   0  0  0  0  0  0  0  0  0  0  0  0
   12.9006   -4.0693    6.5162 C   0  0  0  0  0  0  0  0  0  0  0  0
   13.6169   -5.2304    6.3602 N   0  0  0  0  0  0  0  0  0  0  0  0
  2  1  1  1  0  0  0
  2  3  1  0  0  0  0
  2  5  1  0  0  0  0
  3  4  1  0  0  0  0
  3 17  1  0  0  0  0
  5  6  1  0  0  0  0
  7  6  1  1  0  0  0
  7  8  1  0  0  0  0
  7  9  1  0  0  0  0
 10  9  1  1  0  0  0
 10 11  1  0  0  0  0
 10 12  1  0  0  0  0
 11 16  1  0  0  0  0
 12 13  1  6  0  0  0
 12 14  1  0  0  0  0
 14 15  1  6  0  0  0
 14 16  1  0  0  0  0
 16 27  1  1  0  0  0
 18 19  2  0  0  0  0
 18 23  1  0  0  0  0
 19 20  1  0  0  0  0
 20 21  2  0  0  0  0
 21 22  1  0  0  0  0
 21 27  1  0  0  0  0
 22 23  2  0  0  0  0
 22 25  1  0  0  0  0
 23 24  1  0  0  0  0
 25 26  2  0  0  0  0
 26 27  1  0  0  0  0
M  END
>  <CHROM.1>
135.19243537,-163.66519489,68.07172523,-103.83781436,160.89303022,33.39773725
59.76868563,14.32786102,-7.42873070,8.22726517,-2.00866875,-1.18604350,-1.18954023

>  <Name>
ligand

>  <RI>
0

>  <Rbt.Current_Directory>
/home/itssahil/PROJECTS/Mol_Feturizer/New_Systems/rnas/3GX5

>  <Rbt.Executable>
rbdock ($Id: //depot/dev/client3/rdock/2013.1/src/exe/rbdock.cxx#4 $)

>  <Rbt.Library>
libRbt.so (2013.1, Build901 2013/11/27)

>  <Rbt.Parameter_File>
/export/apps/rDock/src/rDock_2013.1_src/data/scripts/dock_solv.prm

>  <Rbt.Receptor>
prm/pocket_docking_5.prm

>  <SCORE>
-14.157

>  <SCORE.INTER>
-15.975

>  <SCORE.INTER.CONST>
1

>  <SCORE.INTER.POLAR>
0

>  <SCORE.INTER.ROT>
7

>  <SCORE.INTER.SOLV>
15.5569

>  <SCORE.INTER.VDW>
-24.1023

>  <SCORE.INTER.norm>
-0.591665

>  <SCORE.INTRA>
1.81797

>  <SCORE.INTRA.DIHEDRAL>
5.35961

>  <SCORE.INTRA.DIHEDRAL.0>
4.28829

>  <SCORE.INTRA.POLAR>
0

>  <SCORE.INTRA.POLAR.0>
0

>  <SCORE.INTRA.REPUL>
0

>  <SCORE.INTRA.REPUL.0>
0

>  <SCORE.INTRA.SOLV>
-0.858656

>  <SCORE.INTRA.SOLV.lig_0>
-48.6018

>  <SCORE.INTRA.VDW>
-0.432507

>  <SCORE.INTRA.VDW.0>
-2.1506

>  <SCORE.INTRA.norm>
0.0673322

>  <SCORE.RESTR>
0

>  <SCORE.RESTR.CAVITY>
0

>  <SCORE.RESTR.norm>
0

>  <SCORE.SYSTEM>
0

>  <SCORE.SYSTEM.CONST>
0

>  <SCORE.SYSTEM.DIHEDRAL>
0

>  <SCORE.SYSTEM.SOLV>
0

>  <SCORE.SYSTEM.norm>
0

>  <SCORE.heavy>
27

>  <SCORE.norm>
-0.524333

>  <RMSD>
2.939

$$$$
ligand
 OpenBabel11021811483D
libRbt.so/2013.1/901 2013/11/27
 27 29  0  0  0  0  0  0  0  0999 V2000
   13.0648   -8.5117   15.4020 N   0  0  0  0  0  0  0  0  0  0  0  0
   11.9992   -7.5283   15.1991 C   0  0  2  0  0  0  0  0  0  0  0  0
   10.9044   -7.5050   16.2685 C   0  0  0  0  0  0  0  0  0  0  0  0
    9.9681   -6.7171   16.1408 O   0  0  0  0  0  0  0  0  0  0  0  0
   11.3895   -7.6655   13.8140 C   0  0  0  0  0  0  0  0  0  0  0  0
   12.4386   -7.5204   12.7251 C   0  0  0  0  0  0  0  0  0  0  0  0
   11.6635   -7.4402   11.1010 S   0  0  2  0  0  0  0  0  0  0  0  0
   10.9521   -9.0971   11.0116 C   0  0  0  0  0  0  0  0  0  0  0  0
   13.1054   -7.6736   10.0356 C   0  0  0  0  0  0  0  0  0  0  0  0
   12.7742   -7.3337    8.5941 C   0  0  1  0  0  0  0  0  0  0  0  0
   12.5898   -5.9449    8.4412 O   0  0  0  0  0  0  0  0  0  0  0  0
   13.8925   -7.6915    7.6350 C   0  0  1  0  0  0  0  0  0  0  0  0
   13.6525   -8.9833    7.1365 O   0  0  0  0  0  0  0  0  0  0  0  0
   13.7660   -6.6524    6.5394 C   0  0  1  0  0  0  0  0  0  0  0  0
   13.0852   -7.2570    5.4629 O   0  0  0  0  0  0  0  0  0  0  0  0
   12.9342   -5.5150    7.1360 C   0  0  2  0  0  0  0  0  0  0  0  0
   10.9196   -8.2389   17.2604 O   0  0  0  0  0  0  0  0  0  0  0  0
   17.8074   -3.6098    7.3364 N   0  0  0  0  0  0  0  0  0  0  0  0
   17.4186   -4.9096    7.1206 C   0  0  0  0  0  0  0  0  0  0  0  0
   16.0759   -5.2171    7.1049 N   0  0  0  0  0  0  0  0  0  0  0  0
   15.1377   -4.2626    7.2950 C   0  0  0  0  0  0  0  0  0  0  0  0
   15.5145   -2.9433    7.5001 C   0  0  0  0  0  0  0  0  0  0  0  0
   16.8690   -2.6182    7.5290 C   0  0  0  0  0  0  0  0  0  0  0  0
   17.2711   -1.3630    7.7301 N   0  0  0  0  0  0  0  0  0  0  0  0
   14.3847   -2.2051    7.6512 N   0  0  0  0  0  0  0  0  0  0  0  0
   13.3201   -3.0310    7.5283 C   0  0  0  0  0  0  0  0  0  0  0  0
   13.7692   -4.3084    7.3001 N   0  0  0  0  0  0  0  0  0  0  0  0
  2  1  1  1  0  0  0
  2  3  1  0  0  0  0
  2  5  1  0  0  0  0
  3  4  1  0  0  0  0
  3 17  1  0  0  0  0
  5  6  1  0  0  0  0
  7  6  1  1  0  0  0
  7  8  1  0  0  0  0
  7  9  1  0  0  0  0
 10  9  1  1  0  0  0
 10 11  1  0  0  0  0
 10 12  1  0  0  0  0
 11 16  1  0  0  0  0
 12 13  1  6  0  0  0
 12 14  1  0  0  0  0
 14 15  1  6  0  0  0
 14 16  1  0  0  0  0
 16 27  1  1  0  0  0
 18 19  2  0  0  0  0
 18 23  1  0  0  0  0
 19 20  1  0  0  0  0
 20 21  2  0  0  0  0
 21 22  1  0  0  0  0
 21 27  1  0  0  0  0
 22 23  2  0  0  0  0
 22 25  1  0  0  0  0
 23 24  1  0  0  0  0
 25 26  2  0  0  0  0
 26 27  1  0  0  0  0
M  END
>  <CHROM.1>
-178.66768373,-57.18812888,-171.54974531,-65.25586272,-167.05515265,70.39812503
96.60462184,13.41240851,-6.14518741,9.90821322,-2.41449729,-0.95467903,-1.87863956

>  <Name>
ligand

>  <RI>
0

>  <Rbt.Current_Directory>
/home/itssahil/PROJECTS/Mol_Feturizer/New_Systems/rnas/3GX5

>  <Rbt.Executable>
rbdock ($Id: //depot/dev/client3/rdock/2013.1/src/exe/rbdock.cxx#4 $)

>  <Rbt.Library>
libRbt.so (2013.1, Build901 2013/11/27)

>  <Rbt.Parameter_File>
/export/apps/rDock/src/rDock_2013.1_src/data/scripts/dock_solv.prm

>  <Rbt.Receptor>
prm/pocket_docking_8.prm

>  <SCORE>
-13.5896

>  <SCORE.INTER>
-14.805

>  <SCORE.INTER.CONST>
1

>  <SCORE.INTER.POLAR>
0

>  <SCORE.INTER.ROT>
7

>  <SCORE.INTER.SOLV>
17.9145

>  <SCORE.INTER.VDW>
-24.1082

>  <SCORE.INTER.norm>
-0.548333

>  <SCORE.INTRA>
1.21538

>  <SCORE.INTRA.DIHEDRAL>
1.07219

>  <SCORE.INTRA.DIHEDRAL.0>
4.28829

>  <SCORE.INTRA.POLAR>
0

>  <SCORE.INTRA.POLAR.0>
0

>  <SCORE.INTRA.REPUL>
0

>  <SCORE.INTRA.REPUL.0>
0

>  <SCORE.INTRA.SOLV>
-0.613197

>  <SCORE.INTRA.SOLV.lig_0>
-48.6018

>  <SCORE.INTRA.VDW>
0.985885

>  <SCORE.INTRA.VDW.0>
-2.1506

>  <SCORE.INTRA.norm>
0.0450141

>  <SCORE.RESTR>
0

>  <SCORE.RESTR.CAVITY>
0

>  <SCORE.RESTR.norm>
0

>  <SCORE.SYSTEM>
0

>  <SCORE.SYSTEM.CONST>
0

>  <SCORE.SYSTEM.DIHEDRAL>
0

>  <SCORE.SYSTEM.SOLV>
0

>  <SCORE.SYSTEM.norm>
0

>  <SCORE.heavy>
27

>  <SCORE.norm>
-0.503319

>  <RMSD>
3.214

$$$$
ligand
 OpenBabel11021811483D
libRbt.so/2013.1/901 2013/11/27
 27 29  0  0  0  0  0  0  0  0999 V2000
   10.3655  -10.2574   13.2880 N   0  0  0  0  0  0  0  0  0  0  0  0
   11.7661  -10.5990   13.0322 C   0  0  2  0  0  0  0  0  0  0  0  0
   12.4647  -11.4041   14.1306 C   0  0  0  0  0  0  0  0  0  0  0  0
   11.9991  -11.3811   15.2692 O   0  0  0  0  0  0  0  0  0  0  0  0
   12.5728   -9.3594   12.6839 C   0  0  0  0  0  0  0  0  0  0  0  0
   13.8632   -9.7161   11.9661 C   0  0  0  0  0  0  0  0  0  0  0  0
   13.6075   -9.7651   10.1836 S   0  0  2  0  0  0  0  0  0  0  0  0
   15.3102   -9.9947    9.6293 C   0  0  0  0  0  0  0  0  0  0  0  0
   13.4107   -8.0029    9.8303 C   0  0  0  0  0  0  0  0  0  0  0  0
   12.9489   -7.7856    8.4011 C   0  0  1  0  0  0  0  0  0  0  0  0
   12.6159   -6.4330    8.1872 O   0  0  0  0  0  0  0  0  0  0  0  0
   14.0290   -8.0922    7.3823 C   0  0  1  0  0  0  0  0  0  0  0  0
   13.8863   -9.4292    6.9739 O   0  0  0  0  0  0  0  0  0  0  0  0
   13.7239   -7.1392    6.2444 C   0  0  1  0  0  0  0  0  0  0  0  0
   13.0350   -7.8714    5.2558 O   0  0  0  0  0  0  0  0  0  0  0  0
   12.8250   -6.0527    6.8385 C   0  0  2  0  0  0  0  0  0  0  0  0
   13.4811  -12.0740   13.9282 O   0  0  0  0  0  0  0  0  0  0  0  0
   17.0115   -3.4723    8.6364 N   0  0  0  0  0  0  0  0  0  0  0  0
   16.6914   -4.7949    8.8249 C   0  0  0  0  0  0  0  0  0  0  0  0
   15.5344   -5.2937    8.2680 N   0  0  0  0  0  0  0  0  0  0  0  0
   14.7131   -4.5055    7.5387 C   0  0  0  0  0  0  0  0  0  0  0  0
   15.0302   -3.1714    7.3279 C   0  0  0  0  0  0  0  0  0  0  0  0
   16.1917   -2.6496    7.8934 C   0  0  0  0  0  0  0  0  0  0  0  0
   16.5273   -1.3711    7.7192 N   0  0  0  0  0  0  0  0  0  0  0  0
   14.0494   -2.6249    6.5640 N   0  0  0  0  0  0  0  0  0  0  0  0
   13.1439   -3.5903    6.2838 C   0  0  0  0  0  0  0  0  0  0  0  0
   13.5440   -4.7636    6.8744 N   0  0  0  0  0  0  0  0  0  0  0  0
  2  1  1  1  0  0  0
  2  3  1  0  0  0  0
  2  5  1  0  0  0  0
  3  4  1  0  0  0  0
  3 17  1  0  0  0  0
  5  6  1  0  0  0  0
  7  6  1  1  0  0  0
  7  8  1  0  0  0  0
  7  9  1  0  0  0  0
 10  9  1  1  0  0  0
 10 11  1  0  0  0  0
 10 12  1  0  0  0  0
 11 16  1  0  0  0  0
 12 13  1  6  0  0  0
 12 14  1  0  0  0  0
 14 15  1  6  0  0  0
 14 16  1  0  0  0  0
 16 27  1  1  0  0  0
 18 19  2  0  0  0  0
 18 23  1  0  0  0  0
 19 20  1  0  0  0  0
 20 21  2  0  0  0  0
 21 22  1  0  0  0  0
 21 27  1  0  0  0  0
 22 23  2  0  0  0  0
 22 25  1  0  0  0  0
 23 24  1  0  0  0  0
 25 26  2  0  0  0  0
 26 27  1  0  0  0  0
M  END
>  <CHROM.1>
-21.02471594,-160.45731713,89.95649381,173.20923231,-170.56726776,171.69487048
54.13006197,13.81874499,-7.34033448,9.31926533,-2.14210090,-1.08630076,-1.22372966

>  <Name>
ligand

>  <RI>
0

>  <Rbt.Current_Directory>
/home/itssahil/PROJECTS/Mol_Feturizer/New_Systems/rnas/3GX5

>  <Rbt.Executable>
rbdock ($Id: //depot/dev/client3/rdock/2013.1/src/exe/rbdock.cxx#4 $)

>  <Rbt.Library>
libRbt.so (2013.1, Build901 2013/11/27)

>  <Rbt.Parameter_File>
/export/apps/rDock/src/rDock_2013.1_src/data/scripts/dock_solv.prm

>  <Rbt.Receptor>
prm/pocket_docking_8.prm

>  <SCORE>
-10.2342

>  <SCORE.INTER>
-11.3115

>  <SCORE.INTER.CONST>
1

>  <SCORE.INTER.POLAR>
0

>  <SCORE.INTER.ROT>
7

>  <SCORE.INTER.SOLV>
19.8133

>  <SCORE.INTER.VDW>
-22.4121

>  <SCORE.INTER.norm>
-0.418945

>  <SCORE.INTRA>
1.07729

>  <SCORE.INTRA.DIHEDRAL>
4.29716

>  <SCORE.INTRA.DIHEDRAL.0>
4.28829

>  <SCORE.INTRA.POLAR>
0

>  <SCORE.INTRA.POLAR.0>
0

>  <SCORE.INTRA.REPUL>
0

>  <SCORE.INTRA.REPUL.0>
0

>  <SCORE.INTRA.SOLV>
-0.777821

>  <SCORE.INTRA.SOLV.lig_0>
-48.6018

>  <SCORE.INTRA.VDW>
-0.682376

>  <SCORE.INTRA.VDW.0>
-2.1506

>  <SCORE.INTRA.norm>
0.0398998

>  <SCORE.RESTR>
0

>  <SCORE.RESTR.CAVITY>
0

>  <SCORE.RESTR.norm>
0

>  <SCORE.SYSTEM>
0

>  <SCORE.SYSTEM.CONST>
0

>  <SCORE.SYSTEM.DIHEDRAL>
0

>  <SCORE.SYSTEM.SOLV>
0

>  <SCORE.SYSTEM.norm>
0

>  <SCORE.heavy>
27

>  <SCORE.norm>
-0.379045

>  <RMSD>
3.353

$$$$
ligand
 OpenBabel11021811483D
libRbt.so/2013.1/901 2013/11/27
 27 29  0  0  0  0  0  0  0  0999 V2000
   12.3003   -9.0470   15.8566 N   0  0  0  0  0  0  0  0  0  0  0  0
   13.3561   -8.1547   15.3742 C   0  0  2  0  0  0  0  0  0  0  0  0
   13.8839   -7.1397   16.3910 C   0  0  0  0  0  0  0  0  0  0  0  0
   15.0072   -6.6654   16.2263 O   0  0  0  0  0  0  0  0  0  0  0  0
   12.9337   -7.4561   14.0926 C   0  0  0  0  0  0  0  0  0  0  0  0
   12.6000   -8.4536   12.9966 C   0  0  0  0  0  0  0  0  0  0  0  0
   11.8965   -7.6153   11.5656 S   0  0  2  0  0  0  0  0  0  0  0  0
   10.2428   -7.2567   12.1947 C   0  0  0  0  0  0  0  0  0  0  0  0
   11.5160   -9.0315   10.5081 C   0  0  0  0  0  0  0  0  0  0  0  0
   12.6597   -9.3161    9.5521 C   0  0  1  0  0  0  0  0  0  0  0  0
   12.8136   -8.2587    8.6332 O   0  0  0  0  0  0  0  0  0  0  0  0
   13.9985   -9.4263   10.2549 C   0  0  1  0  0  0  0  0  0  0  0  0
   14.2297  -10.7789   10.5585 O   0  0  0  0  0  0  0  0  0  0  0  0
   14.9847   -8.9239    9.2200 C   0  0  1  0  0  0  0  0  0  0  0  0
   15.5729  -10.0540    8.6160 O   0  0  0  0  0  0  0  0  0  0  0  0
   14.1576   -8.1350    8.2027 C   0  0  2  0  0  0  0  0  0  0  0  0
   13.2350   -6.7771   17.3759 O   0  0  0  0  0  0  0  0  0  0  0  0
   17.4467   -4.3575    6.6761 N   0  0  0  0  0  0  0  0  0  0  0  0
   17.4681   -5.6859    6.3266 C   0  0  0  0  0  0  0  0  0  0  0  0
   16.5089   -6.5323    6.8379 N   0  0  0  0  0  0  0  0  0  0  0  0
   15.5483   -6.0771    7.6732 C   0  0  0  0  0  0  0  0  0  0  0  0
   15.5055   -4.7356    8.0241 C   0  0  0  0  0  0  0  0  0  0  0  0
   16.4749   -3.8691    7.5233 C   0  0  0  0  0  0  0  0  0  0  0  0
   16.4713   -2.5746    7.8425 N   0  0  0  0  0  0  0  0  0  0  0  0
   14.4473   -4.5553    8.8558 N   0  0  0  0  0  0  0  0  0  0  0  0
   13.8259   -5.7466    9.0144 C   0  0  0  0  0  0  0  0  0  0  0  0
   14.4915   -6.6989    8.2825 N   0  0  0  0  0  0  0  0  0  0  0  0
  2  1  1  1  0  0  0
  2  3  1  0  0  0  0
  2  5  1  0  0  0  0
  3  4  1  0  0  0  0
  3 17  1  0  0  0  0
  5  6  1  0  0  0  0
  7  6  1  1  0  0  0
  7  8  1  0  0  0  0
  7  9  1  0  0  0  0
 10  9  1  1  0  0  0
 10 11  1  0  0  0  0
 10 12  1  0  0  0  0
 11 16  1  0  0  0  0
 12 13  1  6  0  0  0
 12 14  1  0  0  0  0
 14 15  1  6  0  0  0
 14 16  1  0  0  0  0
 16 27  1  1  0  0  0
 18 19  2  0  0  0  0
 18 23  1  0  0  0  0
 19 20  1  0  0  0  0
 20 21  2  0  0  0  0
 21 22  1  0  0  0  0
 21 27  1  0  0  0  0
 22 23  2  0  0  0  0
 22 25  1  0  0  0  0
 23 24  1  0  0  0  0
 25 26  2  0  0  0  0
 26 27  1  0  0  0  0
M  END
>  <CHROM.1>
157.29652833,-58.60238952,172.50459238,-74.78277899,-93.35828322,-66.04319940
-163.11402326,14.05465714,-7.24495164,10.68260719,2.32751156,1.00639337,1.19297300

>  <Name>
ligand

>  <RI>
0

>  <Rbt.Current_Directory>
/home/itssahil/PROJECTS/Mol_Feturizer/New_Systems/rnas/3GX5

>  <Rbt.Executable>
rbdock ($Id: //depot/dev/client3/rdock/2013.1/src/exe/rbdock.cxx#4 $)

>  <Rbt.Library>
libRbt.so (2013.1, Build901 2013/11/27)

>  <Rbt.Parameter_File>
/export/apps/rDock/src/rDock_2013.1_src/data/scripts/dock_solv.prm

>  <Rbt.Receptor>
prm/pocket_docking_7.prm

>  <SCORE>
-8.44458

>  <SCORE.INTER>
-8.66198

>  <SCORE.INTER.CONST>
1

>  <SCORE.INTER.POLAR>
0

>  <SCORE.INTER.ROT>
7

>  <SCORE.INTER.SOLV>
12.103

>  <SCORE.INTER.VDW>
-18.0757

>  <SCORE.INTER.norm>
-0.320814

>  <SCORE.INTRA>
0.2174

>  <SCORE.INTRA.DIHEDRAL>
1.0749

>  <SCORE.INTRA.DIHEDRAL.0>
4.28829

>  <SCORE.INTRA.POLAR>
0

>  <SCORE.INTRA.POLAR.0>
0

>  <SCORE.INTRA.REPUL>
0

>  <SCORE.INTRA.REPUL.0>
0

>  <SCORE.INTRA.SOLV>
-0.0747289

>  <SCORE.INTRA.SOLV.lig_0>
-48.6018

>  <SCORE.INTRA.VDW>
-0.282686

>  <SCORE.INTRA.VDW.0>
-2.1506

>  <SCORE.INTRA.norm>
0.00805185

>  <SCORE.RESTR>
0

>  <SCORE.RESTR.CAVITY>
0

>  <SCORE.RESTR.norm>
0

>  <SCORE.SYSTEM>
0

>  <SCORE.SYSTEM.CONST>
0

>  <SCORE.SYSTEM.DIHEDRAL>
0

>  <SCORE.SYSTEM.SOLV>
0

>  <SCORE.SYSTEM.norm>
0

>  <SCORE.heavy>
27

>  <SCORE.norm>
-0.312762

>  <RMSD>
3.640

$$$$
ligand
 OpenBabel11021811483D
libRbt.so/2013.1/901 2013/11/27
 27 29  0  0  0  0  0  0  0  0999 V2000
   11.6138   -8.8206   14.1919 N   0  0  0  0  0  0  0  0  0  0  0  0
   10.8083   -9.7872   13.4432 C   0  0  2  0  0  0  0  0  0  0  0  0
   10.5102  -11.1038   14.1648 C   0  0  0  0  0  0  0  0  0  0  0  0
   11.3378  -11.5429   14.9622 O   0  0  0  0  0  0  0  0  0  0  0  0
   11.4121  -10.0535   12.0746 C   0  0  0  0  0  0  0  0  0  0  0  0
   11.5111   -8.7813   11.2505 C   0  0  0  0  0  0  0  0  0  0  0  0
   12.2170   -9.1261    9.6294 S   0  0  2  0  0  0  0  0  0  0  0  0
   13.8385   -9.7498   10.1204 C   0  0  0  0  0  0  0  0  0  0  0  0
   12.6807   -7.4576    9.1101 C   0  0  0  0  0  0  0  0  0  0  0  0
   13.0181   -7.4251    7.6309 C   0  0  1  0  0  0  0  0  0  0  0  0
   13.4239   -6.1325    7.2425 O   0  0  0  0  0  0  0  0  0  0  0  0
   14.1825   -8.3281    7.2746 C   0  0  1  0  0  0  0  0  0  0  0  0
   13.6713   -9.5788    6.8878 O   0  0  0  0  0  0  0  0  0  0  0  0
   14.8350   -7.6205    6.1043 C   0  0  1  0  0  0  0  0  0  0  0  0
   14.3964   -8.2616    4.9276 O   0  0  0  0  0  0  0  0  0  0  0  0
   14.3304   -6.1768    6.1547 C   0  0  2  0  0  0  0  0  0  0  0  0
    9.4763  -11.7514   13.9794 O   0  0  0  0  0  0  0  0  0  0  0  0
   15.6677   -1.6044    8.3281 N   0  0  0  0  0  0  0  0  0  0  0  0
   14.4122   -2.1516    8.2207 C   0  0  0  0  0  0  0  0  0  0  0  0
   14.2614   -3.3761    7.6079 N   0  0  0  0  0  0  0  0  0  0  0  0
   15.3264   -4.0470    7.1146 C   0  0  0  0  0  0  0  0  0  0  0  0
   16.6021   -3.5137    7.2280 C   0  0  0  0  0  0  0  0  0  0  0  0
   16.7696   -2.2713    7.8361 C   0  0  0  0  0  0  0  0  0  0  0  0
   17.9785   -1.7226    7.9581 N   0  0  0  0  0  0  0  0  0  0  0  0
   17.4725   -4.3898    6.6632 N   0  0  0  0  0  0  0  0  0  0  0  0
   16.7699   -5.4573    6.2190 C   0  0  0  0  0  0  0  0  0  0  0  0
   15.4392   -5.2640    6.4973 N   0  0  0  0  0  0  0  0  0  0  0  0
  2  1  1  1  0  0  0
  2  3  1  0  0  0  0
  2  5  1  0  0  0  0
  3  4  1  0  0  0  0
  3 17  1  0  0  0  0
  5  6  1  0  0  0  0
  7  6  1  1  0  0  0
  7  8  1  0  0  0  0
  7  9  1  0  0  0  0
 10  9  1  1  0  0  0
 10 11  1  0  0  0  0
 10 12  1  0  0  0  0
 11 16  1  0  0  0  0
 12 13  1  6  0  0  0
 12 14  1  0  0  0  0
 14 15  1  6  0  0  0
 14 16  1  0  0  0  0
 16 27  1  1  0  0  0
 18 19  2  0  0  0  0
 18 23  1  0  0  0  0
 19 20  1  0  0  0  0
 20 21  2  0  0  0  0
 21 22  1  0  0  0  0
 21 27  1  0  0  0  0
 22 23  2  0  0  0  0
 22 25  1  0  0  0  0
 23 24  1  0  0  0  0
 25 26  2  0  0  0  0
 26 27  1  0  0  0  0
M  END
>  <CHROM.1>
-31.28140512,-59.33853693,-179.54317953,-61.49595609,-167.03976622,-177.93489898
-39.74060017,13.70714414,-7.10054191,9.06881875,-3.06063569,-1.06759272,-2.21381118

>  <Name>
ligand

>  <RI>
0

>  <Rbt.Current_Directory>
/home/itssahil/PROJECTS/Mol_Feturizer/New_Systems/rnas/3GX5

>  <Rbt.Executable>
rbdock ($Id: //depot/dev/client3/rdock/2013.1/src/exe/rbdock.cxx#4 $)

>  <Rbt.Library>
libRbt.so (2013.1, Build901 2013/11/27)

>  <Rbt.Parameter_File>
/export/apps/rDock/src/rDock_2013.1_src/data/scripts/dock_solv.prm

>  <Rbt.Receptor>
prm/pocket_docking_7.prm

>  <SCORE>
-14.0393

>  <SCORE.INTER>
-15.2765

>  <SCORE.INTER.CONST>
1

>  <SCORE.INTER.POLAR>
0

>  <SCORE.INTER.ROT>
7

>  <SCORE.INTER.SOLV>
18.9031

>  <SCORE.INTER.VDW>
-24.752

>  <SCORE.INTER.norm>
-0.565796

>  <SCORE.INTRA>
1.23723

>  <SCORE.INTRA.DIHEDRAL>
0.534708

>  <SCORE.INTRA.DIHEDRAL.0>
4.28829

>  <SCORE.INTRA.POLAR>
0

>  <SCORE.INTRA.POLAR.0>
0

>  <SCORE.INTRA.REPUL>
0

>  <SCORE.INTRA.REPUL.0>
0

>  <SCORE.INTRA.SOLV>
-0.183601

>  <SCORE.INTRA.SOLV.lig_0>
-48.6018

>  <SCORE.INTRA.VDW>
1.06168

>  <SCORE.INTRA.VDW.0>
-2.1506

>  <SCORE.INTRA.norm>
0.0458233

>  <SCORE.RESTR>
0

>  <SCORE.RESTR.CAVITY>
0

>  <SCORE.RESTR.norm>
0

>  <SCORE.SYSTEM>
0

>  <SCORE.SYSTEM.CONST>
0

>  <SCORE.SYSTEM.DIHEDRAL>
0

>  <SCORE.SYSTEM.SOLV>
0

>  <SCORE.SYSTEM.norm>
0

>  <SCORE.heavy>
27

>  <SCORE.norm>
-0.519972

>  <RMSD>
3.881

$$$$
ligand
 OpenBabel11021811483D
libRbt.so/2013.1/901 2013/11/27
 27 29  0  0  0  0  0  0  0  0999 V2000
   15.1847   -8.3523   13.3320 N   0  0  0  0  0  0  0  0  0  0  0  0
   14.4644   -7.1252   13.6768 C   0  0  2  0  0  0  0  0  0  0  0  0
   14.1555   -6.9317   15.1634 C   0  0  0  0  0  0  0  0  0  0  0  0
   15.0598   -6.5670   15.9138 O   0  0  0  0  0  0  0  0  0  0  0  0
   13.1995   -6.9859   12.8464 C   0  0  0  0  0  0  0  0  0  0  0  0
   13.5113   -6.9151   11.3614 C   0  0  0  0  0  0  0  0  0  0  0  0
   11.9953   -6.9661   10.3895 S   0  0  2  0  0  0  0  0  0  0  0  0
   11.5821   -8.7165   10.5455 C   0  0  0  0  0  0  0  0  0  0  0  0
   12.6771   -6.9655    8.7150 C   0  0  0  0  0  0  0  0  0  0  0  0
   13.2446   -5.6030    8.3620 C   0  0  1  0  0  0  0  0  0  0  0  0
   14.5138   -5.4267    8.9487 O   0  0  0  0  0  0  0  0  0  0  0  0
   13.4704   -5.4292    6.8730 C   0  0  1  0  0  0  0  0  0  0  0  0
   12.3255   -4.8327    6.3177 O   0  0  0  0  0  0  0  0  0  0  0  0
   14.6610   -4.4946    6.8015 C   0  0  1  0  0  0  0  0  0  0  0  0
   14.1643   -3.1992    6.5500 O   0  0  0  0  0  0  0  0  0  0  0  0
   15.3279   -4.5612    8.1771 C   0  0  2  0  0  0  0  0  0  0  0  0
   13.0383   -7.1307   15.6481 O   0  0  0  0  0  0  0  0  0  0  0  0
   19.7375   -5.8642   10.6822 N   0  0  0  0  0  0  0  0  0  0  0  0
   18.6351   -5.2236   11.1938 C   0  0  0  0  0  0  0  0  0  0  0  0
   17.5631   -4.9649   10.3682 N   0  0  0  0  0  0  0  0  0  0  0  0
   17.5776   -5.3329    9.0674 C   0  0  0  0  0  0  0  0  0  0  0  0
   18.6780   -5.9928    8.5400 C   0  0  0  0  0  0  0  0  0  0  0  0
   19.7742   -6.2524    9.3598 C   0  0  0  0  0  0  0  0  0  0  0  0
   20.8529   -6.8784    8.8884 N   0  0  0  0  0  0  0  0  0  0  0  0
   18.4234   -6.2485    7.2308 N   0  0  0  0  0  0  0  0  0  0  0  0
   17.1883   -5.7786    6.9403 C   0  0  0  0  0  0  0  0  0  0  0  0
   16.6476   -5.2145    8.0695 N   0  0  0  0  0  0  0  0  0  0  0  0
  2  1  1  1  0  0  0
  2  3  1  0  0  0  0
  2  5  1  0  0  0  0
  3  4  1  0  0  0  0
  3 17  1  0  0  0  0
  5  6  1  0  0  0  0
  7  6  1  1  0  0  0
  7  8  1  0  0  0  0
  7  9  1  0  0  0  0
 10  9  1  6  0  0  0
 10 11  1  0  0  0  0
 10 12  1  0  0  0  0
 11 16  1  0  0  0  0
 12 13  1  6  0  0  0
 12 14  1  0  0  0  0
 14 15  1  1  0  0  0
 14 16  1  0  0  0  0
 16 27  1  6  0  0  0
 18 19  2  0  0  0  0
 18 23  1  0  0  0  0
 19 20  1  0  0  0  0
 20 21  2  0  0  0  0
 21 22  1  0  0  0  0
 21 27  1  0  0  0  0
 22 23  2  0  0  0  0
 22 25  1  0  0  0  0
 23 24  1  0  0  0  0
 25 26  2  0  0  0  0
 26 27  1  0  0  0  0
M  END
>  <CHROM.1>
76.93809114,-60.80096280,172.65637120,-75.03428979,-72.27545150,78.67739587
-72.91191132,15.20349718,-6.11709802,10.04960058,-2.09855761,-0.06306283
-1.29007747

>  <Name>
ligand

>  <RI>
0

>  <Rbt.Current_Directory>
/home/itssahil/PROJECTS/Mol_Feturizer/New_Systems/rnas/3GX5

>  <Rbt.Executable>
rbdock ($Id: //depot/dev/client3/rdock/2013.1/src/exe/rbdock.cxx#4 $)

>  <Rbt.Library>
libRbt.so (2013.1, Build901 2013/11/27)

>  <Rbt.Parameter_File>
/export/apps/rDock/src/rDock_2013.1_src/data/scripts/dock_solv.prm

>  <Rbt.Receptor>
prm/pocket_docking_6.prm

>  <SCORE>
-11.8934

>  <SCORE.INTER>
-12.787

>  <SCORE.INTER.CONST>
1

>  <SCORE.INTER.POLAR>
0

>  <SCORE.INTER.ROT>
7

>  <SCORE.INTER.SOLV>
13.3969

>  <SCORE.INTER.VDW>
-21.257

>  <SCORE.INTER.norm>
-0.473593

>  <SCORE.INTRA>
0.893645

>  <SCORE.INTRA.DIHEDRAL>
0.707716

>  <SCORE.INTRA.DIHEDRAL.0>
4.28829

>  <SCORE.INTRA.POLAR>
0

>  <SCORE.INTRA.POLAR.0>
0

>  <SCORE.INTRA.REPUL>
0

>  <SCORE.INTRA.REPUL.0>
0

>  <SCORE.INTRA.SOLV>
-0.374549

>  <SCORE.INTRA.SOLV.lig_0>
-48.6018

>  <SCORE.INTRA.VDW>
0.727062

>  <SCORE.INTRA.VDW.0>
-2.1506

>  <SCORE.INTRA.norm>
0.033098

>  <SCORE.RESTR>
0

>  <SCORE.RESTR.CAVITY>
0

>  <SCORE.RESTR.norm>
0

>  <SCORE.SYSTEM>
0

>  <SCORE.SYSTEM.CONST>
0

>  <SCORE.SYSTEM.DIHEDRAL>
0

>  <SCORE.SYSTEM.SOLV>
0

>  <SCORE.SYSTEM.norm>
0

>  <SCORE.heavy>
27

>  <SCORE.norm>
-0.440495

>  <RMSD>
3.977

$$$$
ligand
 OpenBabel11021811483D
libRbt.so/2013.1/901 2013/11/27
 27 29  0  0  0  0  0  0  0  0999 V2000
   12.7019   -4.7083    8.4786 N   0  0  0  0  0  0  0  0  0  0  0  0
   13.3535   -5.1273    7.2361 C   0  0  2  0  0  0  0  0  0  0  0  0
   13.6349   -4.0129    6.2252 C   0  0  0  0  0  0  0  0  0  0  0  0
   12.7613   -3.7173    5.4108 O   0  0  0  0  0  0  0  0  0  0  0  0
   12.5894   -6.2641    6.5784 C   0  0  0  0  0  0  0  0  0  0  0  0
   13.3571   -6.8476    5.4047 C   0  0  0  0  0  0  0  0  0  0  0  0
   14.8501   -7.6810    5.9717 S   0  0  2  0  0  0  0  0  0  0  0  0
   15.3660   -8.4781    4.4362 C   0  0  0  0  0  0  0  0  0  0  0  0
   14.1302   -9.1043    6.8229 C   0  0  0  0  0  0  0  0  0  0  0  0
   14.2007   -8.9272    8.3285 C   0  0  1  0  0  0  0  0  0  0  0  0
   15.2497   -8.0530    8.6770 O   0  0  0  0  0  0  0  0  0  0  0  0
   12.9501   -8.2924    8.9040 C   0  0  1  0  0  0  0  0  0  0  0  0
   12.0763   -9.3179    9.3040 O   0  0  0  0  0  0  0  0  0  0  0  0
   13.4641   -7.5171   10.1001 C   0  0  1  0  0  0  0  0  0  0  0  0
   13.2074   -8.2951   11.2476 O   0  0  0  0  0  0  0  0  0  0  0  0
   14.9699   -7.3580    9.8794 C   0  0  2  0  0  0  0  0  0  0  0  0
   14.7039   -3.3978    6.1849 O   0  0  0  0  0  0  0  0  0  0  0  0
   17.6860   -3.9939    6.9258 N   0  0  0  0  0  0  0  0  0  0  0  0
   17.6254   -5.3612    6.8073 C   0  0  0  0  0  0  0  0  0  0  0  0
   16.8487   -6.0798    7.6893 N   0  0  0  0  0  0  0  0  0  0  0  0
   16.1451   -5.4625    8.6647 C   0  0  0  0  0  0  0  0  0  0  0  0
   16.1853   -4.0813    8.7882 C   0  0  0  0  0  0  0  0  0  0  0  0
   16.9744   -3.3414    7.9101 C   0  0  0  0  0  0  0  0  0  0  0  0
   17.0443   -2.0131    8.0007 N   0  0  0  0  0  0  0  0  0  0  0  0
   15.3894   -3.7322    9.8317 N   0  0  0  0  0  0  0  0  0  0  0  0
   14.8460   -4.8598   10.3452 C   0  0  0  0  0  0  0  0  0  0  0  0
   15.2985   -5.9405    9.6289 N   0  0  0  0  0  0  0  0  0  0  0  0
  2  1  1  1  0  0  0
  2  3  1  0  0  0  0
  2  5  1  0  0  0  0
  3  4  1  0  0  0  0
  3 17  1  0  0  0  0
  5  6  1  0  0  0  0
  7  6  1  6  0  0  0
  7  8  1  0  0  0  0
  7  9  1  0  0  0  0
 10  9  1  6  0  0  0
 10 11  1  0  0  0  0
 10 12  1  0  0  0  0
 11 16  1  0  0  0  0
 12 13  1  1  0  0  0
 12 14  1  0  0  0  0
 14 15  1  1  0  0  0
 14 16  1  0  0  0  0
 16 27  1  6  0  0  0
 18 19  2  0  0  0  0
 18 23  1  0  0  0  0
 19 20  1  0  0  0  0
 20 21  2  0  0  0  0
 21 22  1  0  0  0  0
 21 27  1  0  0  0  0
 22 23  2  0  0  0  0
 22 25  1  0  0  0  0
 23 24  1  0  0  0  0
 25 26  2  0  0  0  0
 26 27  1  0  0  0  0
M  END
>  <CHROM.1>
-87.68486294,-171.53892564,67.21882408,170.98545907,-104.61351364,-24.75101853
-22.08737134,14.68054393,-6.12455143,7.80613127,-0.26323261,1.08025332,1.64780266

>  <Name>
ligand

>  <RI>
0

>  <Rbt.Current_Directory>
/home/itssahil/PROJECTS/Mol_Feturizer/New_Systems/rnas/3GX5

>  <Rbt.Executable>
rbdock ($Id: //depot/dev/client3/rdock/2013.1/src/exe/rbdock.cxx#4 $)

>  <Rbt.Library>
libRbt.so (2013.1, Build901 2013/11/27)

>  <Rbt.Parameter_File>
/export/apps/rDock/src/rDock_2013.1_src/data/scripts/dock_solv.prm

>  <Rbt.Receptor>
prm/pocket_docking_3.prm

>  <SCORE>
-9.24621

>  <SCORE.INTER>
-10.6034

>  <SCORE.INTER.CONST>
1

>  <SCORE.INTER.POLAR>
0

>  <SCORE.INTER.ROT>
7

>  <SCORE.INTER.SOLV>
16.4292

>  <SCORE.INTER.VDW>
-20.812

>  <SCORE.INTER.norm>
-0.39272

>  <SCORE.INTRA>
1.35723

>  <SCORE.INTRA.DIHEDRAL>
5.65011

>  <SCORE.INTRA.DIHEDRAL.0>
4.28829

>  <SCORE.INTRA.POLAR>
0

>  <SCORE.INTRA.POLAR.0>
0

>  <SCORE.INTRA.REPUL>
0

>  <SCORE.INTRA.REPUL.0>
0

>  <SCORE.INTRA.SOLV>
4.49027

>  <SCORE.INTRA.SOLV.lig_0>
-48.6018

>  <SCORE.INTRA.VDW>
-3.71296

>  <SCORE.INTRA.VDW.0>
-2.1506

>  <SCORE.INTRA.norm>
0.050268

>  <SCORE.RESTR>
0

>  <SCORE.RESTR.CAVITY>
0

>  <SCORE.RESTR.norm>
0

>  <SCORE.SYSTEM>
0

>  <SCORE.SYSTEM.CONST>
0

>  <SCORE.SYSTEM.DIHEDRAL>
0

>  <SCORE.SYSTEM.SOLV>
0

>  <SCORE.SYSTEM.norm>
0

>  <SCORE.heavy>
27

>  <SCORE.norm>
-0.342452

>  <RMSD>
4.234

$$$$
ligand
 OpenBabel11021811483D
libRbt.so/2013.1/901 2013/11/27
 27 29  0  0  0  0  0  0  0  0999 V2000
   17.4663   -8.5590   10.7329 N   0  0  0  0  0  0  0  0  0  0  0  0
   17.1983   -7.3109   10.0159 C   0  0  2  0  0  0  0  0  0  0  0  0
   18.3355   -6.2864   10.0180 C   0  0  0  0  0  0  0  0  0  0  0  0
   18.6497   -5.7522   11.0808 O   0  0  0  0  0  0  0  0  0  0  0  0
   15.9054   -6.6743   10.4976 C   0  0  0  0  0  0  0  0  0  0  0  0
   14.7045   -7.5562   10.2019 C   0  0  0  0  0  0  0  0  0  0  0  0
   13.1694   -6.6696   10.5221 S   0  0  2  0  0  0  0  0  0  0  0  0
   12.0565   -8.0627   10.8050 C   0  0  0  0  0  0  0  0  0  0  0  0
   12.6831   -6.2330    8.8364 C   0  0  0  0  0  0  0  0  0  0  0  0
   13.3718   -4.9574    8.3874 C   0  0  1  0  0  0  0  0  0  0  0  0
   14.7723   -5.0990    8.4552 O   0  0  0  0  0  0  0  0  0  0  0  0
   13.0795   -4.6106    6.9409 C   0  0  1  0  0  0  0  0  0  0  0  0
   11.9738   -3.7438    6.9076 O   0  0  0  0  0  0  0  0  0  0  0  0
   14.3397   -3.9040    6.4840 C   0  0  1  0  0  0  0  0  0  0  0  0
   14.0853   -2.5180    6.5307 O   0  0  0  0  0  0  0  0  0  0  0  0
   15.4242   -4.2898    7.4922 C   0  0  2  0  0  0  0  0  0  0  0  0
   18.9513   -5.9654    8.9979 O   0  0  0  0  0  0  0  0  0  0  0  0
   16.5362   -9.0716    5.6713 N   0  0  0  0  0  0  0  0  0  0  0  0
   15.3595   -8.6348    6.2296 C   0  0  0  0  0  0  0  0  0  0  0  0
   15.2600   -7.3281    6.6545 N   0  0  0  0  0  0  0  0  0  0  0  0
   16.2978   -6.4709    6.5285 C   0  0  0  0  0  0  0  0  0  0  0  0
   17.4877   -6.8937    5.9540 C   0  0  0  0  0  0  0  0  0  0  0  0
   17.6072   -8.2151    5.5288 C   0  0  0  0  0  0  0  0  0  0  0  0
   18.7366   -8.6610    4.9779 N   0  0  0  0  0  0  0  0  0  0  0  0
   18.3444   -5.8401    5.9451 N   0  0  0  0  0  0  0  0  0  0  0  0
   17.7093   -4.7737    6.4837 C   0  0  0  0  0  0  0  0  0  0  0  0
   16.4375   -5.1459    6.8439 N   0  0  0  0  0  0  0  0  0  0  0  0
  2  1  1  1  0  0  0
  2  3  1  0  0  0  0
  2  5  1  0  0  0  0
  3  4  1  0  0  0  0
  3 17  1  0  0  0  0
  5  6  1  0  0  0  0
  7  6  1  6  0  0  0
  7  8  1  0  0  0  0
  7  9  1  0  0  0  0
 10  9  1  6  0  0  0
 10 11  1  0  0  0  0
 10 12  1  0  0  0  0
 11 16  1  0  0  0  0
 12 13  1  1  0  0  0
 12 14  1  0  0  0  0
 14 15  1  1  0  0  0
 14 16  1  0  0  0  0
 16 27  1  6  0  0  0
 18 19  2  0  0  0  0
 18 23  1  0  0  0  0
 19 20  1  0  0  0  0
 20 21  2  0  0  0  0
 21 22  1  0  0  0  0
 21 27  1  0  0  0  0
 22 23  2  0  0  0  0
 22 25  1  0  0  0  0
 23 24  1  0  0  0  0
 25 26  2  0  0  0  0
 26 27  1  0  0  0  0
M  END
>  <CHROM.1>
-66.99275576,-63.57987350,-170.36997953,-156.29618650,-84.33329510,58.09579458
37.78627053,15.61504321,-6.24600149,8.09152654,-0.16581558,-0.43187568,1.98197489

>  <Name>
ligand

>  <RI>
0

>  <Rbt.Current_Directory>
/home/itssahil/PROJECTS/Mol_Feturizer/New_Systems/rnas/3GX5

>  <Rbt.Executable>
rbdock ($Id: //depot/dev/client3/rdock/2013.1/src/exe/rbdock.cxx#4 $)

>  <Rbt.Library>
libRbt.so (2013.1, Build901 2013/11/27)

>  <Rbt.Parameter_File>
/export/apps/rDock/src/rDock_2013.1_src/data/scripts/dock_solv.prm

>  <Rbt.Receptor>
prm/pocket_docking_6.prm

>  <SCORE>
-12.0574

>  <SCORE.INTER>
-10.191

>  <SCORE.INTER.CONST>
1

>  <SCORE.INTER.POLAR>
0

>  <SCORE.INTER.ROT>
7

>  <SCORE.INTER.SOLV>
11.918

>  <SCORE.INTER.VDW>
-19.0333

>  <SCORE.INTER.norm>
-0.377443

>  <SCORE.INTRA>
-1.86641

>  <SCORE.INTRA.DIHEDRAL>
2.74979

>  <SCORE.INTRA.DIHEDRAL.0>
4.28829

>  <SCORE.INTRA.POLAR>
0

>  <SCORE.INTRA.POLAR.0>
0

>  <SCORE.INTRA.REPUL>
0

>  <SCORE.INTRA.REPUL.0>
0

>  <SCORE.INTRA.SOLV>
-0.270242

>  <SCORE.INTRA.SOLV.lig_0>
-48.6018

>  <SCORE.INTRA.VDW>
-3.10619

>  <SCORE.INTRA.VDW.0>
-2.1506

>  <SCORE.INTRA.norm>
-0.0691264

>  <SCORE.RESTR>
0

>  <SCORE.RESTR.CAVITY>
0

>  <SCORE.RESTR.norm>
0

>  <SCORE.SYSTEM>
0

>  <SCORE.SYSTEM.CONST>
0

>  <SCORE.SYSTEM.DIHEDRAL>
0

>  <SCORE.SYSTEM.SOLV>
0

>  <SCORE.SYSTEM.norm>
0

>  <SCORE.heavy>
27

>  <SCORE.norm>
-0.446569

>  <RMSD>
4.401

$$$$
ligand
 OpenBabel11021811483D
libRbt.so/2013.1/901 2013/11/27
 27 29  0  0  0  0  0  0  0  0999 V2000
   16.0931   -8.5281   13.8541 N   0  0  0  0  0  0  0  0  0  0  0  0
   15.5470   -7.6436   12.8229 C   0  0  2  0  0  0  0  0  0  0  0  0
   14.8131   -6.4014   13.3339 C   0  0  0  0  0  0  0  0  0  0  0  0
   13.8575   -6.5489   14.0946 O   0  0  0  0  0  0  0  0  0  0  0  0
   14.6731   -8.4175   11.8502 C   0  0  0  0  0  0  0  0  0  0  0  0
   14.4285   -7.6327   10.5729 C   0  0  0  0  0  0  0  0  0  0  0  0
   13.1562   -6.3830   10.8272 S   0  0  2  0  0  0  0  0  0  0  0  0
   11.7304   -7.4463   11.1365 C   0  0  0  0  0  0  0  0  0  0  0  0
   12.8131   -5.9089    9.1166 C   0  0  0  0  0  0  0  0  0  0  0  0
   13.7617   -4.8173    8.6566 C   0  0  1  0  0  0  0  0  0  0  0  0
   15.0615   -5.3318    8.4777 O   0  0  0  0  0  0  0  0  0  0  0  0
   13.3784   -4.2358    7.3100 C   0  0  1  0  0  0  0  0  0  0  0  0
   12.5667   -3.1096    7.5284 O   0  0  0  0  0  0  0  0  0  0  0  0
   14.7091   -3.8390    6.7034 C   0  0  1  0  0  0  0  0  0  0  0  0
   14.8625   -2.4509    6.8972 O   0  0  0  0  0  0  0  0  0  0  0  0
   15.7722   -4.6154    7.4834 C   0  0  2  0  0  0  0  0  0  0  0  0
   15.1329   -5.2536   13.0128 O   0  0  0  0  0  0  0  0  0  0  0  0
   14.9727   -8.5849    4.1635 N   0  0  0  0  0  0  0  0  0  0  0  0
   14.0295   -7.8168    4.8018 C   0  0  0  0  0  0  0  0  0  0  0  0
   14.4408   -6.8097    5.6470 N   0  0  0  0  0  0  0  0  0  0  0  0
   15.7538   -6.5643    5.8552 C   0  0  0  0  0  0  0  0  0  0  0  0
   16.7179   -7.3224    5.2069 C   0  0  0  0  0  0  0  0  0  0  0  0
   16.3176   -8.3513    4.3569 C   0  0  0  0  0  0  0  0  0  0  0  0
   17.2140   -9.1061    3.7210 N   0  0  0  0  0  0  0  0  0  0  0  0
   17.9371   -6.8609    5.5871 N   0  0  0  0  0  0  0  0  0  0  0  0
   17.7511   -5.8272    6.4401 C   0  0  0  0  0  0  0  0  0  0  0  0
   16.4036   -5.6258    6.6114 N   0  0  0  0  0  0  0  0  0  0  0  0
  2  1  1  1  0  0  0
  2  3  1  0  0  0  0
  2  5  1  0  0  0  0
  3  4  1  0  0  0  0
  3 17  1  0  0  0  0
  5  6  1  0  0  0  0
  7  6  1  6  0  0  0
  7  8  1  0  0  0  0
  7  9  1  0  0  0  0
 10  9  1  6  0  0  0
 10 11  1  0  0  0  0
 10 12  1  0  0  0  0
 11 16  1  0  0  0  0
 12 13  1  1  0  0  0
 12 14  1  0  0  0  0
 14 15  1  1  0  0  0
 14 16  1  0  0  0  0
 16 27  1  6  0  0  0
 18 19  2  0  0  0  0
 18 23  1  0  0  0  0
 19 20  1  0  0  0  0
 20 21  2  0  0  0  0
 21 22  1  0  0  0  0
 21 27  1  0  0  0  0
 22 23  2  0  0  0  0
 22 25  1  0  0  0  0
 23 24  1  0  0  0  0
 25 26  2  0  0  0  0
 26 27  1  0  0  0  0
M  END
>  <CHROM.1>
-57.24781399,-163.54723015,-78.90312736,-65.47101119,-86.86494687,71.57592240
61.83878286,14.82546899,-6.30303203,8.58518565,-2.01126823,1.02887575,-1.18051248

>  <Name>
ligand

>  <RI>
0

>  <Rbt.Current_Directory>
/home/itssahil/PROJECTS/Mol_Feturizer/New_Systems/rnas/3GX5

>  <Rbt.Executable>
rbdock ($Id: //depot/dev/client3/rdock/2013.1/src/exe/rbdock.cxx#4 $)

>  <Rbt.Library>
libRbt.so (2013.1, Build901 2013/11/27)

>  <Rbt.Parameter_File>
/export/apps/rDock/src/rDock_2013.1_src/data/scripts/dock_solv.prm

>  <Rbt.Receptor>
prm/pocket_docking_7.prm

>  <SCORE>
-11.645

>  <SCORE.INTER>
-11.3252

>  <SCORE.INTER.CONST>
1

>  <SCORE.INTER.POLAR>
0

>  <SCORE.INTER.ROT>
7

>  <SCORE.INTER.SOLV>
14.0925

>  <SCORE.INTER.VDW>
-20.5143

>  <SCORE.INTER.norm>
-0.419452

>  <SCORE.INTRA>
-0.31976

>  <SCORE.INTRA.DIHEDRAL>
2.65274

>  <SCORE.INTRA.DIHEDRAL.0>
4.28829

>  <SCORE.INTRA.POLAR>
0

>  <SCORE.INTRA.POLAR.0>
0

>  <SCORE.INTRA.REPUL>
0

>  <SCORE.INTRA.REPUL.0>
0

>  <SCORE.INTRA.SOLV>
-1.07824

>  <SCORE.INTRA.SOLV.lig_0>
-48.6018

>  <SCORE.INTRA.VDW>
-1.10701

>  <SCORE.INTRA.VDW.0>
-2.1506

>  <SCORE.INTRA.norm>
-0.011843

>  <SCORE.RESTR>
0

>  <SCORE.RESTR.CAVITY>
0

>  <SCORE.RESTR.norm>
0

>  <SCORE.SYSTEM>
0

>  <SCORE.SYSTEM.CONST>
0

>  <SCORE.SYSTEM.DIHEDRAL>
0

>  <SCORE.SYSTEM.SOLV>
0

>  <SCORE.SYSTEM.norm>
0

>  <SCORE.heavy>
27

>  <SCORE.norm>
-0.431295

>  <RMSD>
4.520

$$$$
ligand
 OpenBabel11021811483D
libRbt.so/2013.1/901 2013/11/27
 27 29  0  0  0  0  0  0  0  0999 V2000
   14.2651  -10.8147   10.5248 N   0  0  0  0  0  0  0  0  0  0  0  0
   14.4483   -9.4403   10.9952 C   0  0  2  0  0  0  0  0  0  0  0  0
   15.1842   -9.2872   12.3286 C   0  0  0  0  0  0  0  0  0  0  0  0
   14.9329  -10.0768   13.2380 O   0  0  0  0  0  0  0  0  0  0  0  0
   13.1240   -8.6960   11.0279 C   0  0  0  0  0  0  0  0  0  0  0  0
   13.3272   -7.2022   11.2136 C   0  0  0  0  0  0  0  0  0  0  0  0
   13.8912   -6.4410    9.6814 S   0  0  2  0  0  0  0  0  0  0  0  0
   15.6752   -6.6443    9.8690 C   0  0  0  0  0  0  0  0  0  0  0  0
   13.7409   -4.6906   10.1080 C   0  0  0  0  0  0  0  0  0  0  0  0
   13.9593   -3.8152    8.8877 C   0  0  1  0  0  0  0  0  0  0  0  0
   15.2979   -3.8930    8.4540 O   0  0  0  0  0  0  0  0  0  0  0  0
   13.1319   -4.2536    7.6954 C   0  0  1  0  0  0  0  0  0  0  0  0
   11.9261   -3.5317    7.7032 O   0  0  0  0  0  0  0  0  0  0  0  0
   13.9900   -3.8683    6.5074 C   0  0  1  0  0  0  0  0  0  0  0  0
   13.4861   -2.6526    6.0012 O   0  0  0  0  0  0  0  0  0  0  0  0
   15.4055   -3.6807    7.0574 C   0  0  2  0  0  0  0  0  0  0  0  0
   16.0176   -8.4013   12.5372 O   0  0  0  0  0  0  0  0  0  0  0  0
   15.6719   -8.3554    4.7134 N   0  0  0  0  0  0  0  0  0  0  0  0
   14.5468   -7.6308    5.0236 C   0  0  0  0  0  0  0  0  0  0  0  0
   14.6827   -6.4102    5.6476 N   0  0  0  0  0  0  0  0  0  0  0  0
   15.9020   -5.9144    5.9558 C   0  0  0  0  0  0  0  0  0  0  0  0
   17.0479   -6.6281    5.6363 C   0  0  0  0  0  0  0  0  0  0  0  0
   16.9264   -7.8690    5.0144 C   0  0  0  0  0  0  0  0  0  0  0  0
   18.0035   -8.5880    4.6974 N   0  0  0  0  0  0  0  0  0  0  0  0
   18.1198   -5.9022    6.0463 N   0  0  0  0  0  0  0  0  0  0  0  0
   17.6666   -4.7517    6.5955 C   0  0  0  0  0  0  0  0  0  0  0  0
   16.2946   -4.7403    6.5409 N   0  0  0  0  0  0  0  0  0  0  0  0
  2  1  1  1  0  0  0
  2  3  1  0  0  0  0
  2  5  1  0  0  0  0
  3  4  1  0  0  0  0
  3 17  1  0  0  0  0
  5  6  1  0  0  0  0
  7  6  1  1  0  0  0
  7  8  1  0  0  0  0
  7  9  1  0  0  0  0
 10  9  1  1  0  0  0
 10 11  1  0  0  0  0
 10 12  1  0  0  0  0
 11 16  1  0  0  0  0
 12 13  1  6  0  0  0
 12 14  1  0  0  0  0
 14 15  1  1  0  0  0
 14 16  1  0  0  0  0
 16 27  1  6  0  0  0
 18 19  2  0  0  0  0
 18 23  1  0  0  0  0
 19 20  1  0  0  0  0
 20 21  2  0  0  0  0
 21 22  1  0  0  0  0
 21 27  1  0  0  0  0
 22 23  2  0  0  0  0
 22 25  1  0  0  0  0
 23 24  1  0  0  0  0
 25 26  2  0  0  0  0
 26 27  1  0  0  0  0
M  END
>  <CHROM.1>
-40.60759279,-167.44120833,75.75073487,-88.31527117,-171.17334040,-67.77636132
97.68110223,14.96605380,-6.43326521,8.29157800,-1.80537606,0.93595286,-0.80336835

>  <Name>
ligand

>  <RI>
0

>  <Rbt.Current_Directory>
/home/itssahil/PROJECTS/Mol_Feturizer/New_Systems/rnas/3GX5

>  <Rbt.Executable>
rbdock ($Id: //depot/dev/client3/rdock/2013.1/src/exe/rbdock.cxx#4 $)

>  <Rbt.Library>
libRbt.so (2013.1, Build901 2013/11/27)

>  <Rbt.Parameter_File>
/export/apps/rDock/src/rDock_2013.1_src/data/scripts/dock_solv.prm

>  <Rbt.Receptor>
prm/pocket_docking_4.prm

>  <SCORE>
-7.85673

>  <SCORE.INTER>
-8.22979

>  <SCORE.INTER.CONST>
1

>  <SCORE.INTER.POLAR>
0

>  <SCORE.INTER.ROT>
7

>  <SCORE.INTER.SOLV>
16.3543

>  <SCORE.INTER.VDW>
-19.2046

>  <SCORE.INTER.norm>
-0.304807

>  <SCORE.INTRA>
0.373067

>  <SCORE.INTRA.DIHEDRAL>
2.54492

>  <SCORE.INTRA.DIHEDRAL.0>
4.28829

>  <SCORE.INTRA.POLAR>
0

>  <SCORE.INTRA.POLAR.0>
0

>  <SCORE.INTRA.REPUL>
0

>  <SCORE.INTRA.REPUL.0>
0

>  <SCORE.INTRA.SOLV>
-0.577833

>  <SCORE.INTRA.SOLV.lig_0>
-48.6018

>  <SCORE.INTRA.VDW>
-0.610475

>  <SCORE.INTRA.VDW.0>
-2.1506

>  <SCORE.INTRA.norm>
0.0138173

>  <SCORE.RESTR>
0

>  <SCORE.RESTR.CAVITY>
0

>  <SCORE.RESTR.norm>
0

>  <SCORE.SYSTEM>
0

>  <SCORE.SYSTEM.CONST>
0

>  <SCORE.SYSTEM.DIHEDRAL>
0

>  <SCORE.SYSTEM.SOLV>
0

>  <SCORE.SYSTEM.norm>
0

>  <SCORE.heavy>
27

>  <SCORE.norm>
-0.29099

>  <RMSD>
4.614

$$$$
ligand
 OpenBabel11021811483D
libRbt.so/2013.1/901 2013/11/27
 27 29  0  0  0  0  0  0  0  0999 V2000
   11.1362   -8.1532   11.1288 N   0  0  0  0  0  0  0  0  0  0  0  0
   12.5711   -7.8680   11.1872 C   0  0  2  0  0  0  0  0  0  0  0  0
   13.4639   -9.0369   11.6107 C   0  0  0  0  0  0  0  0  0  0  0  0
   13.1140   -9.7356   12.5610 O   0  0  0  0  0  0  0  0  0  0  0  0
   12.8477   -6.6462   12.0472 C   0  0  0  0  0  0  0  0  0  0  0  0
   14.3114   -6.2439   11.9918 C   0  0  0  0  0  0  0  0  0  0  0  0
   14.7668   -5.7262   10.3275 S   0  0  2  0  0  0  0  0  0  0  0  0
   16.5047   -5.3153   10.5921 C   0  0  0  0  0  0  0  0  0  0  0  0
   14.0647   -4.0605   10.2967 C   0  0  0  0  0  0  0  0  0  0  0  0
   14.1269   -3.4725    8.8991 C   0  0  1  0  0  0  0  0  0  0  0  0
   15.4437   -3.5190    8.3990 O   0  0  0  0  0  0  0  0  0  0  0  0
   13.2965   -4.2507    7.8975 C   0  0  1  0  0  0  0  0  0  0  0  0
   12.0205   -3.6656    7.8299 O   0  0  0  0  0  0  0  0  0  0  0  0
   14.0492   -4.0684    6.5950 C   0  0  1  0  0  0  0  0  0  0  0  0
   13.3912   -3.0559    5.8671 O   0  0  0  0  0  0  0  0  0  0  0  0
   15.4602   -3.6243    6.9863 C   0  0  2  0  0  0  0  0  0  0  0  0
   14.5260   -9.3094   11.0446 O   0  0  0  0  0  0  0  0  0  0  0  0
   16.1496   -8.4019    4.9572 N   0  0  0  0  0  0  0  0  0  0  0  0
   14.9777   -7.6936    5.0667 C   0  0  0  0  0  0  0  0  0  0  0  0
   14.9993   -6.4399    5.6372 N   0  0  0  0  0  0  0  0  0  0  0  0
   16.1524   -5.8962    6.0870 C   0  0  0  0  0  0  0  0  0  0  0  0
   17.3460   -6.5936    5.9707 C   0  0  0  0  0  0  0  0  0  0  0  0
   17.3387   -7.8670    5.4053 C   0  0  0  0  0  0  0  0  0  0  0  0
   18.4640   -8.5714    5.2821 N   0  0  0  0  0  0  0  0  0  0  0  0
   18.3342   -5.8190    6.4879 N   0  0  0  0  0  0  0  0  0  0  0  0
   17.7849   -4.6551    6.9054 C   0  0  0  0  0  0  0  0  0  0  0  0
   16.4345   -4.6839    6.6576 N   0  0  0  0  0  0  0  0  0  0  0  0
  2  1  1  1  0  0  0
  2  3  1  0  0  0  0
  2  5  1  0  0  0  0
  3  4  1  0  0  0  0
  3 17  1  0  0  0  0
  5  6  1  0  0  0  0
  7  6  1  1  0  0  0
  7  8  1  0  0  0  0
  7  9  1  0  0  0  0
 10  9  1  1  0  0  0
 10 11  1  0  0  0  0
 10 12  1  0  0  0  0
 11 16  1  0  0  0  0
 12 13  1  6  0  0  0
 12 14  1  0  0  0  0
 14 15  1  6  0  0  0
 14 16  1  0  0  0  0
 16 27  1  1  0  0  0
 18 19  2  0  0  0  0
 18 23  1  0  0  0  0
 19 20  1  0  0  0  0
 20 21  2  0  0  0  0
 21 22  1  0  0  0  0
 21 27  1  0  0  0  0
 22 23  2  0  0  0  0
 22 25  1  0  0  0  0
 23 24  1  0  0  0  0
 25 26  2  0  0  0  0
 26 27  1  0  0  0  0
M  END
>  <CHROM.1>
-44.05989511,-173.57823667,64.40921028,179.63624421,-171.11318755,-54.07921577
113.75684257,14.86853249,-6.05460358,8.45263703,-2.44340279,0.90067215,-0.52132498

>  <Name>
ligand

>  <RI>
0

>  <Rbt.Current_Directory>
/home/itssahil/PROJECTS/Mol_Feturizer/New_Systems/rnas/3GX5

>  <Rbt.Executable>
rbdock ($Id: //depot/dev/client3/rdock/2013.1/src/exe/rbdock.cxx#4 $)

>  <Rbt.Library>
libRbt.so (2013.1, Build901 2013/11/27)

>  <Rbt.Parameter_File>
/export/apps/rDock/src/rDock_2013.1_src/data/scripts/dock_solv.prm

>  <Rbt.Receptor>
prm/pocket_docking_6.prm

>  <SCORE>
-10.7775

>  <SCORE.INTER>
-10.509

>  <SCORE.INTER.CONST>
1

>  <SCORE.INTER.POLAR>
0

>  <SCORE.INTER.ROT>
7

>  <SCORE.INTER.SOLV>
13.7618

>  <SCORE.INTER.VDW>
-19.8599

>  <SCORE.INTER.norm>
-0.389221

>  <SCORE.INTRA>
-0.268566

>  <SCORE.INTRA.DIHEDRAL>
0.546979

>  <SCORE.INTRA.DIHEDRAL.0>
4.28829

>  <SCORE.INTRA.POLAR>
0

>  <SCORE.INTRA.POLAR.0>
0

>  <SCORE.INTRA.REPUL>
0

>  <SCORE.INTRA.REPUL.0>
0

>  <SCORE.INTRA.SOLV>
-0.810923

>  <SCORE.INTRA.SOLV.lig_0>
-48.6018

>  <SCORE.INTRA.VDW>
-0.136594

>  <SCORE.INTRA.VDW.0>
-2.1506

>  <SCORE.INTRA.norm>
-0.0099469

>  <SCORE.RESTR>
0

>  <SCORE.RESTR.CAVITY>
0

>  <SCORE.RESTR.norm>
0

>  <SCORE.SYSTEM>
0

>  <SCORE.SYSTEM.CONST>
0

>  <SCORE.SYSTEM.DIHEDRAL>
0

>  <SCORE.SYSTEM.SOLV>
0

>  <SCORE.SYSTEM.norm>
0

>  <SCORE.heavy>
27

>  <SCORE.norm>
-0.399168

>  <RMSD>
4.653

$$$$
ligand
 OpenBabel11021811483D
libRbt.so/2013.1/901 2013/11/27
 27 29  0  0  0  0  0  0  0  0999 V2000
   10.8696   -7.5526   13.0831 N   0  0  0  0  0  0  0  0  0  0  0  0
   10.8696   -7.8046   11.6408 C   0  0  2  0  0  0  0  0  0  0  0  0
   11.1296   -9.2529   11.2196 C   0  0  0  0  0  0  0  0  0  0  0  0
   11.0833   -9.5396   10.0240 O   0  0  0  0  0  0  0  0  0  0  0  0
   11.8212   -6.8612   10.9243 C   0  0  0  0  0  0  0  0  0  0  0  0
   13.1849   -6.8295   11.5928 C   0  0  0  0  0  0  0  0  0  0  0  0
   14.4090   -6.0766   10.5066 S   0  0  2  0  0  0  0  0  0  0  0  0
   15.8078   -5.9637   11.6422 C   0  0  0  0  0  0  0  0  0  0  0  0
   13.8591   -4.3545   10.5338 C   0  0  0  0  0  0  0  0  0  0  0  0
   14.1821   -3.6622    9.2225 C   0  0  1  0  0  0  0  0  0  0  0  0
   15.5614   -3.7438    8.9446 O   0  0  0  0  0  0  0  0  0  0  0  0
   13.5008   -4.3102    8.0333 C   0  0  1  0  0  0  0  0  0  0  0  0
   12.2809   -3.6501    7.8075 O   0  0  0  0  0  0  0  0  0  0  0  0
   14.4702   -4.0685    6.8941 C   0  0  1  0  0  0  0  0  0  0  0  0
   13.9889   -2.9658    6.1590 O   0  0  0  0  0  0  0  0  0  0  0  0
   15.8124   -3.7377    7.5503 C   0  0  2  0  0  0  0  0  0  0  0  0
   11.3792  -10.1520   12.0270 O   0  0  0  0  0  0  0  0  0  0  0  0
   19.5846   -6.7466    9.5838 N   0  0  0  0  0  0  0  0  0  0  0  0
   18.8401   -5.7831   10.2198 C   0  0  0  0  0  0  0  0  0  0  0  0
   17.8859   -5.0901    9.5077 N   0  0  0  0  0  0  0  0  0  0  0  0
   17.6694   -5.3445    8.1978 C   0  0  0  0  0  0  0  0  0  0  0  0
   18.4037   -6.3241    7.5453 C   0  0  0  0  0  0  0  0  0  0  0  0
   19.3795   -7.0265    8.2495 C   0  0  0  0  0  0  0  0  0  0  0  0
   20.1103   -7.9706    7.6560 N   0  0  0  0  0  0  0  0  0  0  0  0
   17.9795   -6.3747    6.2563 N   0  0  0  0  0  0  0  0  0  0  0  0
   16.9914   -5.4637    6.0999 C   0  0  0  0  0  0  0  0  0  0  0  0
   16.7820   -4.8216    7.2955 N   0  0  0  0  0  0  0  0  0  0  0  0
  2  1  1  1  0  0  0
  2  3  1  0  0  0  0
  2  5  1  0  0  0  0
  3  4  1  0  0  0  0
  3 17  1  0  0  0  0
  5  6  1  0  0  0  0
  7  6  1  1  0  0  0
  7  8  1  0  0  0  0
  7  9  1  0  0  0  0
 10  9  1  1  0  0  0
 10 11  1  0  0  0  0
 10 12  1  0  0  0  0
 11 16  1  0  0  0  0
 12 13  1  6  0  0  0
 12 14  1  0  0  0  0
 14 15  1  1  0  0  0
 14 16  1  0  0  0  0
 16 27  1  1  0  0  0
 18 19  2  0  0  0  0
 18 23  1  0  0  0  0
 19 20  1  0  0  0  0
 20 21  2  0  0  0  0
 21 22  1  0  0  0  0
 21 27  1  0  0  0  0
 22 23  2  0  0  0  0
 22 25  1  0  0  0  0
 23 24  1  0  0  0  0
 25 26  2  0  0  0  0
 26 27  1  0  0  0  0
M  END
>  <CHROM.1>
176.81307718,49.09626685,164.77952785,172.05656100,-149.47732663,-56.58756208
-24.55420588,14.97371777,-5.98463546,9.28794099,-2.58515734,0.21975877,-0.65324356

>  <Name>
ligand

>  <RI>
0

>  <Rbt.Current_Directory>
/home/itssahil/PROJECTS/Mol_Feturizer/New_Systems/rnas/3GX5

>  <Rbt.Executable>
rbdock ($Id: //depot/dev/client3/rdock/2013.1/src/exe/rbdock.cxx#4 $)

>  <Rbt.Library>
libRbt.so (2013.1, Build901 2013/11/27)

>  <Rbt.Parameter_File>
/export/apps/rDock/src/rDock_2013.1_src/data/scripts/dock_solv.prm

>  <Rbt.Receptor>
prm/pocket_docking_5.prm

>  <SCORE>
-12.6358

>  <SCORE.INTER>
-13.831

>  <SCORE.INTER.CONST>
1

>  <SCORE.INTER.POLAR>
0

>  <SCORE.INTER.ROT>
7

>  <SCORE.INTER.SOLV>
11.98

>  <SCORE.INTER.VDW>
-21.4807

>  <SCORE.INTER.norm>
-0.51226

>  <SCORE.INTRA>
1.18493

>  <SCORE.INTRA.DIHEDRAL>
3.61332

>  <SCORE.INTRA.DIHEDRAL.0>
4.28829

>  <SCORE.INTRA.POLAR>
0

>  <SCORE.INTRA.POLAR.0>
0

>  <SCORE.INTRA.REPUL>
0

>  <SCORE.INTRA.REPUL.0>
0

>  <SCORE.INTRA.SOLV>
-0.257942

>  <SCORE.INTRA.SOLV.lig_0>
-48.6018

>  <SCORE.INTRA.VDW>
-0.492758

>  <SCORE.INTRA.VDW.0>
-2.1506

>  <SCORE.INTRA.norm>
0.0438863

>  <SCORE.RESTR>
0.0102936

>  <SCORE.RESTR.CAVITY>
0.0102936

>  <SCORE.RESTR.norm>
0.000381243

>  <SCORE.SYSTEM>
0

>  <SCORE.SYSTEM.CONST>
0

>  <SCORE.SYSTEM.DIHEDRAL>
0

>  <SCORE.SYSTEM.SOLV>
0

>  <SCORE.SYSTEM.norm>
0

>  <SCORE.heavy>
27

>  <SCORE.norm>
-0.467993

>  <RMSD>
4.733

$$$$
ligand
 OpenBabel11021811483D
libRbt.so/2013.1/901 2013/11/27
 27 29  0  0  0  0  0  0  0  0999 V2000
   12.1400   -8.6629    8.9277 N   0  0  0  0  0  0  0  0  0  0  0  0
   12.4804   -8.9670   10.3189 C   0  0  2  0  0  0  0  0  0  0  0  0
   11.3328   -8.8483   11.3247 C   0  0  0  0  0  0  0  0  0  0  0  0
   10.2026   -9.1878   10.9768 O   0  0  0  0  0  0  0  0  0  0  0  0
   13.6777   -8.1508   10.7764 C   0  0  0  0  0  0  0  0  0  0  0  0
   13.4226   -6.6597   10.6388 C   0  0  0  0  0  0  0  0  0  0  0  0
   14.9216   -5.7227   10.9856 S   0  0  2  0  0  0  0  0  0  0  0  0
   14.8963   -5.7485   12.7905 C   0  0  0  0  0  0  0  0  0  0  0  0
   14.3308   -4.0380   10.7000 C   0  0  0  0  0  0  0  0  0  0  0  0
   14.4983   -3.6451    9.2438 C   0  0  1  0  0  0  0  0  0  0  0  0
   15.8627   -3.6118    8.8923 O   0  0  0  0  0  0  0  0  0  0  0  0
   13.8693   -4.6423    8.2908 C   0  0  1  0  0  0  0  0  0  0  0  0
   12.5594   -4.2193    8.0076 O   0  0  0  0  0  0  0  0  0  0  0  0
   14.7475   -4.5579    7.0588 C   0  0  1  0  0  0  0  0  0  0  0  0
   14.0841   -3.7358    6.1249 O   0  0  0  0  0  0  0  0  0  0  0  0
   16.0538   -3.9084    7.5202 C   0  0  2  0  0  0  0  0  0  0  0  0
   11.4875   -8.4208   12.4719 O   0  0  0  0  0  0  0  0  0  0  0  0
   19.7287   -6.4875   10.2150 N   0  0  0  0  0  0  0  0  0  0  0  0
   18.7957   -5.6019   10.6969 C   0  0  0  0  0  0  0  0  0  0  0  0
   17.9055   -5.0189    9.8220 N   0  0  0  0  0  0  0  0  0  0  0  0
   17.9337   -5.3059    8.5012 C   0  0  0  0  0  0  0  0  0  0  0  0
   18.8610   -6.2089    8.0018 C   0  0  0  0  0  0  0  0  0  0  0  0
   19.7746   -6.7989    8.8727 C   0  0  0  0  0  0  0  0  0  0  0  0
   20.6852   -7.6664    8.4300 N   0  0  0  0  0  0  0  0  0  0  0  0
   18.6612   -6.3149    6.6628 N   0  0  0  0  0  0  0  0  0  0  0  0
   17.6244   -5.5139    6.3250 C   0  0  0  0  0  0  0  0  0  0  0  0
   17.1575   -4.8869    7.4539 N   0  0  0  0  0  0  0  0  0  0  0  0
  2  1  1  6  0  0  0
  2  3  1  0  0  0  0
  2  5  1  0  0  0  0
  3  4  1  0  0  0  0
  3 17  1  0  0  0  0
  5  6  1  0  0  0  0
  7  6  1  6  0  0  0
  7  8  1  0  0  0  0
  7  9  1  0  0  0  0
 10  9  1  1  0  0  0
 10 11  1  0  0  0  0
 10 12  1  0  0  0  0
 11 16  1  0  0  0  0
 12 13  1  6  0  0  0
 12 14  1  0  0  0  0
 14 15  1  6  0  0  0
 14 16  1  0  0  0  0
 16 27  1  1  0  0  0
 18 19  2  0  0  0  0
 18 23  1  0  0  0  0
 19 20  1  0  0  0  0
 20 21  2  0  0  0  0
 21 22  1  0  0  0  0
 21 27  1  0  0  0  0
 22 23  2  0  0  0  0
 22 25  1  0  0  0  0
 23 24  1  0  0  0  0
 25 26  2  0  0  0  0
 26 27  1  0  0  0  0
M  END
>  <CHROM.1>
36.60049132,57.97674169,-172.78205988,-79.78038969,-88.54958874,-64.19227079
-6.49946581,15.33151307,-6.00058711,9.36979413,2.65653803,-0.05661205,2.36881385

>  <Name>
ligand

>  <RI>
0

>  <Rbt.Current_Directory>
/home/itssahil/PROJECTS/Mol_Feturizer/New_Systems/rnas/3GX5

>  <Rbt.Executable>
rbdock ($Id: //depot/dev/client3/rdock/2013.1/src/exe/rbdock.cxx#4 $)

>  <Rbt.Library>
libRbt.so (2013.1, Build901 2013/11/27)

>  <Rbt.Parameter_File>
/export/apps/rDock/src/rDock_2013.1_src/data/scripts/dock_solv.prm

>  <Rbt.Receptor>
prm/pocket_docking_8.prm

>  <SCORE>
-11.9965

>  <SCORE.INTER>
-12.2714

>  <SCORE.INTER.CONST>
1

>  <SCORE.INTER.POLAR>
0

>  <SCORE.INTER.ROT>
7

>  <SCORE.INTER.SOLV>
13.1706

>  <SCORE.INTER.VDW>
-20.8378

>  <SCORE.INTER.norm>
-0.454498

>  <SCORE.INTRA>
0.274397

>  <SCORE.INTRA.DIHEDRAL>
0.793169

>  <SCORE.INTRA.DIHEDRAL.0>
4.28829

>  <SCORE.INTRA.POLAR>
0

>  <SCORE.INTRA.POLAR.0>
0

>  <SCORE.INTRA.REPUL>
0

>  <SCORE.INTRA.REPUL.0>
0

>  <SCORE.INTRA.SOLV>
-0.00554082

>  <SCORE.INTRA.SOLV.lig_0>
-48.6018

>  <SCORE.INTRA.VDW>
-0.119417

>  <SCORE.INTRA.VDW.0>
-2.1506

>  <SCORE.INTRA.norm>
0.0101628

>  <SCORE.RESTR>
0.000541498

>  <SCORE.RESTR.CAVITY>
0.000541498

>  <SCORE.RESTR.norm>
2.00555e-05

>  <SCORE.SYSTEM>
0

>  <SCORE.SYSTEM.CONST>
0

>  <SCORE.SYSTEM.DIHEDRAL>
0

>  <SCORE.SYSTEM.SOLV>
0

>  <SCORE.SYSTEM.norm>
0

>  <SCORE.heavy>
27

>  <SCORE.norm>
-0.444315

>  <RMSD>
4.739

$$$$
ligand
 OpenBabel11021811483D
libRbt.so/2013.1/901 2013/11/27
 27 29  0  0  0  0  0  0  0  0999 V2000
   14.1901   -8.7734   12.4559 N   0  0  0  0  0  0  0  0  0  0  0  0
   15.5706   -8.4092   12.1314 C   0  0  2  0  0  0  0  0  0  0  0  0
   16.6181   -9.5002   12.3665 C   0  0  0  0  0  0  0  0  0  0  0  0
   17.3463   -9.8334   11.4325 O   0  0  0  0  0  0  0  0  0  0  0  0
   15.9726   -7.1230   12.8336 C   0  0  0  0  0  0  0  0  0  0  0  0
   15.1620   -5.9384   12.3366 C   0  0  0  0  0  0  0  0  0  0  0  0
   15.4732   -5.6430   10.5870 S   0  0  2  0  0  0  0  0  0  0  0  0
   17.1649   -5.0183   10.6711 C   0  0  0  0  0  0  0  0  0  0  0  0
   14.5877   -4.0842   10.3532 C   0  0  0  0  0  0  0  0  0  0  0  0
   14.5449   -3.7007    8.8855 C   0  0  1  0  0  0  0  0  0  0  0  0
   15.8149   -3.8559    8.2946 O   0  0  0  0  0  0  0  0  0  0  0  0
   13.6209   -4.5873    8.0740 C   0  0  1  0  0  0  0  0  0  0  0  0
   12.3544   -3.9802    8.0249 O   0  0  0  0  0  0  0  0  0  0  0  0
   14.2667   -4.6122    6.7034 C   0  0  1  0  0  0  0  0  0  0  0  0
   13.5692   -3.6932    5.8930 O   0  0  0  0  0  0  0  0  0  0  0  0
   15.7130   -4.1593    6.9145 C   0  0  2  0  0  0  0  0  0  0  0  0
   16.7636  -10.0679   13.4525 O   0  0  0  0  0  0  0  0  0  0  0  0
   16.7223   -9.2216    7.7931 N   0  0  0  0  0  0  0  0  0  0  0  0
   15.6418   -8.4904    8.2233 C   0  0  0  0  0  0  0  0  0  0  0  0
   15.5542   -7.1572    7.8877 N   0  0  0  0  0  0  0  0  0  0  0  0
   16.5102   -6.5597    7.1416 C   0  0  0  0  0  0  0  0  0  0  0  0
   17.6001   -7.2885    6.6882 C   0  0  0  0  0  0  0  0  0  0  0  0
   17.7081   -8.6354    7.0280 C   0  0  0  0  0  0  0  0  0  0  0  0
   18.7437   -9.3676    6.6171 N   0  0  0  0  0  0  0  0  0  0  0  0
   18.3890   -6.4530    5.9645 N   0  0  0  0  0  0  0  0  0  0  0  0
   17.8066   -5.2319    5.9453 C   0  0  0  0  0  0  0  0  0  0  0  0
   16.6377   -5.2828    6.6642 N   0  0  0  0  0  0  0  0  0  0  0  0
  2  1  1  1  0  0  0
  2  3  1  0  0  0  0
  2  5  1  0  0  0  0
  3  4  1  0  0  0  0
  3 17  1  0  0  0  0
  5  6  1  0  0  0  0
  7  6  1  1  0  0  0
  7  8  1  0  0  0  0
  7  9  1  0  0  0  0
 10  9  1  1  0  0  0
 10 11  1  0  0  0  0
 10 12  1  0  0  0  0
 11 16  1  0  0  0  0
 12 13  1  6  0  0  0
 12 14  1  0  0  0  0
 14 15  1  6  0  0  0
 14 16  1  0  0  0  0
 16 27  1  1  0  0  0
 18 19  2  0  0  0  0
 18 23  1  0  0  0  0
 19 20  1  0  0  0  0
 20 21  2  0  0  0  0
 21 22  1  0  0  0  0
 21 27  1  0  0  0  0
 22 23  2  0  0  0  0
 22 25  1  0  0  0  0
 23 24  1  0  0  0  0
 25 26  2  0  0  0  0
 26 27  1  0  0  0  0
M  END
>  <CHROM.1>
124.73768308,-64.91303610,-63.05042039,-70.55278144,-172.56356494,-45.96303215
67.08727456,15.87314011,-6.47630824,9.06979663,1.30706440,-0.89699830,2.04854195

>  <Name>
ligand

>  <RI>
0

>  <Rbt.Current_Directory>
/home/itssahil/PROJECTS/Mol_Feturizer/New_Systems/rnas/3GX5

>  <Rbt.Executable>
rbdock ($Id: //depot/dev/client3/rdock/2013.1/src/exe/rbdock.cxx#4 $)

>  <Rbt.Library>
libRbt.so (2013.1, Build901 2013/11/27)

>  <Rbt.Parameter_File>
/export/apps/rDock/src/rDock_2013.1_src/data/scripts/dock_solv.prm

>  <Rbt.Receptor>
prm/pocket_docking_8.prm

>  <SCORE>
-9.87609

>  <SCORE.INTER>
-8.38317

>  <SCORE.INTER.CONST>
1

>  <SCORE.INTER.POLAR>
0

>  <SCORE.INTER.ROT>
7

>  <SCORE.INTER.SOLV>
11.4524

>  <SCORE.INTER.VDW>
-17.6729

>  <SCORE.INTER.norm>
-0.310488

>  <SCORE.INTRA>
-1.49292

>  <SCORE.INTRA.DIHEDRAL>
0.717202

>  <SCORE.INTRA.DIHEDRAL.0>
4.28829

>  <SCORE.INTRA.POLAR>
0

>  <SCORE.INTRA.POLAR.0>
0

>  <SCORE.INTRA.REPUL>
0

>  <SCORE.INTRA.REPUL.0>
0

>  <SCORE.INTRA.SOLV>
0.278811

>  <SCORE.INTRA.SOLV.lig_0>
-48.6018

>  <SCORE.INTRA.VDW>
-1.99092

>  <SCORE.INTRA.VDW.0>
-2.1506

>  <SCORE.INTRA.norm>
-0.0552932

>  <SCORE.RESTR>
0

>  <SCORE.RESTR.CAVITY>
0

>  <SCORE.RESTR.norm>
0

>  <SCORE.SYSTEM>
0

>  <SCORE.SYSTEM.CONST>
0

>  <SCORE.SYSTEM.DIHEDRAL>
0

>  <SCORE.SYSTEM.SOLV>
0

>  <SCORE.SYSTEM.norm>
0

>  <SCORE.heavy>
27

>  <SCORE.norm>
-0.365781

>  <RMSD>
4.753

$$$$
ligand
 OpenBabel11021811483D
libRbt.so/2013.1/901 2013/11/27
 27 29  0  0  0  0  0  0  0  0999 V2000
   14.9551   -8.5272   13.8995 N   0  0  0  0  0  0  0  0  0  0  0  0
   14.7560   -8.7718   12.4697 C   0  0  2  0  0  0  0  0  0  0  0  0
   15.1961  -10.1477   11.9636 C   0  0  0  0  0  0  0  0  0  0  0  0
   14.4348  -10.7821   11.2344 O   0  0  0  0  0  0  0  0  0  0  0  0
   15.3880   -7.6694   11.6366 C   0  0  0  0  0  0  0  0  0  0  0  0
   14.6971   -7.5193   10.2922 C   0  0  0  0  0  0  0  0  0  0  0  0
   13.0619   -6.7909   10.4946 S   0  0  2  0  0  0  0  0  0  0  0  0
   12.0746   -8.2889   10.6950 C   0  0  0  0  0  0  0  0  0  0  0  0
   12.6627   -6.3945    8.7764 C   0  0  0  0  0  0  0  0  0  0  0  0
   13.4534   -5.1896    8.3009 C   0  0  1  0  0  0  0  0  0  0  0  0
   14.8208   -5.5089    8.1813 O   0  0  0  0  0  0  0  0  0  0  0  0
   13.0354   -4.7206    6.9212 C   0  0  1  0  0  0  0  0  0  0  0  0
   12.0575   -3.7222    7.0699 O   0  0  0  0  0  0  0  0  0  0  0  0
   14.3125   -4.1500    6.3386 C   0  0  1  0  0  0  0  0  0  0  0  0
   14.2502   -2.7486    6.4805 O   0  0  0  0  0  0  0  0  0  0  0  0
   15.4514   -4.7295    7.1803 C   0  0  2  0  0  0  0  0  0  0  0  0
   16.2815  -10.6554   12.2584 O   0  0  0  0  0  0  0  0  0  0  0  0
   15.5247   -9.3016    4.6290 N   0  0  0  0  0  0  0  0  0  0  0  0
   14.4715   -8.7259    5.2973 C   0  0  0  0  0  0  0  0  0  0  0  0
   14.6504   -7.5069    5.9135 N   0  0  0  0  0  0  0  0  0  0  0  0
   15.8414   -6.8689    5.8687 C   0  0  0  0  0  0  0  0  0  0  0  0
   16.9102   -7.4311    5.1859 C   0  0  0  0  0  0  0  0  0  0  0  0
   16.7478   -8.6685    4.5663 C   0  0  0  0  0  0  0  0  0  0  0  0
   17.7529   -9.2444    3.9062 N   0  0  0  0  0  0  0  0  0  0  0  0
   17.9664   -6.5843    5.2937 N   0  0  0  0  0  0  0  0  0  0  0  0
   17.5731   -5.5066    6.0109 C   0  0  0  0  0  0  0  0  0  0  0  0
   16.2568   -5.6638    6.3688 N   0  0  0  0  0  0  0  0  0  0  0  0
  2  1  1  1  0  0  0
  2  3  1  0  0  0  0
  2  5  1  0  0  0  0
  3  4  1  0  0  0  0
  3 17  1  0  0  0  0
  5  6  1  0  0  0  0
  7  6  1  6  0  0  0
  7  8  1  0  0  0  0
  7  9  1  0  0  0  0
 10  9  1  6  0  0  0
 10 11  1  0  0  0  0
 10 12  1  0  0  0  0
 11 16  1  0  0  0  0
 12 13  1  1  0  0  0
 12 14  1  0  0  0  0
 14 15  1  1  0  0  0
 14 16  1  0  0  0  0
 16 27  1  6  0  0  0
 18 19  2  0  0  0  0
 18 23  1  0  0  0  0
 19 20  1  0  0  0  0
 20 21  2  0  0  0  0
 21 22  1  0  0  0  0
 21 27  1  0  0  0  0
 22 23  2  0  0  0  0
 22 25  1  0  0  0  0
 23 24  1  0  0  0  0
 25 26  2  0  0  0  0
 26 27  1  0  0  0  0
M  END
>  <CHROM.1>
133.15483380,-153.63868673,71.51940541,-90.45197491,-74.06533511,69.30185143
46.83680949,14.84717745,-7.07828106,8.23721933,1.85858623,-0.91563075,2.20089710

>  <Name>
ligand

>  <RI>
0

>  <Rbt.Current_Directory>
/home/itssahil/PROJECTS/Mol_Feturizer/New_Systems/rnas/3GX5

>  <Rbt.Executable>
rbdock ($Id: //depot/dev/client3/rdock/2013.1/src/exe/rbdock.cxx#4 $)

>  <Rbt.Library>
libRbt.so (2013.1, Build901 2013/11/27)

>  <Rbt.Parameter_File>
/export/apps/rDock/src/rDock_2013.1_src/data/scripts/dock_solv.prm

>  <Rbt.Receptor>
prm/pocket_docking_5.prm

>  <SCORE>
-11.362

>  <SCORE.INTER>
-11.4274

>  <SCORE.INTER.CONST>
1

>  <SCORE.INTER.POLAR>
0

>  <SCORE.INTER.ROT>
7

>  <SCORE.INTER.SOLV>
12.043

>  <SCORE.INTER.VDW>
-19.8992

>  <SCORE.INTER.norm>
-0.423235

>  <SCORE.INTRA>
0.0653545

>  <SCORE.INTRA.DIHEDRAL>
3.36449

>  <SCORE.INTRA.DIHEDRAL.0>
4.28829

>  <SCORE.INTRA.POLAR>
0

>  <SCORE.INTRA.POLAR.0>
0

>  <SCORE.INTRA.REPUL>
0

>  <SCORE.INTRA.REPUL.0>
0

>  <SCORE.INTRA.SOLV>
-0.441121

>  <SCORE.INTRA.SOLV.lig_0>
-48.6018

>  <SCORE.INTRA.VDW>
-1.39633

>  <SCORE.INTRA.VDW.0>
-2.1506

>  <SCORE.INTRA.norm>
0.00242054

>  <SCORE.RESTR>
0

>  <SCORE.RESTR.CAVITY>
0

>  <SCORE.RESTR.norm>
0

>  <SCORE.SYSTEM>
0

>  <SCORE.SYSTEM.CONST>
0

>  <SCORE.SYSTEM.DIHEDRAL>
0

>  <SCORE.SYSTEM.SOLV>
0

>  <SCORE.SYSTEM.norm>
0

>  <SCORE.heavy>
27

>  <SCORE.norm>
-0.420815

>  <RMSD>
4.758

$$$$
ligand
 OpenBabel11021811483D
libRbt.so/2013.1/901 2013/11/27
 27 29  0  0  0  0  0  0  0  0999 V2000
   16.3022   -3.8163    8.5039 N   0  0  0  0  0  0  0  0  0  0  0  0
   15.6470   -3.9499    7.2013 C   0  0  2  0  0  0  0  0  0  0  0  0
   14.2312   -3.3756    7.1080 C   0  0  0  0  0  0  0  0  0  0  0  0
   13.7511   -2.8198    8.0951 O   0  0  0  0  0  0  0  0  0  0  0  0
   15.6699   -5.3933    6.7270 C   0  0  0  0  0  0  0  0  0  0  0  0
   17.0874   -5.8738    6.4684 C   0  0  0  0  0  0  0  0  0  0  0  0
   17.3717   -7.4701    7.2534 S   0  0  2  0  0  0  0  0  0  0  0  0
   19.1765   -7.4827    7.2926 C   0  0  0  0  0  0  0  0  0  0  0  0
   17.0931   -8.5801    5.8537 C   0  0  0  0  0  0  0  0  0  0  0  0
   15.6153   -8.8835    5.6892 C   0  0  1  0  0  0  0  0  0  0  0  0
   15.0391   -9.2321    6.9272 O   0  0  0  0  0  0  0  0  0  0  0  0
   14.8204   -7.6860    5.2070 C   0  0  1  0  0  0  0  0  0  0  0  0
   14.7446   -7.7398    3.8047 O   0  0  0  0  0  0  0  0  0  0  0  0
   13.4563   -7.8897    5.8346 C   0  0  1  0  0  0  0  0  0  0  0  0
   12.6157   -8.4391    4.8449 O   0  0  0  0  0  0  0  0  0  0  0  0
   13.6669   -8.8835    6.9790 C   0  0  2  0  0  0  0  0  0  0  0  0
   13.5433   -3.4492    6.0862 O   0  0  0  0  0  0  0  0  0  0  0  0
   15.4834   -8.1719   11.8382 N   0  0  0  0  0  0  0  0  0  0  0  0
   16.0405   -8.9223   10.8314 C   0  0  0  0  0  0  0  0  0  0  0  0
   15.4060   -8.9881    9.6105 N   0  0  0  0  0  0  0  0  0  0  0  0
   14.2489   -8.3257    9.3871 C   0  0  0  0  0  0  0  0  0  0  0  0
   13.6815   -7.5527   10.3897 C   0  0  0  0  0  0  0  0  0  0  0  0
   14.3059   -7.4844   11.6333 C   0  0  0  0  0  0  0  0  0  0  0  0
   13.7883   -6.7577   12.6240 N   0  0  0  0  0  0  0  0  0  0  0  0
   12.5435   -6.9994    9.8966 N   0  0  0  0  0  0  0  0  0  0  0  0
   12.4023   -7.3970    8.6111 C   0  0  0  0  0  0  0  0  0  0  0  0
   13.4545   -8.2138    8.2775 N   0  0  0  0  0  0  0  0  0  0  0  0
  2  1  1  1  0  0  0
  2  3  1  0  0  0  0
  2  5  1  0  0  0  0
  3  4  1  0  0  0  0
  3 17  1  0  0  0  0
  5  6  1  0  0  0  0
  7  6  1  6  0  0  0
  7  8  1  0  0  0  0
  7  9  1  0  0  0  0
 10  9  1  1  0  0  0
 10 11  1  0  0  0  0
 10 12  1  0  0  0  0
 11 16  1  0  0  0  0
 12 13  1  6  0  0  0
 12 14  1  0  0  0  0
 14 15  1  6  0  0  0
 14 16  1  0  0  0  0
 16 27  1  1  0  0  0
 18 19  2  0  0  0  0
 18 23  1  0  0  0  0
 19 20  1  0  0  0  0
 20 21  2  0  0  0  0
 21 22  1  0  0  0  0
 21 27  1  0  0  0  0
 22 23  2  0  0  0  0
 22 25  1  0  0  0  0
 23 24  1  0  0  0  0
 25 26  2  0  0  0  0
 26 27  1  0  0  0  0
M  END
>  <CHROM.1>
1.78488339,-64.87131211,131.65108456,-160.82681821,-84.45355386,-47.47683512
-21.29736273,14.98757807,-7.02268455,7.77462180,2.21647380,-1.25784963,2.31336720

>  <Name>
ligand

>  <RI>
0

>  <Rbt.Current_Directory>
/home/itssahil/PROJECTS/Mol_Feturizer/New_Systems/rnas/3GX5

>  <Rbt.Executable>
rbdock ($Id: //depot/dev/client3/rdock/2013.1/src/exe/rbdock.cxx#4 $)

>  <Rbt.Library>
libRbt.so (2013.1, Build901 2013/11/27)

>  <Rbt.Parameter_File>
/export/apps/rDock/src/rDock_2013.1_src/data/scripts/dock_solv.prm

>  <Rbt.Receptor>
prm/pocket_docking_4.prm

>  <SCORE>
-4.79558

>  <SCORE.INTER>
-8.09519

>  <SCORE.INTER.CONST>
1

>  <SCORE.INTER.POLAR>
0

>  <SCORE.INTER.ROT>
7

>  <SCORE.INTER.SOLV>
8.46798

>  <SCORE.INTER.VDW>
-16.4861

>  <SCORE.INTER.norm>
-0.299822

>  <SCORE.INTRA>
3.05859

>  <SCORE.INTRA.DIHEDRAL>
7.39895

>  <SCORE.INTRA.DIHEDRAL.0>
4.28829

>  <SCORE.INTRA.POLAR>
0

>  <SCORE.INTRA.POLAR.0>
0

>  <SCORE.INTRA.REPUL>
0

>  <SCORE.INTRA.REPUL.0>
0

>  <SCORE.INTRA.SOLV>
0.404555

>  <SCORE.INTRA.SOLV.lig_0>
-48.6018

>  <SCORE.INTRA.VDW>
-0.843158

>  <SCORE.INTRA.VDW.0>
-2.1506

>  <SCORE.INTRA.norm>
0.113281

>  <SCORE.RESTR>
0.241019

>  <SCORE.RESTR.CAVITY>
0.241019

>  <SCORE.RESTR.norm>
0.00892662

>  <SCORE.SYSTEM>
0

>  <SCORE.SYSTEM.CONST>
0

>  <SCORE.SYSTEM.DIHEDRAL>
0

>  <SCORE.SYSTEM.SOLV>
0

>  <SCORE.SYSTEM.norm>
0

>  <SCORE.heavy>
27

>  <SCORE.norm>
-0.177614

>  <RMSD>
4.773

$$$$
ligand
 OpenBabel11021811483D
libRbt.so/2013.1/901 2013/11/27
 27 29  0  0  0  0  0  0  0  0999 V2000
   15.1998   -7.2160   11.2205 N   0  0  0  0  0  0  0  0  0  0  0  0
   15.1696   -5.7549   11.1313 C   0  0  2  0  0  0  0  0  0  0  0  0
   15.2160   -5.0069   12.4660 C   0  0  0  0  0  0  0  0  0  0  0  0
   14.6917   -5.5223   13.4525 O   0  0  0  0  0  0  0  0  0  0  0  0
   13.9894   -5.2856   10.2972 C   0  0  0  0  0  0  0  0  0  0  0  0
   14.1870   -3.8640    9.7999 C   0  0  0  0  0  0  0  0  0  0  0  0
   15.1690   -3.8485    8.2897 S   0  0  2  0  0  0  0  0  0  0  0  0
   15.6490   -2.1087    8.2463 C   0  0  0  0  0  0  0  0  0  0  0  0
   13.8584   -3.8305    7.0445 C   0  0  0  0  0  0  0  0  0  0  0  0
   13.7602   -5.1724    6.3425 C   0  0  1  0  0  0  0  0  0  0  0  0
   14.9347   -5.4365    5.6097 O   0  0  0  0  0  0  0  0  0  0  0  0
   13.6289   -6.3325    7.3096 C   0  0  1  0  0  0  0  0  0  0  0  0
   12.2621   -6.5991    7.4990 O   0  0  0  0  0  0  0  0  0  0  0  0
   14.3121   -7.4757    6.5869 C   0  0  1  0  0  0  0  0  0  0  0  0
   13.3021   -8.2680    6.0035 O   0  0  0  0  0  0  0  0  0  0  0  0
   15.1828   -6.8277    5.5083 C   0  0  2  0  0  0  0  0  0  0  0  0
   15.7523   -3.9035   12.5985 O   0  0  0  0  0  0  0  0  0  0  0  0
   19.4527   -9.7413    4.6738 N   0  0  0  0  0  0  0  0  0  0  0  0
   18.2072   -9.8911    4.1138 C   0  0  0  0  0  0  0  0  0  0  0  0
   17.2019   -9.0168    4.4638 N   0  0  0  0  0  0  0  0  0  0  0  0
   17.4216   -8.0151    5.3447 C   0  0  0  0  0  0  0  0  0  0  0  0
   18.6777   -7.8427    5.9079 C   0  0  0  0  0  0  0  0  0  0  0  0
   19.7021   -8.7252    5.5717 C   0  0  0  0  0  0  0  0  0  0  0  0
   20.9208   -8.5965    6.0967 N   0  0  0  0  0  0  0  0  0  0  0  0
   18.6189   -6.7702    6.7388 N   0  0  0  0  0  0  0  0  0  0  0  0
   17.3643   -6.2660    6.6909 C   0  0  0  0  0  0  0  0  0  0  0  0
   16.6115   -7.0217    5.8260 N   0  0  0  0  0  0  0  0  0  0  0  0
  2  1  1  1  0  0  0
  2  3  1  0  0  0  0
  2  5  1  0  0  0  0
  3  4  1  0  0  0  0
  3 17  1  0  0  0  0
  5  6  1  0  0  0  0
  7  6  1  1  0  0  0
  7  8  1  0  0  0  0
  7  9  1  0  0  0  0
 10  9  1  1  0  0  0
 10 11  1  0  0  0  0
 10 12  1  0  0  0  0
 11 16  1  0  0  0  0
 12 13  1  6  0  0  0
 12 14  1  0  0  0  0
 14 15  1  6  0  0  0
 14 16  1  0  0  0  0
 16 27  1  1  0  0  0
 18 19  2  0  0  0  0
 18 23  1  0  0  0  0
 19 20  1  0  0  0  0
 20 21  2  0  0  0  0
 21 22  1  0  0  0  0
 21 27  1  0  0  0  0
 22 23  2  0  0  0  0
 22 25  1  0  0  0  0
 23 24  1  0  0  0  0
 25 26  2  0  0  0  0
 26 27  1  0  0  0  0
M  END
>  <CHROM.1>
-32.35839166,-160.71588917,84.02989829,-163.44448589,-107.74019255,-64.70369130
-150.64149433,15.82422275,-6.27757514,7.68824250,-2.11797032,0.44009328,-1.93284505

>  <Name>
ligand

>  <RI>
0

>  <Rbt.Current_Directory>
/home/itssahil/PROJECTS/Mol_Feturizer/New_Systems/rnas/3GX5

>  <Rbt.Executable>
rbdock ($Id: //depot/dev/client3/rdock/2013.1/src/exe/rbdock.cxx#4 $)

>  <Rbt.Library>
libRbt.so (2013.1, Build901 2013/11/27)

>  <Rbt.Parameter_File>
/export/apps/rDock/src/rDock_2013.1_src/data/scripts/dock_solv.prm

>  <Rbt.Receptor>
prm/pocket_docking_8.prm

>  <SCORE>
-13.4322

>  <SCORE.INTER>
-15.2304

>  <SCORE.INTER.CONST>
1

>  <SCORE.INTER.POLAR>
0

>  <SCORE.INTER.ROT>
7

>  <SCORE.INTER.SOLV>
8.13169

>  <SCORE.INTER.VDW>
-21.1308

>  <SCORE.INTER.norm>
-0.564089

>  <SCORE.INTRA>
1.79818

>  <SCORE.INTRA.DIHEDRAL>
6.99269

>  <SCORE.INTRA.DIHEDRAL.0>
4.28829

>  <SCORE.INTRA.POLAR>
0

>  <SCORE.INTRA.POLAR.0>
0

>  <SCORE.INTRA.REPUL>
0

>  <SCORE.INTRA.REPUL.0>
0

>  <SCORE.INTRA.SOLV>
-0.444229

>  <SCORE.INTRA.SOLV.lig_0>
-48.6018

>  <SCORE.INTRA.VDW>
-1.47605

>  <SCORE.INTRA.VDW.0>
-2.1506

>  <SCORE.INTRA.norm>
0.0665994

>  <SCORE.RESTR>
0

>  <SCORE.RESTR.CAVITY>
0

>  <SCORE.RESTR.norm>
0

>  <SCORE.SYSTEM>
0

>  <SCORE.SYSTEM.CONST>
0

>  <SCORE.SYSTEM.DIHEDRAL>
0

>  <SCORE.SYSTEM.SOLV>
0

>  <SCORE.SYSTEM.norm>
0

>  <SCORE.heavy>
27

>  <SCORE.norm>
-0.49749

>  <RMSD>
4.798

$$$$
ligand
 OpenBabel11021811483D
libRbt.so/2013.1/901 2013/11/27
 27 29  0  0  0  0  0  0  0  0999 V2000
   21.0091   -7.5885    8.6655 N   0  0  0  0  0  0  0  0  0  0  0  0
   19.6583   -7.2265    8.2320 C   0  0  2  0  0  0  0  0  0  0  0  0
   18.6965   -6.7984    9.3432 C   0  0  0  0  0  0  0  0  0  0  0  0
   18.3501   -7.6310   10.1801 O   0  0  0  0  0  0  0  0  0  0  0  0
   19.0432   -8.3318    7.3901 C   0  0  0  0  0  0  0  0  0  0  0  0
   19.8240   -8.5566    6.1067 C   0  0  0  0  0  0  0  0  0  0  0  0
   19.2103  -10.0082    5.2342 S   0  0  2  0  0  0  0  0  0  0  0  0
   20.5956  -10.3108    4.1169 C   0  0  0  0  0  0  0  0  0  0  0  0
   18.0549   -9.2344    4.0788 C   0  0  0  0  0  0  0  0  0  0  0  0
   16.6523   -9.1998    4.6573 C   0  0  1  0  0  0  0  0  0  0  0  0
   16.6227   -8.4378    5.8425 O   0  0  0  0  0  0  0  0  0  0  0  0
   15.6528   -8.5320    3.7336 C   0  0  1  0  0  0  0  0  0  0  0  0
   15.0468   -9.5245    2.9444 O   0  0  0  0  0  0  0  0  0  0  0  0
   14.6531   -7.9068    4.6853 C   0  0  1  0  0  0  0  0  0  0  0  0
   13.5361   -8.7652    4.7456 O   0  0  0  0  0  0  0  0  0  0  0  0
   15.3558   -7.8362    6.0427 C   0  0  2  0  0  0  0  0  0  0  0  0
   18.2457   -5.6535    9.4362 O   0  0  0  0  0  0  0  0  0  0  0  0
   13.2694   -3.0837    6.7346 N   0  0  0  0  0  0  0  0  0  0  0  0
   12.6238   -4.2453    6.3865 C   0  0  0  0  0  0  0  0  0  0  0  0
   13.3530   -5.4060    6.2498 N   0  0  0  0  0  0  0  0  0  0  0  0
   14.6891   -5.4207    6.4550 C   0  0  0  0  0  0  0  0  0  0  0  0
   15.3529   -4.2586    6.8205 C   0  0  0  0  0  0  0  0  0  0  0  0
   14.6308   -3.0744    6.9527 C   0  0  0  0  0  0  0  0  0  0  0  0
   15.2336   -1.9358    7.2959 N   0  0  0  0  0  0  0  0  0  0  0  0
   16.6691   -4.5585    6.9683 N   0  0  0  0  0  0  0  0  0  0  0  0
   16.8328   -5.8784    6.7198 C   0  0  0  0  0  0  0  0  0  0  0  0
   15.6143   -6.4290    6.4072 N   0  0  0  0  0  0  0  0  0  0  0  0
  2  1  1  1  0  0  0
  2  3  1  0  0  0  0
  2  5  1  0  0  0  0
  3  4  1  0  0  0  0
  3 17  1  0  0  0  0
  5  6  1  0  0  0  0
  7  6  1  1  0  0  0
  7  8  1  0  0  0  0
  7  9  1  0  0  0  0
 10  9  1  6  0  0  0
 10 11  1  0  0  0  0
 10 12  1  0  0  0  0
 11 16  1  0  0  0  0
 12 13  1  6  0  0  0
 12 14  1  0  0  0  0
 14 15  1  1  0  0  0
 14 16  1  0  0  0  0
 16 27  1  6  0  0  0
 18 19  2  0  0  0  0
 18 23  1  0  0  0  0
 19 20  1  0  0  0  0
 20 21  2  0  0  0  0
 21 22  1  0  0  0  0
 21 27  1  0  0  0  0
 22 23  2  0  0  0  0
 22 25  1  0  0  0  0
 23 24  1  0  0  0  0
 25 26  2  0  0  0  0
 26 27  1  0  0  0  0
M  END
>  <CHROM.1>
-66.25804212,-63.15319719,172.50265250,-162.96709435,-92.92174229,61.41864269
167.40180805,16.77262425,-7.10861132,6.32231628,-0.67425558,-0.49852972,0.72081874

>  <Name>
ligand

>  <RI>
0

>  <Rbt.Current_Directory>
/home/itssahil/PROJECTS/Mol_Feturizer/New_Systems/rnas/3GX5

>  <Rbt.Executable>
rbdock ($Id: //depot/dev/client3/rdock/2013.1/src/exe/rbdock.cxx#4 $)

>  <Rbt.Library>
libRbt.so (2013.1, Build901 2013/11/27)

>  <Rbt.Parameter_File>
/export/apps/rDock/src/rDock_2013.1_src/data/scripts/dock_solv.prm

>  <Rbt.Receptor>
prm/pocket_docking_8.prm

>  <SCORE>
-12.3103

>  <SCORE.INTER>
-12.0344

>  <SCORE.INTER.CONST>
1

>  <SCORE.INTER.POLAR>
0

>  <SCORE.INTER.ROT>
7

>  <SCORE.INTER.SOLV>
17.6606

>  <SCORE.INTER.VDW>
-22.1765

>  <SCORE.INTER.norm>
-0.445719

>  <SCORE.INTRA>
-0.275877

>  <SCORE.INTRA.DIHEDRAL>
2.65702

>  <SCORE.INTRA.DIHEDRAL.0>
4.28829

>  <SCORE.INTRA.POLAR>
0

>  <SCORE.INTRA.POLAR.0>
0

>  <SCORE.INTRA.REPUL>
0

>  <SCORE.INTRA.REPUL.0>
0

>  <SCORE.INTRA.SOLV>
-0.379721

>  <SCORE.INTRA.SOLV.lig_0>
-48.6018

>  <SCORE.INTRA.VDW>
-1.41453

>  <SCORE.INTRA.VDW.0>
-2.1506

>  <SCORE.INTRA.norm>
-0.0102177

>  <SCORE.RESTR>
0

>  <SCORE.RESTR.CAVITY>
0

>  <SCORE.RESTR.norm>
0

>  <SCORE.SYSTEM>
0

>  <SCORE.SYSTEM.CONST>
0

>  <SCORE.SYSTEM.DIHEDRAL>
0

>  <SCORE.SYSTEM.SOLV>
0

>  <SCORE.SYSTEM.norm>
0

>  <SCORE.heavy>
27

>  <SCORE.norm>
-0.455936

>  <RMSD>
4.799

$$$$
ligand
 OpenBabel11021811483D
libRbt.so/2013.1/901 2013/11/27
 27 29  0  0  0  0  0  0  0  0999 V2000
   15.0710   -8.2688   16.3457 N   0  0  0  0  0  0  0  0  0  0  0  0
   14.3887   -7.2843   15.5036 C   0  0  2  0  0  0  0  0  0  0  0  0
   12.9022   -7.5448   15.2486 C   0  0  0  0  0  0  0  0  0  0  0  0
   12.0789   -7.1209   16.0587 O   0  0  0  0  0  0  0  0  0  0  0  0
   15.1286   -7.0858   14.1914 C   0  0  0  0  0  0  0  0  0  0  0  0
   14.5576   -5.9226   13.3987 C   0  0  0  0  0  0  0  0  0  0  0  0
   15.1028   -5.9928   11.6831 S   0  0  2  0  0  0  0  0  0  0  0  0
   16.6636   -5.0950   11.8136 C   0  0  0  0  0  0  0  0  0  0  0  0
   14.0707   -4.6987   10.9560 C   0  0  0  0  0  0  0  0  0  0  0  0
   13.9908   -4.8530    9.4484 C   0  0  1  0  0  0  0  0  0  0  0  0
   15.2434   -4.5958    8.8560 O   0  0  0  0  0  0  0  0  0  0  0  0
   13.6340   -6.2630    9.0209 C   0  0  1  0  0  0  0  0  0  0  0  0
   12.2394   -6.3391    8.8644 O   0  0  0  0  0  0  0  0  0  0  0  0
   14.3410   -6.4197    7.6899 C   0  0  1  0  0  0  0  0  0  0  0  0
   13.3815   -6.2155    6.6772 O   0  0  0  0  0  0  0  0  0  0  0  0
   15.4092   -5.3247    7.6525 C   0  0  2  0  0  0  0  0  0  0  0  0
   12.4888   -8.1679   14.2669 O   0  0  0  0  0  0  0  0  0  0  0  0
   18.4565   -8.9115    9.9475 N   0  0  0  0  0  0  0  0  0  0  0  0
   17.1262   -8.6611   10.1817 C   0  0  0  0  0  0  0  0  0  0  0  0
   16.4932   -7.6649    9.4714 N   0  0  0  0  0  0  0  0  0  0  0  0
   17.1575   -6.9341    8.5483 C   0  0  0  0  0  0  0  0  0  0  0  0
   18.4975   -7.1847    8.2907 C   0  0  0  0  0  0  0  0  0  0  0  0
   19.1543   -8.1821    9.0084 C   0  0  0  0  0  0  0  0  0  0  0  0
   20.4431   -8.4483    8.7944 N   0  0  0  0  0  0  0  0  0  0  0  0
   18.9054   -6.3216    7.3249 N   0  0  0  0  0  0  0  0  0  0  0  0
   17.8485   -5.5561    6.9676 C   0  0  0  0  0  0  0  0  0  0  0  0
   16.7556   -5.9278    7.7113 N   0  0  0  0  0  0  0  0  0  0  0  0
  2  1  1  6  0  0  0
  2  3  1  0  0  0  0
  2  5  1  0  0  0  0
  3  4  1  0  0  0  0
  3 17  1  0  0  0  0
  5  6  1  0  0  0  0
  7  6  1  1  0  0  0
  7  8  1  0  0  0  0
  7  9  1  0  0  0  0
 10  9  1  1  0  0  0
 10 11  1  0  0  0  0
 10 12  1  0  0  0  0
 11 16  1  0  0  0  0
 12 13  1  6  0  0  0
 12 14  1  0  0  0  0
 14 15  1  6  0  0  0
 14 16  1  0  0  0  0
 16 27  1  1  0  0  0
 18 19  2  0  0  0  0
 18 23  1  0  0  0  0
 19 20  1  0  0  0  0
 20 21  2  0  0  0  0
 21 22  1  0  0  0  0
 21 27  1  0  0  0  0
 22 23  2  0  0  0  0
 22 25  1  0  0  0  0
 23 24  1  0  0  0  0
 25 26  2  0  0  0  0
 26 27  1  0  0  0  0
M  END
>  <CHROM.1>
86.79663330,-171.39665613,-163.64579385,-87.31434164,-161.10802073,-67.58608206
69.20456580,15.49665873,-6.64930487,10.61738226,-2.09353918,0.35553259,-1.29232084

>  <Name>
ligand

>  <RI>
0

>  <Rbt.Current_Directory>
/home/itssahil/PROJECTS/Mol_Feturizer/New_Systems/rnas/3GX5

>  <Rbt.Executable>
rbdock ($Id: //depot/dev/client3/rdock/2013.1/src/exe/rbdock.cxx#4 $)

>  <Rbt.Library>
libRbt.so (2013.1, Build901 2013/11/27)

>  <Rbt.Parameter_File>
/export/apps/rDock/src/rDock_2013.1_src/data/scripts/dock_solv.prm

>  <Rbt.Receptor>
prm/pocket_docking_6.prm

>  <SCORE>
-5.59155

>  <SCORE.INTER>
-5.31698

>  <SCORE.INTER.CONST>
1

>  <SCORE.INTER.POLAR>
0

>  <SCORE.INTER.ROT>
7

>  <SCORE.INTER.SOLV>
7.37539

>  <SCORE.INTER.VDW>
-14.2698

>  <SCORE.INTER.norm>
-0.196925

>  <SCORE.INTRA>
-0.274573

>  <SCORE.INTRA.DIHEDRAL>
3.29338

>  <SCORE.INTRA.DIHEDRAL.0>
4.28829

>  <SCORE.INTRA.POLAR>
0

>  <SCORE.INTRA.POLAR.0>
0

>  <SCORE.INTRA.REPUL>
0

>  <SCORE.INTRA.REPUL.0>
0

>  <SCORE.INTRA.SOLV>
-0.995197

>  <SCORE.INTRA.SOLV.lig_0>
-48.6018

>  <SCORE.INTRA.VDW>
-1.42367

>  <SCORE.INTRA.VDW.0>
-2.1506

>  <SCORE.INTRA.norm>
-0.0101694

>  <SCORE.RESTR>
0

>  <SCORE.RESTR.CAVITY>
0

>  <SCORE.RESTR.norm>
0

>  <SCORE.SYSTEM>
0

>  <SCORE.SYSTEM.CONST>
0

>  <SCORE.SYSTEM.DIHEDRAL>
0

>  <SCORE.SYSTEM.SOLV>
0

>  <SCORE.SYSTEM.norm>
0

>  <SCORE.heavy>
27

>  <SCORE.norm>
-0.207094

>  <RMSD>
4.812

$$$$
ligand
 OpenBabel11021811483D
libRbt.so/2013.1/901 2013/11/27
 27 29  0  0  0  0  0  0  0  0999 V2000
   13.7298   -7.9147   14.3006 N   0  0  0  0  0  0  0  0  0  0  0  0
   13.1559   -7.0659   13.2547 C   0  0  2  0  0  0  0  0  0  0  0  0
   11.8483   -7.5664   12.6362 C   0  0  0  0  0  0  0  0  0  0  0  0
   11.6221   -8.7757   12.6270 O   0  0  0  0  0  0  0  0  0  0  0  0
   14.1800   -6.7706   12.1717 C   0  0  0  0  0  0  0  0  0  0  0  0
   13.6887   -5.6968   11.2162 C   0  0  0  0  0  0  0  0  0  0  0  0
   14.7684   -5.5812    9.7788 S   0  0  2  0  0  0  0  0  0  0  0  0
   16.1043   -4.5829   10.4702 C   0  0  0  0  0  0  0  0  0  0  0  0
   13.9080   -4.3117    8.8214 C   0  0  0  0  0  0  0  0  0  0  0  0
   13.9545   -4.6279    7.3379 C   0  0  1  0  0  0  0  0  0  0  0  0
   15.2846   -4.6300    6.8721 O   0  0  0  0  0  0  0  0  0  0  0  0
   13.4211   -6.0099    7.0155 C   0  0  1  0  0  0  0  0  0  0  0  0
   12.0548   -5.8967    6.7065 O   0  0  0  0  0  0  0  0  0  0  0  0
   14.2225   -6.4242    5.7980 C   0  0  1  0  0  0  0  0  0  0  0  0
   13.4131   -6.2003    4.6655 O   0  0  0  0  0  0  0  0  0  0  0  0
   15.4503   -5.5113    5.7753 C   0  0  2  0  0  0  0  0  0  0  0  0
   11.0089   -6.8109   12.1389 O   0  0  0  0  0  0  0  0  0  0  0  0
   18.2610   -9.7430    4.5064 N   0  0  0  0  0  0  0  0  0  0  0  0
   17.0851   -9.3119    3.9423 C   0  0  0  0  0  0  0  0  0  0  0  0
   16.4902   -8.1645    4.4192 N   0  0  0  0  0  0  0  0  0  0  0  0
   17.0453   -7.4568    5.4285 C   0  0  0  0  0  0  0  0  0  0  0  0
   18.2398   -7.8720    5.9988 C   0  0  0  0  0  0  0  0  0  0  0  0
   18.8482   -9.0362    5.5343 C   0  0  0  0  0  0  0  0  0  0  0  0
   19.9931   -9.4713    6.0612 N   0  0  0  0  0  0  0  0  0  0  0  0
   18.5694   -6.9830    6.9710 N   0  0  0  0  0  0  0  0  0  0  0  0
   17.6186   -6.0210    7.0047 C   0  0  0  0  0  0  0  0  0  0  0  0
   16.6705   -6.2958    6.0502 N   0  0  0  0  0  0  0  0  0  0  0  0
  2  1  1  1  0  0  0
  2  3  1  0  0  0  0
  2  5  1  0  0  0  0
  3  4  1  0  0  0  0
  3 17  1  0  0  0  0
  5  6  1  0  0  0  0
  7  6  1  1  0  0  0
  7  8  1  0  0  0  0
  7  9  1  0  0  0  0
 10  9  1  1  0  0  0
 10 11  1  0  0  0  0
 10 12  1  0  0  0  0
 11 16  1  0  0  0  0
 12 13  1  6  0  0  0
 12 14  1  0  0  0  0
 14 15  1  6  0  0  0
 14 16  1  0  0  0  0
 16 27  1  1  0  0  0
 18 19  2  0  0  0  0
 18 23  1  0  0  0  0
 19 20  1  0  0  0  0
 20 21  2  0  0  0  0
 21 22  1  0  0  0  0
 21 27  1  0  0  0  0
 22 23  2  0  0  0  0
 22 25  1  0  0  0  0
 23 24  1  0  0  0  0
 25 26  2  0  0  0  0
 26 27  1  0  0  0  0
M  END
>  <CHROM.1>
-27.34541850,-169.69077114,-169.42823585,-80.59340283,-141.60867249,-62.71088832
164.12162197,15.09246531,-6.74762227,8.19867374,-2.29037947,0.57124360,-1.28016970

>  <Name>
ligand

>  <RI>
0

>  <Rbt.Current_Directory>
/home/itssahil/PROJECTS/Mol_Feturizer/New_Systems/rnas/3GX5

>  <Rbt.Executable>
rbdock ($Id: //depot/dev/client3/rdock/2013.1/src/exe/rbdock.cxx#4 $)

>  <Rbt.Library>
libRbt.so (2013.1, Build901 2013/11/27)

>  <Rbt.Parameter_File>
/export/apps/rDock/src/rDock_2013.1_src/data/scripts/dock_solv.prm

>  <Rbt.Receptor>
prm/pocket_docking_6.prm

>  <SCORE>
-8.46899

>  <SCORE.INTER>
-9.83198

>  <SCORE.INTER.CONST>
1

>  <SCORE.INTER.POLAR>
0

>  <SCORE.INTER.ROT>
7

>  <SCORE.INTER.SOLV>
7.66402

>  <SCORE.INTER.VDW>
-17.376

>  <SCORE.INTER.norm>
-0.364147

>  <SCORE.INTRA>
1.36298

>  <SCORE.INTRA.DIHEDRAL>
4.17438

>  <SCORE.INTRA.DIHEDRAL.0>
4.28829

>  <SCORE.INTRA.POLAR>
0

>  <SCORE.INTRA.POLAR.0>
0

>  <SCORE.INTRA.REPUL>
0

>  <SCORE.INTRA.REPUL.0>
0

>  <SCORE.INTRA.SOLV>
-1.06458

>  <SCORE.INTRA.SOLV.lig_0>
-48.6018

>  <SCORE.INTRA.VDW>
-0.191918

>  <SCORE.INTRA.VDW.0>
-2.1506

>  <SCORE.INTRA.norm>
0.0504809

>  <SCORE.RESTR>
0

>  <SCORE.RESTR.CAVITY>
0

>  <SCORE.RESTR.norm>
0

>  <SCORE.SYSTEM>
0

>  <SCORE.SYSTEM.CONST>
0

>  <SCORE.SYSTEM.DIHEDRAL>
0

>  <SCORE.SYSTEM.SOLV>
0

>  <SCORE.SYSTEM.norm>
0

>  <SCORE.heavy>
27

>  <SCORE.norm>
-0.313666

>  <RMSD>
4.817

$$$$
ligand
 OpenBabel11021811483D
libRbt.so/2013.1/901 2013/11/27
 27 29  0  0  0  0  0  0  0  0999 V2000
   16.9555   -8.8443   11.3370 N   0  0  0  0  0  0  0  0  0  0  0  0
   15.7737   -9.0732   12.1705 C   0  0  2  0  0  0  0  0  0  0  0  0
   14.9628  -10.3293   11.8424 C   0  0  0  0  0  0  0  0  0  0  0  0
   14.4353  -10.9513   12.7636 O   0  0  0  0  0  0  0  0  0  0  0  0
   14.8757   -7.8477   12.1884 C   0  0  0  0  0  0  0  0  0  0  0  0
   14.3917   -7.4893   10.7939 C   0  0  0  0  0  0  0  0  0  0  0  0
   13.0635   -6.2749   10.8734 S   0  0  2  0  0  0  0  0  0  0  0  0
   11.6893   -7.3447   11.3488 C   0  0  0  0  0  0  0  0  0  0  0  0
   12.6947   -6.0741    9.1149 C   0  0  0  0  0  0  0  0  0  0  0  0
   13.4487   -4.8916    8.5351 C   0  0  1  0  0  0  0  0  0  0  0  0
   14.8089   -5.2116    8.3517 O   0  0  0  0  0  0  0  0  0  0  0  0
   12.9481   -4.4931    7.1607 C   0  0  1  0  0  0  0  0  0  0  0  0
   11.9742   -3.4920    7.3168 O   0  0  0  0  0  0  0  0  0  0  0  0
   14.1855   -3.9477    6.4770 C   0  0  1  0  0  0  0  0  0  0  0  0
   14.1227   -2.5412    6.5530 O   0  0  0  0  0  0  0  0  0  0  0  0
   15.3751   -4.4808    7.2782 C   0  0  2  0  0  0  0  0  0  0  0  0
   14.8172  -10.7526   10.6925 O   0  0  0  0  0  0  0  0  0  0  0  0
   15.1808   -8.9309    4.5255 N   0  0  0  0  0  0  0  0  0  0  0  0
   14.1475   -8.2881    5.1630 C   0  0  0  0  0  0  0  0  0  0  0  0
   14.4003   -7.1174    5.8436 N   0  0  0  0  0  0  0  0  0  0  0  0
   15.6446   -6.5912    5.8915 C   0  0  0  0  0  0  0  0  0  0  0  0
   16.6954   -7.2214    5.2410 C   0  0  0  0  0  0  0  0  0  0  0  0
   16.4576   -8.4117    4.5570 C   0  0  0  0  0  0  0  0  0  0  0  0
   17.4426   -9.0506    3.9251 N   0  0  0  0  0  0  0  0  0  0  0  0
   17.8158   -6.4813    5.4436 N   0  0  0  0  0  0  0  0  0  0  0  0
   17.4812   -5.4022    6.1881 C   0  0  0  0  0  0  0  0  0  0  0  0
   16.1378   -5.4514    6.4681 N   0  0  0  0  0  0  0  0  0  0  0  0
  2  1  1  6  0  0  0
  2  3  1  0  0  0  0
  2  5  1  0  0  0  0
  3  4  1  0  0  0  0
  3 17  1  0  0  0  0
  5  6  1  0  0  0  0
  7  6  1  6  0  0  0
  7  8  1  0  0  0  0
  7  9  1  0  0  0  0
 10  9  1  6  0  0  0
 10 11  1  0  0  0  0
 10 12  1  0  0  0  0
 11 16  1  0  0  0  0
 12 13  1  1  0  0  0
 12 14  1  0  0  0  0
 14 15  1  1  0  0  0
 14 16  1  0  0  0  0
 16 27  1  6  0  0  0
 18 19  2  0  0  0  0
 18 23  1  0  0  0  0
 19 20  1  0  0  0  0
 20 21  2  0  0  0  0
 21 22  1  0  0  0  0
 21 27  1  0  0  0  0
 22 23  2  0  0  0  0
 22 25  1  0  0  0  0
 23 24  1  0  0  0  0
 25 26  2  0  0  0  0
 26 27  1  0  0  0  0
M  END
>  <CHROM.1>
144.44386097,60.02844038,167.72986435,-77.44334533,-94.81296252,75.34304761
56.91309984,14.74728574,-6.88347834,8.28696181,-1.84115249,0.93312999,-0.89811177

>  <Name>
ligand

>  <RI>
0

>  <Rbt.Current_Directory>
/home/itssahil/PROJECTS/Mol_Feturizer/New_Systems/rnas/3GX5

>  <Rbt.Executable>
rbdock ($Id: //depot/dev/client3/rdock/2013.1/src/exe/rbdock.cxx#4 $)

>  <Rbt.Library>
libRbt.so (2013.1, Build901 2013/11/27)

>  <Rbt.Parameter_File>
/export/apps/rDock/src/rDock_2013.1_src/data/scripts/dock_solv.prm

>  <Rbt.Receptor>
prm/pocket_docking_6.prm

>  <SCORE>
-12.5156

>  <SCORE.INTER>
-12.4611

>  <SCORE.INTER.CONST>
1

>  <SCORE.INTER.POLAR>
0

>  <SCORE.INTER.ROT>
7

>  <SCORE.INTER.SOLV>
13.251

>  <SCORE.INTER.VDW>
-20.9911

>  <SCORE.INTER.norm>
-0.461524

>  <SCORE.INTRA>
-0.0551246

>  <SCORE.INTRA.DIHEDRAL>
2.42891

>  <SCORE.INTRA.DIHEDRAL.0>
4.28829

>  <SCORE.INTRA.POLAR>
0

>  <SCORE.INTRA.POLAR.0>
0

>  <SCORE.INTRA.REPUL>
0

>  <SCORE.INTRA.REPUL.0>
0

>  <SCORE.INTRA.SOLV>
-0.56252

>  <SCORE.INTRA.SOLV.lig_0>
-48.6018

>  <SCORE.INTRA.VDW>
-0.98832

>  <SCORE.INTRA.VDW.0>
-2.1506

>  <SCORE.INTRA.norm>
-0.00204165

>  <SCORE.RESTR>
0.000636746

>  <SCORE.RESTR.CAVITY>
0.000636746

>  <SCORE.RESTR.norm>
2.35832e-05

>  <SCORE.SYSTEM>
0

>  <SCORE.SYSTEM.CONST>
0

>  <SCORE.SYSTEM.DIHEDRAL>
0

>  <SCORE.SYSTEM.SOLV>
0

>  <SCORE.SYSTEM.norm>
0

>  <SCORE.heavy>
27

>  <SCORE.norm>
-0.463542

>  <RMSD>
4.821

$$$$
ligand
 OpenBabel11021811483D
libRbt.so/2013.1/901 2013/11/27
 27 29  0  0  0  0  0  0  0  0999 V2000
   12.1652   -9.7389   12.9897 N   0  0  0  0  0  0  0  0  0  0  0  0
   11.9599   -8.3635   12.5316 C   0  0  2  0  0  0  0  0  0  0  0  0
   10.6301   -8.0904   11.8245 C   0  0  0  0  0  0  0  0  0  0  0  0
   10.1624   -8.9569   11.0869 O   0  0  0  0  0  0  0  0  0  0  0  0
   13.1253   -7.8961   11.6759 C   0  0  0  0  0  0  0  0  0  0  0  0
   13.0448   -6.4068   11.3879 C   0  0  0  0  0  0  0  0  0  0  0  0
   14.4570   -5.8710   10.4060 S   0  0  2  0  0  0  0  0  0  0  0  0
   15.7381   -5.8644   11.6779 C   0  0  0  0  0  0  0  0  0  0  0  0
   14.1297   -4.0962   10.2988 C   0  0  0  0  0  0  0  0  0  0  0  0
   14.2269   -3.6134    8.8634 C   0  0  1  0  0  0  0  0  0  0  0  0
   15.5341   -3.7904    8.3675 O   0  0  0  0  0  0  0  0  0  0  0  0
   13.3369   -4.3973    7.9190 C   0  0  1  0  0  0  0  0  0  0  0  0
   12.1063   -3.7271    7.8109 O   0  0  0  0  0  0  0  0  0  0  0  0
   14.0938   -4.3618    6.6068 C   0  0  1  0  0  0  0  0  0  0  0  0
   13.5071   -3.3574    5.8099 O   0  0  0  0  0  0  0  0  0  0  0  0
   15.5354   -3.9952    6.9656 C   0  0  2  0  0  0  0  0  0  0  0  0
   10.0049   -7.0346   11.9556 O   0  0  0  0  0  0  0  0  0  0  0  0
   16.1223   -9.1878    7.2982 N   0  0  0  0  0  0  0  0  0  0  0  0
   15.0260   -8.4390    7.6510 C   0  0  0  0  0  0  0  0  0  0  0  0
   15.0639   -7.0715    7.4890 N   0  0  0  0  0  0  0  0  0  0  0  0
   16.1585   -6.4570    6.9871 C   0  0  0  0  0  0  0  0  0  0  0  0
   17.2680   -7.2012    6.6132 C   0  0  0  0  0  0  0  0  0  0  0  0
   17.2487   -8.5842    6.7807 C   0  0  0  0  0  0  0  0  0  0  0  0
   18.2978   -9.3331    6.4396 N   0  0  0  0  0  0  0  0  0  0  0  0
   18.2067   -6.3417    6.1395 N   0  0  0  0  0  0  0  0  0  0  0  0
   17.6998   -5.0886    6.1956 C   0  0  0  0  0  0  0  0  0  0  0  0
   16.4285   -5.1432    6.7118 N   0  0  0  0  0  0  0  0  0  0  0  0
  2  1  1  6  0  0  0
  2  3  1  0  0  0  0
  2  5  1  0  0  0  0
  3  4  1  0  0  0  0
  3 17  1  0  0  0  0
  5  6  1  0  0  0  0
  7  6  1  1  0  0  0
  7  8  1  0  0  0  0
  7  9  1  0  0  0  0
 10  9  1  1  0  0  0
 10 11  1  0  0  0  0
 10 12  1  0  0  0  0
 11 16  1  0  0  0  0
 12 13  1  6  0  0  0
 12 14  1  0  0  0  0
 14 15  1  6  0  0  0
 14 16  1  0  0  0  0
 16 27  1  1  0  0  0
 18 19  2  0  0  0  0
 18 23  1  0  0  0  0
 19 20  1  0  0  0  0
 20 21  2  0  0  0  0
 21 22  1  0  0  0  0
 21 27  1  0  0  0  0
 22 23  2  0  0  0  0
 22 25  1  0  0  0  0
 23 24  1  0  0  0  0
 25 26  2  0  0  0  0
 26 27  1  0  0  0  0
M  END
>  <CHROM.1>
-37.10105430,-170.38993076,178.65291115,-75.61799240,-130.40066846,-63.06444588
72.83716945,14.40856514,-6.32431641,8.88472793,-2.59203344,0.67604027,-0.44181709

>  <Name>
ligand

>  <RI>
0

>  <Rbt.Current_Directory>
/home/itssahil/PROJECTS/Mol_Feturizer/New_Systems/rnas/3GX5

>  <Rbt.Executable>
rbdock ($Id: //depot/dev/client3/rdock/2013.1/src/exe/rbdock.cxx#4 $)

>  <Rbt.Library>
libRbt.so (2013.1, Build901 2013/11/27)

>  <Rbt.Parameter_File>
/export/apps/rDock/src/rDock_2013.1_src/data/scripts/dock_solv.prm

>  <Rbt.Receptor>
prm/pocket_docking_7.prm

>  <SCORE>
-10.1161

>  <SCORE.INTER>
-10.2341

>  <SCORE.INTER.CONST>
1

>  <SCORE.INTER.POLAR>
0

>  <SCORE.INTER.ROT>
7

>  <SCORE.INTER.SOLV>
12.0983

>  <SCORE.INTER.VDW>
-19.1222

>  <SCORE.INTER.norm>
-0.379041

>  <SCORE.INTRA>
0.118041

>  <SCORE.INTRA.DIHEDRAL>
3.83598

>  <SCORE.INTRA.DIHEDRAL.0>
4.28829

>  <SCORE.INTRA.POLAR>
0

>  <SCORE.INTRA.POLAR.0>
0

>  <SCORE.INTRA.REPUL>
0

>  <SCORE.INTRA.REPUL.0>
0

>  <SCORE.INTRA.SOLV>
-1.00729

>  <SCORE.INTRA.SOLV.lig_0>
-48.6018

>  <SCORE.INTRA.VDW>
-1.2963

>  <SCORE.INTRA.VDW.0>
-2.1506

>  <SCORE.INTRA.norm>
0.00437188

>  <SCORE.RESTR>
0

>  <SCORE.RESTR.CAVITY>
0

>  <SCORE.RESTR.norm>
0

>  <SCORE.SYSTEM>
0

>  <SCORE.SYSTEM.CONST>
0

>  <SCORE.SYSTEM.DIHEDRAL>
0

>  <SCORE.SYSTEM.SOLV>
0

>  <SCORE.SYSTEM.norm>
0

>  <SCORE.heavy>
27

>  <SCORE.norm>
-0.374669

>  <RMSD>
4.860

$$$$
ligand
 OpenBabel11021811483D
libRbt.so/2013.1/901 2013/11/27
 27 29  0  0  0  0  0  0  0  0999 V2000
   11.5288   -9.0820   13.0104 N   0  0  0  0  0  0  0  0  0  0  0  0
   11.9443   -9.5595   11.6901 C   0  0  2  0  0  0  0  0  0  0  0  0
   12.9195  -10.7392   11.6871 C   0  0  0  0  0  0  0  0  0  0  0  0
   13.1404  -11.3226   10.6266 O   0  0  0  0  0  0  0  0  0  0  0  0
   12.4844   -8.4183   10.8446 C   0  0  0  0  0  0  0  0  0  0  0  0
   12.3500   -8.7107    9.3601 C   0  0  0  0  0  0  0  0  0  0  0  0
   13.3037   -7.5300    8.3898 S   0  0  2  0  0  0  0  0  0  0  0  0
   14.9518   -7.8309    9.0624 C   0  0  0  0  0  0  0  0  0  0  0  0
   12.9019   -5.9931    9.2530 C   0  0  0  0  0  0  0  0  0  0  0  0
   13.5516   -4.8033    8.5709 C   0  0  1  0  0  0  0  0  0  0  0  0
   14.9465   -4.9830    8.4812 O   0  0  0  0  0  0  0  0  0  0  0  0
   13.0843   -4.6197    7.1404 C   0  0  1  0  0  0  0  0  0  0  0  0
   11.9996   -3.7261    7.1397 O   0  0  0  0  0  0  0  0  0  0  0  0
   14.2891   -4.0147    6.4487 C   0  0  1  0  0  0  0  0  0  0  0  0
   14.0685   -2.6251    6.3583 O   0  0  0  0  0  0  0  0  0  0  0  0
   15.4856   -4.3154    7.3539 C   0  0  2  0  0  0  0  0  0  0  0  0
   13.4931  -11.1382   12.7042 O   0  0  0  0  0  0  0  0  0  0  0  0
   15.8299   -8.6328    4.4113 N   0  0  0  0  0  0  0  0  0  0  0  0
   14.6924   -7.9833    4.8252 C   0  0  0  0  0  0  0  0  0  0  0  0
   14.8081   -6.8525    5.6034 N   0  0  0  0  0  0  0  0  0  0  0  0
   16.0194   -6.3717    5.9626 C   0  0  0  0  0  0  0  0  0  0  0  0
   17.1773   -7.0088    5.5407 C   0  0  0  0  0  0  0  0  0  0  0  0
   17.0766   -8.1596    4.7617 C   0  0  0  0  0  0  0  0  0  0  0  0
   18.1659   -8.8038    4.3422 N   0  0  0  0  0  0  0  0  0  0  0  0
   18.2373   -6.3169    6.0325 N   0  0  0  0  0  0  0  0  0  0  0  0
   17.7647   -5.2603    6.7330 C   0  0  0  0  0  0  0  0  0  0  0  0
   16.3922   -5.2755    6.6936 N   0  0  0  0  0  0  0  0  0  0  0  0
  2  1  1  1  0  0  0
  2  3  1  0  0  0  0
  2  5  1  0  0  0  0
  3  4  1  0  0  0  0
  3 17  1  0  0  0  0
  5  6  1  0  0  0  0
  7  6  1  1  0  0  0
  7  8  1  0  0  0  0
  7  9  1  0  0  0  0
 10  9  1  6  0  0  0
 10 11  1  0  0  0  0
 10 12  1  0  0  0  0
 11 16  1  0  0  0  0
 12 13  1  1  0  0  0
 12 14  1  0  0  0  0
 14 15  1  1  0  0  0
 14 16  1  0  0  0  0
 16 27  1  6  0  0  0
 18 19  2  0  0  0  0
 18 23  1  0  0  0  0
 19 20  1  0  0  0  0
 20 21  2  0  0  0  0
 21 22  1  0  0  0  0
 21 27  1  0  0  0  0
 22 23  2  0  0  0  0
 22 25  1  0  0  0  0
 23 24  1  0  0  0  0
 25 26  2  0  0  0  0
 26 27  1  0  0  0  0
M  END
>  <CHROM.1>
168.54064095,-155.05681592,-167.77310022,59.03130043,-177.37298605,-56.34693210
73.16917450,14.42678333,-7.06074007,7.98192337,2.26874111,-0.80048538,2.71782688

>  <Name>
ligand

>  <RI>
0

>  <Rbt.Current_Directory>
/home/itssahil/PROJECTS/Mol_Feturizer/New_Systems/rnas/3GX5

>  <Rbt.Executable>
rbdock ($Id: //depot/dev/client3/rdock/2013.1/src/exe/rbdock.cxx#4 $)

>  <Rbt.Library>
libRbt.so (2013.1, Build901 2013/11/27)

>  <Rbt.Parameter_File>
/export/apps/rDock/src/rDock_2013.1_src/data/scripts/dock_solv.prm

>  <Rbt.Receptor>
prm/pocket_docking_8.prm

>  <SCORE>
-12.8946

>  <SCORE.INTER>
-14.1775

>  <SCORE.INTER.CONST>
1

>  <SCORE.INTER.POLAR>
0

>  <SCORE.INTER.ROT>
7

>  <SCORE.INTER.SOLV>
12.2266

>  <SCORE.INTER.VDW>
-21.7939

>  <SCORE.INTER.norm>
-0.525094

>  <SCORE.INTRA>
1.28295

>  <SCORE.INTRA.DIHEDRAL>
2.1788

>  <SCORE.INTRA.DIHEDRAL.0>
4.28829

>  <SCORE.INTRA.POLAR>
0

>  <SCORE.INTRA.POLAR.0>
0

>  <SCORE.INTRA.REPUL>
0

>  <SCORE.INTRA.REPUL.0>
0

>  <SCORE.INTRA.SOLV>
-0.935372

>  <SCORE.INTRA.SOLV.lig_0>
-48.6018

>  <SCORE.INTRA.VDW>
0.661234

>  <SCORE.INTRA.VDW.0>
-2.1506

>  <SCORE.INTRA.norm>
0.0475166

>  <SCORE.RESTR>
0

>  <SCORE.RESTR.CAVITY>
0

>  <SCORE.RESTR.norm>
0

>  <SCORE.SYSTEM>
0

>  <SCORE.SYSTEM.CONST>
0

>  <SCORE.SYSTEM.DIHEDRAL>
0

>  <SCORE.SYSTEM.SOLV>
0

>  <SCORE.SYSTEM.norm>
0

>  <SCORE.heavy>
27

>  <SCORE.norm>
-0.477577

>  <RMSD>
4.868

$$$$
ligand
 OpenBabel11021811483D
libRbt.so/2013.1/901 2013/11/27
 27 29  0  0  0  0  0  0  0  0999 V2000
   11.7061   -7.6236   13.4267 N   0  0  0  0  0  0  0  0  0  0  0  0
   11.4265   -7.6994   11.9915 C   0  0  2  0  0  0  0  0  0  0  0  0
   10.8544   -9.0298   11.4956 C   0  0  0  0  0  0  0  0  0  0  0  0
   10.6947   -9.1921   10.2866 O   0  0  0  0  0  0  0  0  0  0  0  0
   12.6488   -7.3078   11.1783 C   0  0  0  0  0  0  0  0  0  0  0  0
   12.2715   -6.8966    9.7654 C   0  0  0  0  0  0  0  0  0  0  0  0
   13.7438   -6.5268    8.7954 S   0  0  2  0  0  0  0  0  0  0  0  0
   14.1661   -4.9074    9.4725 C   0  0  0  0  0  0  0  0  0  0  0  0
   12.9898   -6.0135    7.2345 C   0  0  0  0  0  0  0  0  0  0  0  0
   13.8765   -6.3798    6.0586 C   0  0  1  0  0  0  0  0  0  0  0  0
   15.1895   -5.9099    6.2616 O   0  0  0  0  0  0  0  0  0  0  0  0
   14.0174   -7.8780    5.8742 C   0  0  1  0  0  0  0  0  0  0  0  0
   13.0370   -8.3066    4.9631 O   0  0  0  0  0  0  0  0  0  0  0  0
   15.4077   -8.0344    5.2923 C   0  0  1  0  0  0  0  0  0  0  0  0
   15.2644   -8.2018    3.8997 O   0  0  0  0  0  0  0  0  0  0  0  0
   16.1423   -6.7298    5.6081 C   0  0  2  0  0  0  0  0  0  0  0  0
   10.5392   -9.9495   12.2556 O   0  0  0  0  0  0  0  0  0  0  0  0
   20.1048   -9.8620    6.9887 N   0  0  0  0  0  0  0  0  0  0  0  0
   19.2858   -9.9725    5.8912 C   0  0  0  0  0  0  0  0  0  0  0  0
   18.2884   -9.0420    5.6990 N   0  0  0  0  0  0  0  0  0  0  0  0
   18.1051   -8.0235    6.5689 C   0  0  0  0  0  0  0  0  0  0  0  0
   18.9330   -7.8909    7.6741 C   0  0  0  0  0  0  0  0  0  0  0  0
   19.9398   -8.8300    7.8878 C   0  0  0  0  0  0  0  0  0  0  0  0
   20.7515   -8.7405    8.9418 N   0  0  0  0  0  0  0  0  0  0  0  0
   18.5356   -6.7906    8.3637 N   0  0  0  0  0  0  0  0  0  0  0  0
   17.4949   -6.2311    7.7045 C   0  0  0  0  0  0  0  0  0  0  0  0
   17.2201   -6.9789    6.5861 N   0  0  0  0  0  0  0  0  0  0  0  0
  2  1  1  1  0  0  0
  2  3  1  0  0  0  0
  2  5  1  0  0  0  0
  3  4  1  0  0  0  0
  3 17  1  0  0  0  0
  5  6  1  0  0  0  0
  7  6  1  1  0  0  0
  7  8  1  0  0  0  0
  7  9  1  0  0  0  0
 10  9  1  1  0  0  0
 10 11  1  0  0  0  0
 10 12  1  0  0  0  0
 11 16  1  0  0  0  0
 12 13  1  6  0  0  0
 12 14  1  0  0  0  0
 14 15  1  6  0  0  0
 14 16  1  0  0  0  0
 16 27  1  1  0  0  0
 18 19  2  0  0  0  0
 18 23  1  0  0  0  0
 19 20  1  0  0  0  0
 20 21  2  0  0  0  0
 21 22  1  0  0  0  0
 21 27  1  0  0  0  0
 22 23  2  0  0  0  0
 22 25  1  0  0  0  0
 23 24  1  0  0  0  0
 25 26  2  0  0  0  0
 26 27  1  0  0  0  0
M  END
>  <CHROM.1>
-174.48865021,-159.52912485,-176.81419232,-75.84043813,-148.13538280,-51.52916179
157.57668259,15.09656129,-7.67667101,8.05197124,-2.58398404,0.16515393,-1.38146962

>  <Name>
ligand

>  <RI>
0

>  <Rbt.Current_Directory>
/home/itssahil/PROJECTS/Mol_Feturizer/New_Systems/rnas/3GX5

>  <Rbt.Executable>
rbdock ($Id: //depot/dev/client3/rdock/2013.1/src/exe/rbdock.cxx#4 $)

>  <Rbt.Library>
libRbt.so (2013.1, Build901 2013/11/27)

>  <Rbt.Parameter_File>
/export/apps/rDock/src/rDock_2013.1_src/data/scripts/dock_solv.prm

>  <Rbt.Receptor>
prm/pocket_docking_8.prm

>  <SCORE>
-7.00684

>  <SCORE.INTER>
-8.92

>  <SCORE.INTER.CONST>
1

>  <SCORE.INTER.POLAR>
0

>  <SCORE.INTER.ROT>
7

>  <SCORE.INTER.SOLV>
6.99974

>  <SCORE.INTER.VDW>
-16.5466

>  <SCORE.INTER.norm>
-0.33037

>  <SCORE.INTRA>
1.91315

>  <SCORE.INTRA.DIHEDRAL>
4.25675

>  <SCORE.INTRA.DIHEDRAL.0>
4.28829

>  <SCORE.INTRA.POLAR>
0

>  <SCORE.INTRA.POLAR.0>
0

>  <SCORE.INTRA.REPUL>
0

>  <SCORE.INTRA.REPUL.0>
0

>  <SCORE.INTRA.SOLV>
-1.06528

>  <SCORE.INTRA.SOLV.lig_0>
-48.6018

>  <SCORE.INTRA.VDW>
0.317416

>  <SCORE.INTRA.VDW.0>
-2.1506

>  <SCORE.INTRA.norm>
0.0708575

>  <SCORE.RESTR>
0

>  <SCORE.RESTR.CAVITY>
0

>  <SCORE.RESTR.norm>
0

>  <SCORE.SYSTEM>
0

>  <SCORE.SYSTEM.CONST>
0

>  <SCORE.SYSTEM.DIHEDRAL>
0

>  <SCORE.SYSTEM.SOLV>
0

>  <SCORE.SYSTEM.norm>
0

>  <SCORE.heavy>
27

>  <SCORE.norm>
-0.259513

>  <RMSD>
4.873

$$$$
ligand
 OpenBabel11021811483D
libRbt.so/2013.1/901 2013/11/27
 27 29  0  0  0  0  0  0  0  0999 V2000
   16.4163   -4.2091   10.7245 N   0  0  0  0  0  0  0  0  0  0  0  0
   15.0760   -4.2428   11.3128 C   0  0  2  0  0  0  0  0  0  0  0  0
   14.9707   -4.9069   12.6879 C   0  0  0  0  0  0  0  0  0  0  0  0
   14.1030   -5.7602   12.8688 O   0  0  0  0  0  0  0  0  0  0  0  0
   14.0738   -4.8529   10.3472 C   0  0  0  0  0  0  0  0  0  0  0  0
   13.7950   -3.9292    9.1740 C   0  0  0  0  0  0  0  0  0  0  0  0
   15.2310   -3.8240    8.0914 S   0  0  2  0  0  0  0  0  0  0  0  0
   15.5055   -2.0398    8.1079 C   0  0  0  0  0  0  0  0  0  0  0  0
   14.4384   -3.9920    6.4751 C   0  0  0  0  0  0  0  0  0  0  0  0
   14.6480   -5.3853    5.9115 C   0  0  1  0  0  0  0  0  0  0  0  0
   16.0195   -5.6375    5.7081 O   0  0  0  0  0  0  0  0  0  0  0  0
   14.1816   -6.4764    6.8551 C   0  0  1  0  0  0  0  0  0  0  0  0
   12.8534   -6.8034    6.5327 O   0  0  0  0  0  0  0  0  0  0  0  0
   15.1158   -7.6304    6.5523 C   0  0  1  0  0  0  0  0  0  0  0  0
   14.4258   -8.5180    5.7015 O   0  0  0  0  0  0  0  0  0  0  0  0
   16.3191   -7.0165    5.8335 C   0  0  2  0  0  0  0  0  0  0  0  0
   15.7151   -4.6214   13.6297 O   0  0  0  0  0  0  0  0  0  0  0  0
   20.4028   -9.9612    7.2723 N   0  0  0  0  0  0  0  0  0  0  0  0
   19.4376  -10.2561    6.3403 C   0  0  0  0  0  0  0  0  0  0  0  0
   18.4327   -9.3450    6.1001 N   0  0  0  0  0  0  0  0  0  0  0  0
   18.3832   -8.1677    6.7627 C   0  0  0  0  0  0  0  0  0  0  0  0
   19.3586   -7.8498    7.6966 C   0  0  0  0  0  0  0  0  0  0  0  0
   20.3756   -8.7655    7.9582 C   0  0  0  0  0  0  0  0  0  0  0  0
   21.3273   -8.4995    8.8533 N   0  0  0  0  0  0  0  0  0  0  0  0
   19.0728   -6.6200    8.1967 N   0  0  0  0  0  0  0  0  0  0  0  0
   17.9561   -6.1633    7.5842 C   0  0  0  0  0  0  0  0  0  0  0  0
   17.5202   -7.1074    6.6874 N   0  0  0  0  0  0  0  0  0  0  0  0
  2  1  1  6  0  0  0
  2  3  1  0  0  0  0
  2  5  1  0  0  0  0
  3  4  1  0  0  0  0
  3 17  1  0  0  0  0
  5  6  1  0  0  0  0
  7  6  1  1  0  0  0
  7  8  1  0  0  0  0
  7  9  1  0  0  0  0
 10  9  1  1  0  0  0
 10 11  1  0  0  0  0
 10 12  1  0  0  0  0
 11 16  1  0  0  0  0
 12 13  1  6  0  0  0
 12 14  1  0  0  0  0
 14 15  1  6  0  0  0
 14 16  1  0  0  0  0
 16 27  1  1  0  0  0
 18 19  2  0  0  0  0
 18 23  1  0  0  0  0
 19 20  1  0  0  0  0
 20 21  2  0  0  0  0
 21 22  1  0  0  0  0
 21 27  1  0  0  0  0
 22 23  2  0  0  0  0
 22 25  1  0  0  0  0
 23 24  1  0  0  0  0
 25 26  2  0  0  0  0
 26 27  1  0  0  0  0
M  END
>  <CHROM.1>
-130.39315729,-70.64198356,70.02218383,-123.21860584,-103.51327489,-62.27602480
-159.58302094,16.33745792,-6.22159207,8.17325761,-2.40115288,0.58493129,-1.93506975

>  <Name>
ligand

>  <RI>
0

>  <Rbt.Current_Directory>
/home/itssahil/PROJECTS/Mol_Feturizer/New_Systems/rnas/3GX5

>  <Rbt.Executable>
rbdock ($Id: //depot/dev/client3/rdock/2013.1/src/exe/rbdock.cxx#4 $)

>  <Rbt.Library>
libRbt.so (2013.1, Build901 2013/11/27)

>  <Rbt.Parameter_File>
/export/apps/rDock/src/rDock_2013.1_src/data/scripts/dock_solv.prm

>  <Rbt.Receptor>
prm/pocket_docking_8.prm

>  <SCORE>
-9.60553

>  <SCORE.INTER>
-13.7586

>  <SCORE.INTER.CONST>
1

>  <SCORE.INTER.POLAR>
0

>  <SCORE.INTER.ROT>
7

>  <SCORE.INTER.SOLV>
9.03243

>  <SCORE.INTER.VDW>
-20.4499

>  <SCORE.INTER.norm>
-0.509577

>  <SCORE.INTRA>
4.14131

>  <SCORE.INTRA.DIHEDRAL>
6.752

>  <SCORE.INTRA.DIHEDRAL.0>
4.28829

>  <SCORE.INTRA.POLAR>
0

>  <SCORE.INTRA.POLAR.0>
0

>  <SCORE.INTRA.REPUL>
0

>  <SCORE.INTRA.REPUL.0>
0

>  <SCORE.INTRA.SOLV>
1.80208

>  <SCORE.INTRA.SOLV.lig_0>
-48.6018

>  <SCORE.INTRA.VDW>
-0.135726

>  <SCORE.INTRA.VDW.0>
-2.1506

>  <SCORE.INTRA.norm>
0.153382

>  <SCORE.RESTR>
0.0117413

>  <SCORE.RESTR.CAVITY>
0.0117413

>  <SCORE.RESTR.norm>
0.000434862

>  <SCORE.SYSTEM>
0

>  <SCORE.SYSTEM.CONST>
0

>  <SCORE.SYSTEM.DIHEDRAL>
0

>  <SCORE.SYSTEM.SOLV>
0

>  <SCORE.SYSTEM.norm>
0

>  <SCORE.heavy>
27

>  <SCORE.norm>
-0.355761

>  <RMSD>
4.876

$$$$
ligand
 OpenBabel11021811483D
libRbt.so/2013.1/901 2013/11/27
 27 29  0  0  0  0  0  0  0  0999 V2000
   12.7616  -10.1850    9.9198 N   0  0  0  0  0  0  0  0  0  0  0  0
   13.1081   -8.8073    9.5652 C   0  0  2  0  0  0  0  0  0  0  0  0
   14.5330   -8.5927    9.0490 C   0  0  0  0  0  0  0  0  0  0  0  0
   15.4422   -9.2761    9.5180 O   0  0  0  0  0  0  0  0  0  0  0  0
   12.8078   -7.8587   10.7136 C   0  0  0  0  0  0  0  0  0  0  0  0
   12.7823   -6.4121   10.2510 C   0  0  0  0  0  0  0  0  0  0  0  0
   14.4405   -5.7082   10.2706 S   0  0  2  0  0  0  0  0  0  0  0  0
   14.7726   -5.7389   12.0448 C   0  0  0  0  0  0  0  0  0  0  0  0
   14.0561   -3.9534   10.0664 C   0  0  0  0  0  0  0  0  0  0  0  0
   14.0840   -3.5600    8.6009 C   0  0  1  0  0  0  0  0  0  0  0  0
   15.3163   -3.9133    8.0154 O   0  0  0  0  0  0  0  0  0  0  0  0
   13.0349   -4.2828    7.7792 C   0  0  1  0  0  0  0  0  0  0  0  0
   11.8822   -3.4805    7.7276 O   0  0  0  0  0  0  0  0  0  0  0  0
   13.6766   -4.4033    6.4118 C   0  0  1  0  0  0  0  0  0  0  0  0
   13.1400   -3.3801    5.6036 O   0  0  0  0  0  0  0  0  0  0  0  0
   15.1754   -4.1889    6.6330 C   0  0  2  0  0  0  0  0  0  0  0  0
   14.8149   -7.7585    8.1845 O   0  0  0  0  0  0  0  0  0  0  0  0
   14.9827   -8.9720    4.5110 N   0  0  0  0  0  0  0  0  0  0  0  0
   14.0033   -8.0087    4.5087 C   0  0  0  0  0  0  0  0  0  0  0  0
   14.2445   -6.8017    5.1274 N   0  0  0  0  0  0  0  0  0  0  0  0
   15.4270   -6.5500    5.7322 C   0  0  0  0  0  0  0  0  0  0  0  0
   16.4307   -7.5077    5.7306 C   0  0  0  0  0  0  0  0  0  0  0  0
   16.1981   -8.7373    5.1180 C   0  0  0  0  0  0  0  0  0  0  0  0
   17.1352   -9.6856    5.1012 N   0  0  0  0  0  0  0  0  0  0  0  0
   17.4995   -6.9935    6.3920 N   0  0  0  0  0  0  0  0  0  0  0  0
   17.1881   -5.7375    6.7874 C   0  0  0  0  0  0  0  0  0  0  0  0
   15.9098   -5.4446    6.3802 N   0  0  0  0  0  0  0  0  0  0  0  0
  2  1  1  1  0  0  0
  2  3  1  0  0  0  0
  2  5  1  0  0  0  0
  3  4  1  0  0  0  0
  3 17  1  0  0  0  0
  5  6  1  0  0  0  0
  7  6  1  1  0  0  0
  7  8  1  0  0  0  0
  7  9  1  0  0  0  0
 10  9  1  1  0  0  0
 10 11  1  0  0  0  0
 10 12  1  0  0  0  0
 11 16  1  0  0  0  0
 12 13  1  6  0  0  0
 12 14  1  0  0  0  0
 14 15  1  6  0  0  0
 14 16  1  0  0  0  0
 16 27  1  1  0  0  0
 18 19  2  0  0  0  0
 18 23  1  0  0  0  0
 19 20  1  0  0  0  0
 20 21  2  0  0  0  0
 21 22  1  0  0  0  0
 21 27  1  0  0  0  0
 22 23  2  0  0  0  0
 22 25  1  0  0  0  0
 23 24  1  0  0  0  0
 25 26  2  0  0  0  0
 26 27  1  0  0  0  0
M  END
>  <CHROM.1>
-34.71770778,-163.90167706,-86.06446252,-65.65171350,-92.66279825,-54.48256654
128.99796088,14.58214811,-6.44009692,7.80231161,-3.11921255,1.16369415,-0.56667849

>  <Name>
ligand

>  <RI>
0

>  <Rbt.Current_Directory>
/home/itssahil/PROJECTS/Mol_Feturizer/New_Systems/rnas/3GX5

>  <Rbt.Executable>
rbdock ($Id: //depot/dev/client3/rdock/2013.1/src/exe/rbdock.cxx#4 $)

>  <Rbt.Library>
libRbt.so (2013.1, Build901 2013/11/27)

>  <Rbt.Parameter_File>
/export/apps/rDock/src/rDock_2013.1_src/data/scripts/dock_solv.prm

>  <Rbt.Receptor>
prm/pocket_docking_3.prm

>  <SCORE>
-7.38363

>  <SCORE.INTER>
-7.37385

>  <SCORE.INTER.CONST>
1

>  <SCORE.INTER.POLAR>
0

>  <SCORE.INTER.ROT>
7

>  <SCORE.INTER.SOLV>
16.8529

>  <SCORE.INTER.VDW>
-18.8002

>  <SCORE.INTER.norm>
-0.273106

>  <SCORE.INTRA>
-0.0707808

>  <SCORE.INTRA.DIHEDRAL>
3.80888

>  <SCORE.INTRA.DIHEDRAL.0>
4.28829

>  <SCORE.INTRA.POLAR>
0

>  <SCORE.INTRA.POLAR.0>
0

>  <SCORE.INTRA.REPUL>
0

>  <SCORE.INTRA.REPUL.0>
0

>  <SCORE.INTRA.SOLV>
-0.841045

>  <SCORE.INTRA.SOLV.lig_0>
-48.6018

>  <SCORE.INTRA.VDW>
-1.5547

>  <SCORE.INTRA.VDW.0>
-2.1506

>  <SCORE.INTRA.norm>
-0.00262151

>  <SCORE.RESTR>
0.060998

>  <SCORE.RESTR.CAVITY>
0.060998

>  <SCORE.RESTR.norm>
0.00225919

>  <SCORE.SYSTEM>
0

>  <SCORE.SYSTEM.CONST>
0

>  <SCORE.SYSTEM.DIHEDRAL>
0

>  <SCORE.SYSTEM.SOLV>
0

>  <SCORE.SYSTEM.norm>
0

>  <SCORE.heavy>
27

>  <SCORE.norm>
-0.273468

>  <RMSD>
4.879

$$$$
ligand
 OpenBabel11021811483D
libRbt.so/2013.1/901 2013/11/27
 27 29  0  0  0  0  0  0  0  0999 V2000
   17.1950   -4.3967   11.0253 N   0  0  0  0  0  0  0  0  0  0  0  0
   15.9281   -4.0088   10.4022 C   0  0  2  0  0  0  0  0  0  0  0  0
   14.6679   -4.6089   11.0303 C   0  0  0  0  0  0  0  0  0  0  0  0
   14.6805   -5.7915   11.3694 O   0  0  0  0  0  0  0  0  0  0  0  0
   15.9556   -4.2713    8.9058 C   0  0  0  0  0  0  0  0  0  0  0  0
   14.7181   -3.7194    8.2191 C   0  0  0  0  0  0  0  0  0  0  0  0
   14.6106   -4.3182    6.5235 S   0  0  2  0  0  0  0  0  0  0  0  0
   12.9243   -3.8153    6.1203 C   0  0  0  0  0  0  0  0  0  0  0  0
   14.3379   -6.0818    6.8133 C   0  0  0  0  0  0  0  0  0  0  0  0
   14.8219   -6.9054    5.6341 C   0  0  1  0  0  0  0  0  0  0  0  0
   16.2287   -6.8783    5.5536 O   0  0  0  0  0  0  0  0  0  0  0  0
   14.4617   -8.3730    5.7561 C   0  0  1  0  0  0  0  0  0  0  0  0
   13.2383   -8.5852    5.0977 O   0  0  0  0  0  0  0  0  0  0  0  0
   15.5957   -9.0773    5.0391 C   0  0  1  0  0  0  0  0  0  0  0  0
   15.1374   -9.4043    3.7465 O   0  0  0  0  0  0  0  0  0  0  0  0
   16.7391   -8.0629    4.9678 C   0  0  2  0  0  0  0  0  0  0  0  0
   13.6330   -3.9608   11.2084 O   0  0  0  0  0  0  0  0  0  0  0  0
   19.9159   -6.8071    8.9363 N   0  0  0  0  0  0  0  0  0  0  0  0
   18.8878   -6.0624    8.4114 C   0  0  0  0  0  0  0  0  0  0  0  0
   18.1604   -6.5679    7.3563 N   0  0  0  0  0  0  0  0  0  0  0  0
   18.4397   -7.7827    6.8330 C   0  0  0  0  0  0  0  0  0  0  0  0
   19.4658   -8.5523    7.3615 C   0  0  0  0  0  0  0  0  0  0  0  0
   20.2172   -8.0502    8.4220 C   0  0  0  0  0  0  0  0  0  0  0  0
   21.2156   -8.7567    8.9528 N   0  0  0  0  0  0  0  0  0  0  0  0
   19.5200   -9.7141    6.6605 N   0  0  0  0  0  0  0  0  0  0  0  0
   18.5437   -9.6891    5.7240 C   0  0  0  0  0  0  0  0  0  0  0  0
   17.8604   -8.5021    5.8222 N   0  0  0  0  0  0  0  0  0  0  0  0
  2  1  1  1  0  0  0
  2  3  1  0  0  0  0
  2  5  1  0  0  0  0
  3  4  1  0  0  0  0
  3 17  1  0  0  0  0
  5  6  1  0  0  0  0
  7  6  1  1  0  0  0
  7  8  1  0  0  0  0
  7  9  1  0  0  0  0
 10  9  1  1  0  0  0
 10 11  1  0  0  0  0
 10 12  1  0  0  0  0
 11 16  1  0  0  0  0
 12 13  1  6  0  0  0
 12 14  1  0  0  0  0
 14 15  1  6  0  0  0
 14 16  1  0  0  0  0
 16 27  1  1  0  0  0
 18 19  2  0  0  0  0
 18 23  1  0  0  0  0
 19 20  1  0  0  0  0
 20 21  2  0  0  0  0
 21 22  1  0  0  0  0
 21 27  1  0  0  0  0
 22 23  2  0  0  0  0
 22 25  1  0  0  0  0
 23 24  1  0  0  0  0
 25 26  2  0  0  0  0
 26 27  1  0  0  0  0
M  END
>  <CHROM.1>
-41.67575558,-173.03428525,-168.79041959,168.20553759,-154.29852829,69.63863614
-10.55996087,16.36663786,-6.62317630,7.42701196,-2.23535651,0.44700188,-2.21589784

>  <Name>
ligand

>  <RI>
0

>  <Rbt.Current_Directory>
/home/itssahil/PROJECTS/Mol_Feturizer/New_Systems/rnas/3GX5

>  <Rbt.Executable>
rbdock ($Id: //depot/dev/client3/rdock/2013.1/src/exe/rbdock.cxx#4 $)

>  <Rbt.Library>
libRbt.so (2013.1, Build901 2013/11/27)

>  <Rbt.Parameter_File>
/export/apps/rDock/src/rDock_2013.1_src/data/scripts/dock_solv.prm

>  <Rbt.Receptor>
prm/pocket_docking_7.prm

>  <SCORE>
-13.6001

>  <SCORE.INTER>
-13.7885

>  <SCORE.INTER.CONST>
1

>  <SCORE.INTER.POLAR>
0

>  <SCORE.INTER.ROT>
7

>  <SCORE.INTER.SOLV>
9.98287

>  <SCORE.INTER.VDW>
-20.7866

>  <SCORE.INTER.norm>
-0.510684

>  <SCORE.INTRA>
0.188402

>  <SCORE.INTRA.DIHEDRAL>
2.74189

>  <SCORE.INTRA.DIHEDRAL.0>
4.28829

>  <SCORE.INTRA.POLAR>
0

>  <SCORE.INTRA.POLAR.0>
0

>  <SCORE.INTRA.REPUL>
0

>  <SCORE.INTRA.REPUL.0>
0

>  <SCORE.INTRA.SOLV>
-0.986664

>  <SCORE.INTRA.SOLV.lig_0>
-48.6018

>  <SCORE.INTRA.VDW>
-0.68921

>  <SCORE.INTRA.VDW.0>
-2.1506

>  <SCORE.INTRA.norm>
0.00697784

>  <SCORE.RESTR>
0

>  <SCORE.RESTR.CAVITY>
0

>  <SCORE.RESTR.norm>
0

>  <SCORE.SYSTEM>
0

>  <SCORE.SYSTEM.CONST>
0

>  <SCORE.SYSTEM.DIHEDRAL>
0

>  <SCORE.SYSTEM.SOLV>
0

>  <SCORE.SYSTEM.norm>
0

>  <SCORE.heavy>
27

>  <SCORE.norm>
-0.503706

>  <RMSD>
4.885

$$$$
ligand
 OpenBabel11021811483D
libRbt.so/2013.1/901 2013/11/27
 27 29  0  0  0  0  0  0  0  0999 V2000
   11.0022   -7.6913   14.0613 N   0  0  0  0  0  0  0  0  0  0  0  0
   12.3327   -8.2976   13.9827 C   0  0  2  0  0  0  0  0  0  0  0  0
   12.9609   -8.6965   15.3202 C   0  0  0  0  0  0  0  0  0  0  0  0
   12.9336   -7.8923   16.2509 O   0  0  0  0  0  0  0  0  0  0  0  0
   13.2838   -7.4195   13.1870 C   0  0  0  0  0  0  0  0  0  0  0  0
   12.7735   -7.1780   11.7768 C   0  0  0  0  0  0  0  0  0  0  0  0
   14.0389   -6.3853   10.7689 S   0  0  2  0  0  0  0  0  0  0  0  0
   14.1237   -4.7756   11.5819 C   0  0  0  0  0  0  0  0  0  0  0  0
   13.0667   -5.9364    9.3122 C   0  0  0  0  0  0  0  0  0  0  0  0
   13.7244   -4.7997    8.5517 C   0  0  1  0  0  0  0  0  0  0  0  0
   15.0714   -5.1043    8.2706 O   0  0  0  0  0  0  0  0  0  0  0  0
   13.0854   -4.5511    7.1995 C   0  0  1  0  0  0  0  0  0  0  0  0
   12.0980   -3.5626    7.3510 O   0  0  0  0  0  0  0  0  0  0  0  0
   14.2353   -4.0473    6.3511 C   0  0  1  0  0  0  0  0  0  0  0  0
   14.1338   -2.6420    6.2969 O   0  0  0  0  0  0  0  0  0  0  0  0
   15.5111   -4.4703    7.0824 C   0  0  2  0  0  0  0  0  0  0  0  0
   13.5010   -9.7900   15.5082 O   0  0  0  0  0  0  0  0  0  0  0  0
   15.1139   -9.0047    4.4940 N   0  0  0  0  0  0  0  0  0  0  0  0
   14.1135   -8.2998    5.1181 C   0  0  0  0  0  0  0  0  0  0  0  0
   14.4190   -7.1163    5.7535 N   0  0  0  0  0  0  0  0  0  0  0  0
   15.6832   -6.6376    5.7701 C   0  0  0  0  0  0  0  0  0  0  0  0
   16.7015   -7.3312    5.1324 C   0  0  0  0  0  0  0  0  0  0  0  0
   16.4102   -8.5350    4.4942 C   0  0  0  0  0  0  0  0  0  0  0  0
   17.3625   -9.2339    3.8760 N   0  0  0  0  0  0  0  0  0  0  0  0
   17.8519   -6.6286    5.2971 N   0  0  0  0  0  0  0  0  0  0  0  0
   17.5676   -5.5114    6.0055 C   0  0  0  0  0  0  0  0  0  0  0  0
   16.2266   -5.4982    6.3004 N   0  0  0  0  0  0  0  0  0  0  0  0
  2  1  1  1  0  0  0
  2  3  1  0  0  0  0
  2  5  1  0  0  0  0
  3  4  1  0  0  0  0
  3 17  1  0  0  0  0
  5  6  1  0  0  0  0
  7  6  1  1  0  0  0
  7  8  1  0  0  0  0
  7  9  1  0  0  0  0
 10  9  1  6  0  0  0
 10 11  1  0  0  0  0
 10 12  1  0  0  0  0
 11 16  1  0  0  0  0
 12 13  1  1  0  0  0
 12 14  1  0  0  0  0
 14 15  1  1  0  0  0
 14 16  1  0  0  0  0
 16 27  1  6  0  0  0
 18 19  2  0  0  0  0
 18 23  1  0  0  0  0
 19 20  1  0  0  0  0
 20 21  2  0  0  0  0
 21 22  1  0  0  0  0
 21 27  1  0  0  0  0
 22 23  2  0  0  0  0
 22 25  1  0  0  0  0
 23 24  1  0  0  0  0
 25 26  2  0  0  0  0
 26 27  1  0  0  0  0
M  END
>  <CHROM.1>
-46.81061263,-58.57978625,-170.09863035,-67.44905352,157.61474029,52.47043329
64.03030170,14.35138741,-6.51271706,8.91643243,2.27835675,-1.06784485,2.36831245

>  <Name>
ligand

>  <RI>
0

>  <Rbt.Current_Directory>
/home/itssahil/PROJECTS/Mol_Feturizer/New_Systems/rnas/3GX5

>  <Rbt.Executable>
rbdock ($Id: //depot/dev/client3/rdock/2013.1/src/exe/rbdock.cxx#4 $)

>  <Rbt.Library>
libRbt.so (2013.1, Build901 2013/11/27)

>  <Rbt.Parameter_File>
/export/apps/rDock/src/rDock_2013.1_src/data/scripts/dock_solv.prm

>  <Rbt.Receptor>
prm/pocket_docking_8.prm

>  <SCORE>
-10.8

>  <SCORE.INTER>
-11.0209

>  <SCORE.INTER.CONST>
1

>  <SCORE.INTER.POLAR>
0

>  <SCORE.INTER.ROT>
7

>  <SCORE.INTER.SOLV>
14.0848

>  <SCORE.INTER.VDW>
-20.3089

>  <SCORE.INTER.norm>
-0.40818

>  <SCORE.INTRA>
0.220841

>  <SCORE.INTRA.DIHEDRAL>
0.214846

>  <SCORE.INTRA.DIHEDRAL.0>
4.28829

>  <SCORE.INTRA.POLAR>
0

>  <SCORE.INTRA.POLAR.0>
0

>  <SCORE.INTRA.REPUL>
0

>  <SCORE.INTRA.REPUL.0>
0

>  <SCORE.INTRA.SOLV>
-0.49485

>  <SCORE.INTRA.SOLV.lig_0>
-48.6018

>  <SCORE.INTRA.VDW>
0.360844

>  <SCORE.INTRA.VDW.0>
-2.1506

>  <SCORE.INTRA.norm>
0.00817931

>  <SCORE.RESTR>
0

>  <SCORE.RESTR.CAVITY>
0

>  <SCORE.RESTR.norm>
0

>  <SCORE.SYSTEM>
0

>  <SCORE.SYSTEM.CONST>
0

>  <SCORE.SYSTEM.DIHEDRAL>
0

>  <SCORE.SYSTEM.SOLV>
0

>  <SCORE.SYSTEM.norm>
0

>  <SCORE.heavy>
27

>  <SCORE.norm>
-0.400001

>  <RMSD>
4.888

$$$$
ligand
 OpenBabel11021811483D
libRbt.so/2013.1/901 2013/11/27
 27 29  0  0  0  0  0  0  0  0999 V2000
   14.9341   -9.1155   13.4674 N   0  0  0  0  0  0  0  0  0  0  0  0
   13.7359   -9.4060   12.6775 C   0  0  2  0  0  0  0  0  0  0  0  0
   13.3633  -10.8856   12.5556 C   0  0  0  0  0  0  0  0  0  0  0  0
   13.0311  -11.3241   11.4551 O   0  0  0  0  0  0  0  0  0  0  0  0
   13.8214   -8.7621   11.3039 C   0  0  0  0  0  0  0  0  0  0  0  0
   13.6820   -7.2517   11.3853 C   0  0  0  0  0  0  0  0  0  0  0  0
   13.9290   -6.5014    9.7663 S   0  0  2  0  0  0  0  0  0  0  0  0
   15.7187   -6.6784    9.6090 C   0  0  0  0  0  0  0  0  0  0  0  0
   13.8364   -4.7481   10.1979 C   0  0  0  0  0  0  0  0  0  0  0  0
   14.0513   -3.8771    8.9738 C   0  0  1  0  0  0  0  0  0  0  0  0
   15.3958   -3.9321    8.5551 O   0  0  0  0  0  0  0  0  0  0  0  0
   13.2455   -4.3395    7.7758 C   0  0  1  0  0  0  0  0  0  0  0  0
   12.0261   -3.6409    7.7655 O   0  0  0  0  0  0  0  0  0  0  0  0
   14.1089   -3.9460    6.5944 C   0  0  1  0  0  0  0  0  0  0  0  0
   13.5874   -2.7437    6.0743 O   0  0  0  0  0  0  0  0  0  0  0  0
   15.5145   -3.7274    7.1583 C   0  0  2  0  0  0  0  0  0  0  0  0
   13.3752  -11.6618   13.5148 O   0  0  0  0  0  0  0  0  0  0  0  0
   15.8966   -8.3979    4.8219 N   0  0  0  0  0  0  0  0  0  0  0  0
   14.7549   -7.6907    5.1108 C   0  0  0  0  0  0  0  0  0  0  0  0
   14.8603   -6.4680    5.7366 N   0  0  0  0  0  0  0  0  0  0  0  0
   16.0659   -5.9533    6.0673 C   0  0  0  0  0  0  0  0  0  0  0  0
   17.2284   -6.6494    5.7694 C   0  0  0  0  0  0  0  0  0  0  0  0
   17.1376   -7.8921    5.1459 C   0  0  0  0  0  0  0  0  0  0  0  0
   18.2315   -8.5944    4.8494 N   0  0  0  0  0  0  0  0  0  0  0  0
   18.2811   -5.9069    6.1989 N   0  0  0  0  0  0  0  0  0  0  0  0
   17.8001   -4.7634    6.7390 C   0  0  0  0  0  0  0  0  0  0  0  0
   16.4293   -4.7732    6.6589 N   0  0  0  0  0  0  0  0  0  0  0  0
  2  1  1  6  0  0  0
  2  3  1  0  0  0  0
  2  5  1  0  0  0  0
  3  4  1  0  0  0  0
  3 17  1  0  0  0  0
  5  6  1  0  0  0  0
  7  6  1  1  0  0  0
  7  8  1  0  0  0  0
  7  9  1  0  0  0  0
 10  9  1  1  0  0  0
 10 11  1  0  0  0  0
 10 12  1  0  0  0  0
 11 16  1  0  0  0  0
 12 13  1  6  0  0  0
 12 14  1  0  0  0  0
 14 15  1  1  0  0  0
 14 16  1  0  0  0  0
 16 27  1  6  0  0  0
 18 19  2  0  0  0  0
 18 23  1  0  0  0  0
 19 20  1  0  0  0  0
 20 21  2  0  0  0  0
 21 22  1  0  0  0  0
 21 27  1  0  0  0  0
 22 23  2  0  0  0  0
 22 25  1  0  0  0  0
 23 24  1  0  0  0  0
 25 26  2  0  0  0  0
 26 27  1  0  0  0  0
M  END
>  <CHROM.1>
-135.71623095,-71.00922179,175.09229666,-73.97043034,178.71112719,-71.09450031
98.30424697,14.85762739,-6.64641220,8.50596536,-2.02459781,0.92915039,-0.55712973

>  <Name>
ligand

>  <RI>
0

>  <Rbt.Current_Directory>
/home/itssahil/PROJECTS/Mol_Feturizer/New_Systems/rnas/3GX5

>  <Rbt.Executable>
rbdock ($Id: //depot/dev/client3/rdock/2013.1/src/exe/rbdock.cxx#4 $)

>  <Rbt.Library>
libRbt.so (2013.1, Build901 2013/11/27)

>  <Rbt.Parameter_File>
/export/apps/rDock/src/rDock_2013.1_src/data/scripts/dock_solv.prm

>  <Rbt.Receptor>
prm/pocket_docking_6.prm

>  <SCORE>
-9.79775

>  <SCORE.INTER>
-10.8367

>  <SCORE.INTER.CONST>
1

>  <SCORE.INTER.POLAR>
0

>  <SCORE.INTER.ROT>
7

>  <SCORE.INTER.SOLV>
11.3123

>  <SCORE.INTER.VDW>
-19.2619

>  <SCORE.INTER.norm>
-0.40136

>  <SCORE.INTRA>
1.03897

>  <SCORE.INTRA.DIHEDRAL>
0.325459

>  <SCORE.INTRA.DIHEDRAL.0>
4.28829

>  <SCORE.INTRA.POLAR>
0

>  <SCORE.INTRA.POLAR.0>
0

>  <SCORE.INTRA.REPUL>
0

>  <SCORE.INTRA.REPUL.0>
0

>  <SCORE.INTRA.SOLV>
-0.296591

>  <SCORE.INTRA.SOLV.lig_0>
-48.6018

>  <SCORE.INTRA.VDW>
1.02454

>  <SCORE.INTRA.VDW.0>
-2.1506

>  <SCORE.INTRA.norm>
0.0384804

>  <SCORE.RESTR>
0

>  <SCORE.RESTR.CAVITY>
0

>  <SCORE.RESTR.norm>
0

>  <SCORE.SYSTEM>
0

>  <SCORE.SYSTEM.CONST>
0

>  <SCORE.SYSTEM.DIHEDRAL>
0

>  <SCORE.SYSTEM.SOLV>
0

>  <SCORE.SYSTEM.norm>
0

>  <SCORE.heavy>
27

>  <SCORE.norm>
-0.36288

>  <RMSD>
4.898

$$$$
ligand
 OpenBabel11021811483D
libRbt.so/2013.1/901 2013/11/27
 27 29  0  0  0  0  0  0  0  0999 V2000
   12.6119   -9.1624   10.4569 N   0  0  0  0  0  0  0  0  0  0  0  0
   13.8261   -9.1484    9.6387 C   0  0  2  0  0  0  0  0  0  0  0  0
   15.0566   -9.8089   10.2649 C   0  0  0  0  0  0  0  0  0  0  0  0
   15.6111   -9.2516   11.2114 O   0  0  0  0  0  0  0  0  0  0  0  0
   14.1540   -7.7383    9.1770 C   0  0  0  0  0  0  0  0  0  0  0  0
   14.2461   -6.7746   10.3475 C   0  0  0  0  0  0  0  0  0  0  0  0
   15.6676   -5.6834   10.1632 S   0  0  2  0  0  0  0  0  0  0  0  0
   16.2508   -5.6380   11.8711 C   0  0  0  0  0  0  0  0  0  0  0  0
   14.8419   -4.0769   10.0840 C   0  0  0  0  0  0  0  0  0  0  0  0
   14.5562   -3.6854    8.6459 C   0  0  1  0  0  0  0  0  0  0  0  0
   15.6918   -3.8973    7.8387 O   0  0  0  0  0  0  0  0  0  0  0  0
   13.4617   -4.5240    8.0157 C   0  0  1  0  0  0  0  0  0  0  0  0
   12.2367   -3.8579    8.1907 O   0  0  0  0  0  0  0  0  0  0  0  0
   13.8510   -4.5732    6.5521 C   0  0  1  0  0  0  0  0  0  0  0  0
   13.0641   -3.6188    5.8753 O   0  0  0  0  0  0  0  0  0  0  0  0
   15.3314   -4.1895    6.5001 C   0  0  2  0  0  0  0  0  0  0  0  0
   15.5244  -10.8765    9.8597 O   0  0  0  0  0  0  0  0  0  0  0  0
   15.2686   -9.2057    4.9995 N   0  0  0  0  0  0  0  0  0  0  0  0
   14.1950   -8.3980    5.2859 C   0  0  0  0  0  0  0  0  0  0  0  0
   14.4169   -7.0936    5.6694 N   0  0  0  0  0  0  0  0  0  0  0  0
   15.6705   -6.5966    5.7651 C   0  0  0  0  0  0  0  0  0  0  0  0
   16.7640   -7.3960    5.4656 C   0  0  0  0  0  0  0  0  0  0  0  0
   16.5562   -8.7205    5.0863 C   0  0  0  0  0  0  0  0  0  0  0  0
   17.5816   -9.5221    4.7969 N   0  0  0  0  0  0  0  0  0  0  0  0
   17.8857   -6.6495    5.6349 N   0  0  0  0  0  0  0  0  0  0  0  0
   17.5128   -5.4056    6.0150 C   0  0  0  0  0  0  0  0  0  0  0  0
   16.1428   -5.3540    6.0935 N   0  0  0  0  0  0  0  0  0  0  0  0
  2  1  1  1  0  0  0
  2  3  1  0  0  0  0
  2  5  1  0  0  0  0
  3  4  1  0  0  0  0
  3 17  1  0  0  0  0
  5  6  1  0  0  0  0
  7  6  1  1  0  0  0
  7  8  1  0  0  0  0
  7  9  1  0  0  0  0
 10  9  1  1  0  0  0
 10 11  1  0  0  0  0
 10 12  1  0  0  0  0
 11 16  1  0  0  0  0
 12 13  1  6  0  0  0
 12 14  1  0  0  0  0
 14 15  1  6  0  0  0
 14 16  1  0  0  0  0
 16 27  1  1  0  0  0
 18 19  2  0  0  0  0
 18 23  1  0  0  0  0
 19 20  1  0  0  0  0
 20 21  2  0  0  0  0
 21 22  1  0  0  0  0
 21 27  1  0  0  0  0
 22 23  2  0  0  0  0
 22 25  1  0  0  0  0
 23 24  1  0  0  0  0
 25 26  2  0  0  0  0
 26 27  1  0  0  0  0
M  END
>  <CHROM.1>
-70.71491700,54.38606949,136.73851328,-139.75985585,-92.47290575,-46.46481628
115.59672217,15.10688645,-6.62534846,7.94603355,1.85628138,-1.23169914,2.42977967

>  <Name>
ligand

>  <RI>
0

>  <Rbt.Current_Directory>
/home/itssahil/PROJECTS/Mol_Feturizer/New_Systems/rnas/3GX5

>  <Rbt.Executable>
rbdock ($Id: //depot/dev/client3/rdock/2013.1/src/exe/rbdock.cxx#4 $)

>  <Rbt.Library>
libRbt.so (2013.1, Build901 2013/11/27)

>  <Rbt.Parameter_File>
/export/apps/rDock/src/rDock_2013.1_src/data/scripts/dock_solv.prm

>  <Rbt.Receptor>
prm/pocket_docking_4.prm

>  <SCORE>
-5.06124

>  <SCORE.INTER>
-8.983

>  <SCORE.INTER.CONST>
1

>  <SCORE.INTER.POLAR>
0

>  <SCORE.INTER.ROT>
7

>  <SCORE.INTER.SOLV>
13.3526

>  <SCORE.INTER.VDW>
-18.7062

>  <SCORE.INTER.norm>
-0.332704

>  <SCORE.INTRA>
3.92024

>  <SCORE.INTRA.DIHEDRAL>
9.84012

>  <SCORE.INTRA.DIHEDRAL.0>
4.28829

>  <SCORE.INTRA.POLAR>
0

>  <SCORE.INTRA.POLAR.0>
0

>  <SCORE.INTRA.REPUL>
0

>  <SCORE.INTRA.REPUL.0>
0

>  <SCORE.INTRA.SOLV>
-0.201842

>  <SCORE.INTRA.SOLV.lig_0>
-48.6018

>  <SCORE.INTRA.VDW>
-0.898898

>  <SCORE.INTRA.VDW.0>
-2.1506

>  <SCORE.INTRA.norm>
0.145194

>  <SCORE.RESTR>
0.00151992

>  <SCORE.RESTR.CAVITY>
0.00151992

>  <SCORE.RESTR.norm>
5.62932e-05

>  <SCORE.SYSTEM>
0

>  <SCORE.SYSTEM.CONST>
0

>  <SCORE.SYSTEM.DIHEDRAL>
0

>  <SCORE.SYSTEM.SOLV>
0

>  <SCORE.SYSTEM.norm>
0

>  <SCORE.heavy>
27

>  <SCORE.norm>
-0.187453

>  <RMSD>
4.912

$$$$
ligand
 OpenBabel11021811483D
libRbt.so/2013.1/901 2013/11/27
 27 29  0  0  0  0  0  0  0  0999 V2000
   17.1841   -8.5576    9.9347 N   0  0  0  0  0  0  0  0  0  0  0  0
   16.0760   -9.1998   10.6443 C   0  0  2  0  0  0  0  0  0  0  0  0
   16.4727  -10.1194   11.8018 C   0  0  0  0  0  0  0  0  0  0  0  0
   17.6518  -10.4507   11.9180 O   0  0  0  0  0  0  0  0  0  0  0  0
   15.1587   -9.9267    9.6753 C   0  0  0  0  0  0  0  0  0  0  0  0
   14.4583   -8.9592    8.7368 C   0  0  0  0  0  0  0  0  0  0  0  0
   13.2632   -7.9538    9.6347 S   0  0  2  0  0  0  0  0  0  0  0  0
   11.9466   -9.1667    9.8684 C   0  0  0  0  0  0  0  0  0  0  0  0
   12.5523   -6.9952    8.2766 C   0  0  0  0  0  0  0  0  0  0  0  0
   13.4055   -5.7787    7.9679 C   0  0  1  0  0  0  0  0  0  0  0  0
   14.7691   -6.1300    7.9118 O   0  0  0  0  0  0  0  0  0  0  0  0
   13.0973   -5.1746    6.6121 C   0  0  1  0  0  0  0  0  0  0  0  0
   12.1378   -4.1625    6.7856 O   0  0  0  0  0  0  0  0  0  0  0  0
   14.4265   -4.5956    6.1714 C   0  0  1  0  0  0  0  0  0  0  0  0
   14.3910   -3.2113    6.4368 O   0  0  0  0  0  0  0  0  0  0  0  0
   15.4882   -5.2848    7.0311 C   0  0  2  0  0  0  0  0  0  0  0  0
   15.6605  -10.5508   12.6246 O   0  0  0  0  0  0  0  0  0  0  0  0
   15.6457   -9.6635    4.1641 N   0  0  0  0  0  0  0  0  0  0  0  0
   14.5666   -9.1248    4.8217 C   0  0  0  0  0  0  0  0  0  0  0  0
   14.7259   -7.9551    5.5317 N   0  0  0  0  0  0  0  0  0  0  0  0
   15.9229   -7.3294    5.5889 C   0  0  0  0  0  0  0  0  0  0  0  0
   17.0184   -7.8538    4.9186 C   0  0  0  0  0  0  0  0  0  0  0  0
   16.8756   -9.0418    4.2047 C   0  0  0  0  0  0  0  0  0  0  0  0
   17.9064   -9.5807    3.5529 N   0  0  0  0  0  0  0  0  0  0  0  0
   18.0752   -7.0293    5.1366 N   0  0  0  0  0  0  0  0  0  0  0  0
   17.6569   -6.0009    5.9101 C   0  0  0  0  0  0  0  0  0  0  0  0
   16.3237   -6.1680    6.1934 N   0  0  0  0  0  0  0  0  0  0  0  0
  2  1  1  6  0  0  0
  2  3  1  0  0  0  0
  2  5  1  0  0  0  0
  3  4  1  0  0  0  0
  3 17  1  0  0  0  0
  5  6  1  0  0  0  0
  7  6  1  6  0  0  0
  7  8  1  0  0  0  0
  7  9  1  0  0  0  0
 10  9  1  6  0  0  0
 10 11  1  0  0  0  0
 10 12  1  0  0  0  0
 11 16  1  0  0  0  0
 12 13  1  1  0  0  0
 12 14  1  0  0  0  0
 14 15  1  1  0  0  0
 14 16  1  0  0  0  0
 16 27  1  6  0  0  0
 18 19  2  0  0  0  0
 18 23  1  0  0  0  0
 19 20  1  0  0  0  0
 20 21  2  0  0  0  0
 21 22  1  0  0  0  0
 21 27  1  0  0  0  0
 22 23  2  0  0  0  0
 22 25  1  0  0  0  0
 23 24  1  0  0  0  0
 25 26  2  0  0  0  0
 26 27  1  0  0  0  0
M  END
>  <CHROM.1>
-12.66016161,-65.41410288,-68.81849606,-75.36194648,-84.24997088,45.90081253
44.85964240,15.15423385,-7.63061150,7.66823078,-1.55076657,0.74623251,-1.04152812

>  <Name>
ligand

>  <RI>
0

>  <Rbt.Current_Directory>
/home/itssahil/PROJECTS/Mol_Feturizer/New_Systems/rnas/3GX5

>  <Rbt.Executable>
rbdock ($Id: //depot/dev/client3/rdock/2013.1/src/exe/rbdock.cxx#4 $)

>  <Rbt.Library>
libRbt.so (2013.1, Build901 2013/11/27)

>  <Rbt.Parameter_File>
/export/apps/rDock/src/rDock_2013.1_src/data/scripts/dock_solv.prm

>  <Rbt.Receptor>
prm/pocket_docking_6.prm

>  <SCORE>
-14.1187

>  <SCORE.INTER>
-13.1786

>  <SCORE.INTER.CONST>
1

>  <SCORE.INTER.POLAR>
0

>  <SCORE.INTER.ROT>
7

>  <SCORE.INTER.SOLV>
12.9171

>  <SCORE.INTER.VDW>
-21.3581

>  <SCORE.INTER.norm>
-0.488096

>  <SCORE.INTRA>
-0.940103

>  <SCORE.INTRA.DIHEDRAL>
1.05968

>  <SCORE.INTRA.DIHEDRAL.0>
4.28829

>  <SCORE.INTRA.POLAR>
0

>  <SCORE.INTRA.POLAR.0>
0

>  <SCORE.INTRA.REPUL>
0

>  <SCORE.INTRA.REPUL.0>
0

>  <SCORE.INTRA.SOLV>
0.321322

>  <SCORE.INTRA.SOLV.lig_0>
-48.6018

>  <SCORE.INTRA.VDW>
-1.6306

>  <SCORE.INTRA.VDW.0>
-2.1506

>  <SCORE.INTRA.norm>
-0.0348186

>  <SCORE.RESTR>
0

>  <SCORE.RESTR.CAVITY>
0

>  <SCORE.RESTR.norm>
0

>  <SCORE.SYSTEM>
0

>  <SCORE.SYSTEM.CONST>
0

>  <SCORE.SYSTEM.DIHEDRAL>
0

>  <SCORE.SYSTEM.SOLV>
0

>  <SCORE.SYSTEM.norm>
0

>  <SCORE.heavy>
27

>  <SCORE.norm>
-0.522914

>  <RMSD>
4.912

$$$$
ligand
 OpenBabel11021811483D
libRbt.so/2013.1/901 2013/11/27
 27 29  0  0  0  0  0  0  0  0999 V2000
   15.9907   -4.6756    9.6523 N   0  0  0  0  0  0  0  0  0  0  0  0
   14.7508   -5.0121   10.3546 C   0  0  2  0  0  0  0  0  0  0  0  0
   14.9214   -5.6243   11.7471 C   0  0  0  0  0  0  0  0  0  0  0  0
   16.0586   -5.8380   12.1650 O   0  0  0  0  0  0  0  0  0  0  0  0
   13.8581   -5.8883    9.4919 C   0  0  0  0  0  0  0  0  0  0  0  0
   13.1336   -5.0758    8.4325 C   0  0  0  0  0  0  0  0  0  0  0  0
   14.2509   -4.6434    7.0873 S   0  0  2  0  0  0  0  0  0  0  0  0
   13.5508   -3.0530    6.5978 C   0  0  0  0  0  0  0  0  0  0  0  0
   13.5912   -5.6832    5.7636 C   0  0  0  0  0  0  0  0  0  0  0  0
   14.2726   -7.0391    5.7497 C   0  0  1  0  0  0  0  0  0  0  0  0
   14.6571   -7.4150    7.0524 O   0  0  0  0  0  0  0  0  0  0  0  0
   13.3587   -8.1503    5.2717 C   0  0  1  0  0  0  0  0  0  0  0  0
   13.5408   -8.3093    3.8873 O   0  0  0  0  0  0  0  0  0  0  0  0
   13.8523   -9.3661    6.0295 C   0  0  1  0  0  0  0  0  0  0  0  0
   14.6740  -10.1034    5.1525 O   0  0  0  0  0  0  0  0  0  0  0  0
   14.6660   -8.8233    7.2062 C   0  0  2  0  0  0  0  0  0  0  0  0
   13.9672   -5.9203   12.4714 O   0  0  0  0  0  0  0  0  0  0  0  0
   15.1055   -9.1151   12.4158 N   0  0  0  0  0  0  0  0  0  0  0  0
   16.0705   -8.7537   11.5073 C   0  0  0  0  0  0  0  0  0  0  0  0
   15.7602   -8.7390   10.1652 N   0  0  0  0  0  0  0  0  0  0  0  0
   14.5242   -9.0707    9.7297 C   0  0  0  0  0  0  0  0  0  0  0  0
   13.5353   -9.4243   10.6362 C   0  0  0  0  0  0  0  0  0  0  0  0
   13.8367   -9.4538   11.9961 C   0  0  0  0  0  0  0  0  0  0  0  0
   12.9154   -9.7948   12.8976 N   0  0  0  0  0  0  0  0  0  0  0  0
   12.4044   -9.6964    9.9352 N   0  0  0  0  0  0  0  0  0  0  0  0
   12.6644   -9.5042    8.6214 C   0  0  0  0  0  0  0  0  0  0  0  0
   13.9717   -9.1093    8.4775 N   0  0  0  0  0  0  0  0  0  0  0  0
  2  1  1  6  0  0  0
  2  3  1  0  0  0  0
  2  5  1  0  0  0  0
  3  4  1  0  0  0  0
  3 17  1  0  0  0  0
  5  6  1  0  0  0  0
  7  6  1  1  0  0  0
  7  8  1  0  0  0  0
  7  9  1  0  0  0  0
 10  9  1  1  0  0  0
 10 11  1  0  0  0  0
 10 12  1  0  0  0  0
 11 16  1  0  0  0  0
 12 13  1  6  0  0  0
 12 14  1  0  0  0  0
 14 15  1  6  0  0  0
 14 16  1  0  0  0  0
 16 27  1  1  0  0  0
 18 19  2  0  0  0  0
 18 23  1  0  0  0  0
 19 20  1  0  0  0  0
 20 21  2  0  0  0  0
 21 22  1  0  0  0  0
 21 27  1  0  0  0  0
 22 23  2  0  0  0  0
 22 25  1  0  0  0  0
 23 24  1  0  0  0  0
 25 26  2  0  0  0  0
 26 27  1  0  0  0  0
M  END
>  <CHROM.1>
-2.55032918,-77.69551135,76.11386081,-148.31662192,-90.36030936,31.10016144
-83.03087881,14.22601576,-7.34719539,8.76730661,-0.88362600,-1.41180845,-0.74817635

>  <Name>
ligand

>  <RI>
0

>  <Rbt.Current_Directory>
/home/itssahil/PROJECTS/Mol_Feturizer/New_Systems/rnas/3GX5

>  <Rbt.Executable>
rbdock ($Id: //depot/dev/client3/rdock/2013.1/src/exe/rbdock.cxx#4 $)

>  <Rbt.Library>
libRbt.so (2013.1, Build901 2013/11/27)

>  <Rbt.Parameter_File>
/export/apps/rDock/src/rDock_2013.1_src/data/scripts/dock_solv.prm

>  <Rbt.Receptor>
prm/pocket_docking_3.prm

>  <SCORE>
-9.34902

>  <SCORE.INTER>
-11.3662

>  <SCORE.INTER.CONST>
1

>  <SCORE.INTER.POLAR>
0

>  <SCORE.INTER.ROT>
7

>  <SCORE.INTER.SOLV>
6.92539

>  <SCORE.INTER.VDW>
-18.1526

>  <SCORE.INTER.norm>
-0.420972

>  <SCORE.INTRA>
2.01721

>  <SCORE.INTRA.DIHEDRAL>
8.22687

>  <SCORE.INTRA.DIHEDRAL.0>
4.28829

>  <SCORE.INTRA.POLAR>
0

>  <SCORE.INTRA.POLAR.0>
0

>  <SCORE.INTRA.REPUL>
0

>  <SCORE.INTRA.REPUL.0>
0

>  <SCORE.INTRA.SOLV>
1.31932

>  <SCORE.INTRA.SOLV.lig_0>
-48.6018

>  <SCORE.INTRA.VDW>
-2.75588

>  <SCORE.INTRA.VDW.0>
-2.1506

>  <SCORE.INTRA.norm>
0.0747116

>  <SCORE.RESTR>
0

>  <SCORE.RESTR.CAVITY>
0

>  <SCORE.RESTR.norm>
0

>  <SCORE.SYSTEM>
0

>  <SCORE.SYSTEM.CONST>
0

>  <SCORE.SYSTEM.DIHEDRAL>
0

>  <SCORE.SYSTEM.SOLV>
0

>  <SCORE.SYSTEM.norm>
0

>  <SCORE.heavy>
27

>  <SCORE.norm>
-0.34626

>  <RMSD>
4.918

$$$$
ligand
 OpenBabel11021811483D
libRbt.so/2013.1/901 2013/11/27
 27 29  0  0  0  0  0  0  0  0999 V2000
   12.3849   -8.8295   13.4183 N   0  0  0  0  0  0  0  0  0  0  0  0
   12.2877   -7.5968   12.6341 C   0  0  2  0  0  0  0  0  0  0  0  0
   11.0877   -7.5041   11.6885 C   0  0  0  0  0  0  0  0  0  0  0  0
   10.8315   -8.4625   10.9607 O   0  0  0  0  0  0  0  0  0  0  0  0
   13.5810   -7.3269   11.8834 C   0  0  0  0  0  0  0  0  0  0  0  0
   13.6314   -5.9052   11.3509 C   0  0  0  0  0  0  0  0  0  0  0  0
   15.2174   -5.5768   10.5623 S   0  0  2  0  0  0  0  0  0  0  0  0
   16.2781   -5.4813   12.0200 C   0  0  0  0  0  0  0  0  0  0  0  0
   15.0459   -3.8141   10.1984 C   0  0  0  0  0  0  0  0  0  0  0  0
   14.6993   -3.5941    8.7374 C   0  0  1  0  0  0  0  0  0  0  0  0
   15.8418   -3.7500    7.9272 O   0  0  0  0  0  0  0  0  0  0  0  0
   13.7014   -4.6072    8.2120 C   0  0  1  0  0  0  0  0  0  0  0  0
   12.4098   -4.0715    8.3533 O   0  0  0  0  0  0  0  0  0  0  0  0
   14.0758   -4.7486    6.7505 C   0  0  1  0  0  0  0  0  0  0  0  0
   13.1757   -3.9577    6.0073 O   0  0  0  0  0  0  0  0  0  0  0  0
   15.5012   -4.2055    6.6297 C   0  0  2  0  0  0  0  0  0  0  0  0
   10.3650   -6.5064   11.6173 O   0  0  0  0  0  0  0  0  0  0  0  0
   16.0298   -8.9971    4.5854 N   0  0  0  0  0  0  0  0  0  0  0  0
   14.8864   -8.2412    4.6771 C   0  0  0  0  0  0  0  0  0  0  0  0
   14.9493   -6.9924    5.2554 N   0  0  0  0  0  0  0  0  0  0  0  0
   16.1153   -6.4995    5.7299 C   0  0  0  0  0  0  0  0  0  0  0  0
   17.2809   -7.2454    5.6318 C   0  0  0  0  0  0  0  0  0  0  0  0
   17.2314   -8.5145    5.0588 C   0  0  0  0  0  0  0  0  0  0  0  0
   18.3286   -9.2645    4.9525 N   0  0  0  0  0  0  0  0  0  0  0  0
   18.2904   -6.5153    6.1721 N   0  0  0  0  0  0  0  0  0  0  0  0
   17.7821   -5.3318    6.5861 C   0  0  0  0  0  0  0  0  0  0  0  0
   16.4367   -5.3030    6.3129 N   0  0  0  0  0  0  0  0  0  0  0  0
  2  1  1  6  0  0  0
  2  3  1  0  0  0  0
  2  5  1  0  0  0  0
  3  4  1  0  0  0  0
  3 17  1  0  0  0  0
  5  6  1  0  0  0  0
  7  6  1  1  0  0  0
  7  8  1  0  0  0  0
  7  9  1  0  0  0  0
 10  9  1  1  0  0  0
 10 11  1  0  0  0  0
 10 12  1  0  0  0  0
 11 16  1  0  0  0  0
 12 13  1  6  0  0  0
 12 14  1  0  0  0  0
 14 15  1  6  0  0  0
 14 16  1  0  0  0  0
 16 27  1  1  0  0  0
 18 19  2  0  0  0  0
 18 23  1  0  0  0  0
 19 20  1  0  0  0  0
 20 21  2  0  0  0  0
 21 22  1  0  0  0  0
 21 27  1  0  0  0  0
 22 23  2  0  0  0  0
 22 25  1  0  0  0  0
 23 24  1  0  0  0  0
 25 26  2  0  0  0  0
 26 27  1  0  0  0  0
M  END
>  <CHROM.1>
-47.43693531,-165.82463077,176.21039849,-72.61289144,-101.41546200,-77.12641910
136.40274224,14.66863995,-6.18370544,8.47495801,3.02540782,0.97116639,0.13425693

>  <Name>
ligand

>  <RI>
0

>  <Rbt.Current_Directory>
/home/itssahil/PROJECTS/Mol_Feturizer/New_Systems/rnas/3GX5

>  <Rbt.Executable>
rbdock ($Id: //depot/dev/client3/rdock/2013.1/src/exe/rbdock.cxx#4 $)

>  <Rbt.Library>
libRbt.so (2013.1, Build901 2013/11/27)

>  <Rbt.Parameter_File>
/export/apps/rDock/src/rDock_2013.1_src/data/scripts/dock_solv.prm

>  <Rbt.Receptor>
prm/pocket_docking_5.prm

>  <SCORE>
-10.9771

>  <SCORE.INTER>
-12.8532

>  <SCORE.INTER.CONST>
1

>  <SCORE.INTER.POLAR>
0

>  <SCORE.INTER.ROT>
7

>  <SCORE.INTER.SOLV>
10.397

>  <SCORE.INTER.VDW>
-20.3011

>  <SCORE.INTER.norm>
-0.476044

>  <SCORE.INTRA>
1.87614

>  <SCORE.INTRA.DIHEDRAL>
3.33599

>  <SCORE.INTRA.DIHEDRAL.0>
4.28829

>  <SCORE.INTRA.POLAR>
0

>  <SCORE.INTRA.POLAR.0>
0

>  <SCORE.INTRA.REPUL>
0

>  <SCORE.INTRA.REPUL.0>
0

>  <SCORE.INTRA.SOLV>
-0.945249

>  <SCORE.INTRA.SOLV.lig_0>
-48.6018

>  <SCORE.INTRA.VDW>
0.68077

>  <SCORE.INTRA.VDW.0>
-2.1506

>  <SCORE.INTRA.norm>
0.0694867

>  <SCORE.RESTR>
0

>  <SCORE.RESTR.CAVITY>
0

>  <SCORE.RESTR.norm>
0

>  <SCORE.SYSTEM>
0

>  <SCORE.SYSTEM.CONST>
0

>  <SCORE.SYSTEM.DIHEDRAL>
0

>  <SCORE.SYSTEM.SOLV>
0

>  <SCORE.SYSTEM.norm>
0

>  <SCORE.heavy>
27

>  <SCORE.norm>
-0.406558

>  <RMSD>
4.925

$$$$
ligand
 OpenBabel11021811483D
libRbt.so/2013.1/901 2013/11/27
 27 29  0  0  0  0  0  0  0  0999 V2000
   17.4643   -6.5879    8.4635 N   0  0  0  0  0  0  0  0  0  0  0  0
   17.4383   -5.4964    7.4878 C   0  0  2  0  0  0  0  0  0  0  0  0
   16.8634   -4.1698    7.9905 C   0  0  0  0  0  0  0  0  0  0  0  0
   16.0087   -4.1919    8.8751 O   0  0  0  0  0  0  0  0  0  0  0  0
   16.7433   -5.9284    6.2075 C   0  0  0  0  0  0  0  0  0  0  0  0
   17.6048   -6.8831    5.3991 C   0  0  0  0  0  0  0  0  0  0  0  0
   17.4677   -8.5615    6.0389 S   0  0  2  0  0  0  0  0  0  0  0  0
   19.1715   -9.1184    5.8245 C   0  0  0  0  0  0  0  0  0  0  0  0
   16.6999   -9.3906    4.6276 C   0  0  0  0  0  0  0  0  0  0  0  0
   15.1865   -9.3163    4.7137 C   0  0  1  0  0  0  0  0  0  0  0  0
   14.7481   -9.6178    6.0187 O   0  0  0  0  0  0  0  0  0  0  0  0
   14.6499   -7.9276    4.4278 C   0  0  1  0  0  0  0  0  0  0  0  0
   14.3389   -7.8455    3.0598 O   0  0  0  0  0  0  0  0  0  0  0  0
   13.3974   -7.8496    5.2771 C   0  0  1  0  0  0  0  0  0  0  0  0
   12.2984   -8.0977    4.4295 O   0  0  0  0  0  0  0  0  0  0  0  0
   13.5335   -8.9560    6.3253 C   0  0  2  0  0  0  0  0  0  0  0  0
   17.2146   -3.0743    7.5441 O   0  0  0  0  0  0  0  0  0  0  0  0
   15.8582   -9.4089   10.9953 N   0  0  0  0  0  0  0  0  0  0  0  0
   15.9909  -10.2328    9.9041 C   0  0  0  0  0  0  0  0  0  0  0  0
   15.2888   -9.9458    8.7542 N   0  0  0  0  0  0  0  0  0  0  0  0
   14.4760   -8.8680    8.6819 C   0  0  0  0  0  0  0  0  0  0  0  0
   14.3425   -8.0190    9.7709 C   0  0  0  0  0  0  0  0  0  0  0  0
   15.0382   -8.3017   10.9445 C   0  0  0  0  0  0  0  0  0  0  0  0
   14.9310   -7.5136   12.0146 N   0  0  0  0  0  0  0  0  0  0  0  0
   13.4829   -7.0267    9.4237 N   0  0  0  0  0  0  0  0  0  0  0  0
   13.0950   -7.2315    8.1438 C   0  0  0  0  0  0  0  0  0  0  0  0
   13.7070   -8.3645    7.6670 N   0  0  0  0  0  0  0  0  0  0  0  0
  2  1  1  1  0  0  0
  2  3  1  0  0  0  0
  2  5  1  0  0  0  0
  3  4  1  0  0  0  0
  3 17  1  0  0  0  0
  5  6  1  0  0  0  0
  7  6  1  6  0  0  0
  7  8  1  0  0  0  0
  7  9  1  0  0  0  0
 10  9  1  1  0  0  0
 10 11  1  0  0  0  0
 10 12  1  0  0  0  0
 11 16  1  0  0  0  0
 12 13  1  6  0  0  0
 12 14  1  0  0  0  0
 14 15  1  6  0  0  0
 14 16  1  0  0  0  0
 16 27  1  1  0  0  0
 18 19  2  0  0  0  0
 18 23  1  0  0  0  0
 19 20  1  0  0  0  0
 20 21  2  0  0  0  0
 21 22  1  0  0  0  0
 21 27  1  0  0  0  0
 22 23  2  0  0  0  0
 22 25  1  0  0  0  0
 23 24  1  0  0  0  0
 25 26  2  0  0  0  0
 26 27  1  0  0  0  0
M  END
>  <CHROM.1>
-29.23121846,-72.89094597,81.43739523,-142.51921173,-89.08849846,-44.99270732
-31.28119341,15.55840772,-7.70965117,7.23393583,-1.49936094,-0.87355191,-1.73964608

>  <Name>
ligand

>  <RI>
0

>  <Rbt.Current_Directory>
/home/itssahil/PROJECTS/Mol_Feturizer/New_Systems/rnas/3GX5

>  <Rbt.Executable>
rbdock ($Id: //depot/dev/client3/rdock/2013.1/src/exe/rbdock.cxx#4 $)

>  <Rbt.Library>
libRbt.so (2013.1, Build901 2013/11/27)

>  <Rbt.Parameter_File>
/export/apps/rDock/src/rDock_2013.1_src/data/scripts/dock_solv.prm

>  <Rbt.Receptor>
prm/pocket_docking_8.prm

>  <SCORE>
-10.4892

>  <SCORE.INTER>
-12.0613

>  <SCORE.INTER.CONST>
1

>  <SCORE.INTER.POLAR>
0

>  <SCORE.INTER.ROT>
7

>  <SCORE.INTER.SOLV>
7.96299

>  <SCORE.INTER.VDW>
-18.9619

>  <SCORE.INTER.norm>
-0.446715

>  <SCORE.INTRA>
1.57206

>  <SCORE.INTRA.DIHEDRAL>
6.91644

>  <SCORE.INTRA.DIHEDRAL.0>
4.28829

>  <SCORE.INTRA.POLAR>
0

>  <SCORE.INTRA.POLAR.0>
0

>  <SCORE.INTRA.REPUL>
0

>  <SCORE.INTRA.REPUL.0>
0

>  <SCORE.INTRA.SOLV>
1.74346

>  <SCORE.INTRA.SOLV.lig_0>
-48.6018

>  <SCORE.INTRA.VDW>
-2.75789

>  <SCORE.INTRA.VDW.0>
-2.1506

>  <SCORE.INTRA.norm>
0.0582246

>  <SCORE.RESTR>
0

>  <SCORE.RESTR.CAVITY>
0

>  <SCORE.RESTR.norm>
0

>  <SCORE.SYSTEM>
0

>  <SCORE.SYSTEM.CONST>
0

>  <SCORE.SYSTEM.DIHEDRAL>
0

>  <SCORE.SYSTEM.SOLV>
0

>  <SCORE.SYSTEM.norm>
0

>  <SCORE.heavy>
27

>  <SCORE.norm>
-0.388491

>  <RMSD>
4.925

$$$$
ligand
 OpenBabel11021811483D
libRbt.so/2013.1/901 2013/11/27
 27 29  0  0  0  0  0  0  0  0999 V2000
   14.0831   -7.5615   12.9053 N   0  0  0  0  0  0  0  0  0  0  0  0
   14.0980   -6.0986   12.8453 C   0  0  2  0  0  0  0  0  0  0  0  0
   13.5318   -5.4805   11.5646 C   0  0  0  0  0  0  0  0  0  0  0  0
   13.0726   -6.2257   10.7000 O   0  0  0  0  0  0  0  0  0  0  0  0
   15.4890   -5.5572   13.1296 C   0  0  0  0  0  0  0  0  0  0  0  0
   16.5455   -6.2700   12.3030 C   0  0  0  0  0  0  0  0  0  0  0  0
   16.3195   -5.9275   10.5489 S   0  0  2  0  0  0  0  0  0  0  0  0
   17.9444   -6.4063    9.9247 C   0  0  0  0  0  0  0  0  0  0  0  0
   16.5099   -4.1296   10.5369 C   0  0  0  0  0  0  0  0  0  0  0  0
   16.2008   -3.5616    9.1640 C   0  0  1  0  0  0  0  0  0  0  0  0
   17.1214   -4.0398    8.2101 O   0  0  0  0  0  0  0  0  0  0  0  0
   14.8402   -3.9851    8.6464 C   0  0  1  0  0  0  0  0  0  0  0  0
   13.9039   -2.9998    9.0033 O   0  0  0  0  0  0  0  0  0  0  0  0
   15.0323   -4.0356    7.1442 C   0  0  1  0  0  0  0  0  0  0  0  0
   14.5046   -2.8412    6.6123 O   0  0  0  0  0  0  0  0  0  0  0  0
   16.5440   -4.1077    6.9182 C   0  0  2  0  0  0  0  0  0  0  0  0
   13.5192   -4.2645   11.3551 O   0  0  0  0  0  0  0  0  0  0  0  0
   14.8196   -8.4523    4.5582 N   0  0  0  0  0  0  0  0  0  0  0  0
   14.0938   -7.3416    4.9142 C   0  0  0  0  0  0  0  0  0  0  0  0
   14.7324   -6.2901    5.5341 N   0  0  0  0  0  0  0  0  0  0  0  0
   16.0583   -6.3326    5.7943 C   0  0  0  0  0  0  0  0  0  0  0  0
   16.8071   -7.4416    5.4282 C   0  0  0  0  0  0  0  0  0  0  0  0
   16.1736   -8.5175    4.8097 C   0  0  0  0  0  0  0  0  0  0  0  0
   16.8575   -9.6036    4.4488 N   0  0  0  0  0  0  0  0  0  0  0  0
   18.0946   -7.2159    5.7962 N   0  0  0  0  0  0  0  0  0  0  0  0
   18.1635   -5.9902    6.3648 C   0  0  0  0  0  0  0  0  0  0  0  0
   16.9114   -5.4264    6.3649 N   0  0  0  0  0  0  0  0  0  0  0  0
  2  1  1  6  0  0  0
  2  3  1  0  0  0  0
  2  5  1  0  0  0  0
  3  4  1  0  0  0  0
  3 17  1  0  0  0  0
  5  6  1  0  0  0  0
  7  6  1  1  0  0  0
  7  8  1  0  0  0  0
  7  9  1  0  0  0  0
 10  9  1  1  0  0  0
 10 11  1  0  0  0  0
 10 12  1  0  0  0  0
 11 16  1  0  0  0  0
 12 13  1  6  0  0  0
 12 14  1  0  0  0  0
 14 15  1  6  0  0  0
 14 16  1  0  0  0  0
 16 27  1  1  0  0  0
 18 19  2  0  0  0  0
 18 23  1  0  0  0  0
 19 20  1  0  0  0  0
 20 21  2  0  0  0  0
 21 22  1  0  0  0  0
 21 27  1  0  0  0  0
 22 23  2  0  0  0  0
 22 25  1  0  0  0  0
 23 24  1  0  0  0  0
 25 26  2  0  0  0  0
 26 27  1  0  0  0  0
M  END
>  <CHROM.1>
2.09549322,48.89196879,65.61347210,162.22434295,-173.45489569,-63.52559497
130.13411859,15.63418740,-5.73158874,8.53005549,-2.39471475,1.28739876,-1.03102250

>  <Name>
ligand

>  <RI>
0

>  <Rbt.Current_Directory>
/home/itssahil/PROJECTS/Mol_Feturizer/New_Systems/rnas/3GX5

>  <Rbt.Executable>
rbdock ($Id: //depot/dev/client3/rdock/2013.1/src/exe/rbdock.cxx#4 $)

>  <Rbt.Library>
libRbt.so (2013.1, Build901 2013/11/27)

>  <Rbt.Parameter_File>
/export/apps/rDock/src/rDock_2013.1_src/data/scripts/dock_solv.prm

>  <Rbt.Receptor>
prm/pocket_docking_4.prm

>  <SCORE>
-11.934

>  <SCORE.INTER>
-12.3302

>  <SCORE.INTER.CONST>
1

>  <SCORE.INTER.POLAR>
0

>  <SCORE.INTER.ROT>
7

>  <SCORE.INTER.SOLV>
13.7807

>  <SCORE.INTER.VDW>
-21.0803

>  <SCORE.INTER.norm>
-0.456673

>  <SCORE.INTRA>
0.396194

>  <SCORE.INTRA.DIHEDRAL>
0.731146

>  <SCORE.INTRA.DIHEDRAL.0>
4.28829

>  <SCORE.INTRA.POLAR>
0

>  <SCORE.INTRA.POLAR.0>
0

>  <SCORE.INTRA.REPUL>
0

>  <SCORE.INTRA.REPUL.0>
0

>  <SCORE.INTRA.SOLV>
0.8679

>  <SCORE.INTRA.SOLV.lig_0>
-48.6018

>  <SCORE.INTRA.VDW>
-0.403329

>  <SCORE.INTRA.VDW.0>
-2.1506

>  <SCORE.INTRA.norm>
0.0146739

>  <SCORE.RESTR>
0

>  <SCORE.RESTR.CAVITY>
0

>  <SCORE.RESTR.norm>
0

>  <SCORE.SYSTEM>
0

>  <SCORE.SYSTEM.CONST>
0

>  <SCORE.SYSTEM.DIHEDRAL>
0

>  <SCORE.SYSTEM.SOLV>
0

>  <SCORE.SYSTEM.norm>
0

>  <SCORE.heavy>
27

>  <SCORE.norm>
-0.441999

>  <RMSD>
4.929

$$$$
ligand
 OpenBabel11021811483D
libRbt.so/2013.1/901 2013/11/27
 27 29  0  0  0  0  0  0  0  0999 V2000
   12.8508   -7.4918   13.0536 N   0  0  0  0  0  0  0  0  0  0  0  0
   13.8621   -6.9160   12.1650 C   0  0  2  0  0  0  0  0  0  0  0  0
   13.5392   -6.9674   10.6698 C   0  0  0  0  0  0  0  0  0  0  0  0
   12.9659   -6.0087   10.1541 O   0  0  0  0  0  0  0  0  0  0  0  0
   15.2304   -7.5182   12.4366 C   0  0  0  0  0  0  0  0  0  0  0  0
   16.3334   -6.4825   12.3018 C   0  0  0  0  0  0  0  0  0  0  0  0
   16.4901   -5.9384   10.5916 S   0  0  2  0  0  0  0  0  0  0  0  0
   18.2752   -5.6824   10.5069 C   0  0  0  0  0  0  0  0  0  0  0  0
   15.9461   -4.2207   10.7409 C   0  0  0  0  0  0  0  0  0  0  0  0
   15.7677   -3.5885    9.3729 C   0  0  1  0  0  0  0  0  0  0  0  0
   16.8150   -3.9685    8.5099 O   0  0  0  0  0  0  0  0  0  0  0  0
   14.4990   -4.0420    8.6778 C   0  0  1  0  0  0  0  0  0  0  0  0
   13.4785   -3.1222    8.9736 O   0  0  0  0  0  0  0  0  0  0  0  0
   14.8643   -3.9965    7.2079 C   0  0  1  0  0  0  0  0  0  0  0  0
   14.3404   -2.7982    6.6812 O   0  0  0  0  0  0  0  0  0  0  0  0
   16.3936   -3.9872    7.1574 C   0  0  2  0  0  0  0  0  0  0  0  0
   13.8231   -7.9323    9.9548 O   0  0  0  0  0  0  0  0  0  0  0  0
   15.1246   -8.3818    4.6088 N   0  0  0  0  0  0  0  0  0  0  0  0
   14.2966   -7.3456    4.9662 C   0  0  0  0  0  0  0  0  0  0  0  0
   14.8222   -6.2655    5.6406 N   0  0  0  0  0  0  0  0  0  0  0  0
   16.1363   -6.2081    5.9528 C   0  0  0  0  0  0  0  0  0  0  0  0
   16.9875   -7.2405    5.5863 C   0  0  0  0  0  0  0  0  0  0  0  0
   16.4689   -8.3444    4.9128 C   0  0  0  0  0  0  0  0  0  0  0  0
   17.2534   -9.3595    4.5496 N   0  0  0  0  0  0  0  0  0  0  0  0
   18.2371   -6.9224    6.0122 N   0  0  0  0  0  0  0  0  0  0  0  0
   18.1829   -5.7134    6.6173 C   0  0  0  0  0  0  0  0  0  0  0  0
   16.8895   -5.2537    6.5827 N   0  0  0  0  0  0  0  0  0  0  0  0
  2  1  1  1  0  0  0
  2  3  1  0  0  0  0
  2  5  1  0  0  0  0
  3  4  1  0  0  0  0
  3 17  1  0  0  0  0
  5  6  1  0  0  0  0
  7  6  1  1  0  0  0
  7  8  1  0  0  0  0
  7  9  1  0  0  0  0
 10  9  1  1  0  0  0
 10 11  1  0  0  0  0
 10 12  1  0  0  0  0
 11 16  1  0  0  0  0
 12 13  1  6  0  0  0
 12 14  1  0  0  0  0
 14 15  1  1  0  0  0
 14 16  1  0  0  0  0
 16 27  1  1  0  0  0
 18 19  2  0  0  0  0
 18 23  1  0  0  0  0
 19 20  1  0  0  0  0
 20 21  2  0  0  0  0
 21 22  1  0  0  0  0
 21 27  1  0  0  0  0
 22 23  2  0  0  0  0
 22 25  1  0  0  0  0
 23 24  1  0  0  0  0
 25 26  2  0  0  0  0
 26 27  1  0  0  0  0
M  END
>  <CHROM.1>
92.17812089,-142.83070760,-66.92341514,-145.30687337,-170.63689411,-41.37798198
125.09373220,15.56340857,-5.94307949,8.49282873,3.07621873,1.29935067,-0.05379233

>  <Name>
ligand

>  <RI>
0

>  <Rbt.Current_Directory>
/home/itssahil/PROJECTS/Mol_Feturizer/New_Systems/rnas/3GX5

>  <Rbt.Executable>
rbdock ($Id: //depot/dev/client3/rdock/2013.1/src/exe/rbdock.cxx#4 $)

>  <Rbt.Library>
libRbt.so (2013.1, Build901 2013/11/27)

>  <Rbt.Parameter_File>
/export/apps/rDock/src/rDock_2013.1_src/data/scripts/dock_solv.prm

>  <Rbt.Receptor>
prm/pocket_docking_4.prm

>  <SCORE>
-6.96799

>  <SCORE.INTER>
-9.68022

>  <SCORE.INTER.CONST>
1

>  <SCORE.INTER.POLAR>
0

>  <SCORE.INTER.ROT>
7

>  <SCORE.INTER.SOLV>
13.4004

>  <SCORE.INTER.VDW>
-19.1869

>  <SCORE.INTER.norm>
-0.358527

>  <SCORE.INTRA>
2.71224

>  <SCORE.INTRA.DIHEDRAL>
8.53721

>  <SCORE.INTRA.DIHEDRAL.0>
4.28829

>  <SCORE.INTRA.POLAR>
0

>  <SCORE.INTRA.POLAR.0>
0

>  <SCORE.INTRA.REPUL>
0

>  <SCORE.INTRA.REPUL.0>
0

>  <SCORE.INTRA.SOLV>
-0.719812

>  <SCORE.INTRA.SOLV.lig_0>
-48.6018

>  <SCORE.INTRA.VDW>
-1.19646

>  <SCORE.INTRA.VDW.0>
-2.1506

>  <SCORE.INTRA.norm>
0.100453

>  <SCORE.RESTR>
0

>  <SCORE.RESTR.CAVITY>
0

>  <SCORE.RESTR.norm>
0

>  <SCORE.SYSTEM>
0

>  <SCORE.SYSTEM.CONST>
0

>  <SCORE.SYSTEM.DIHEDRAL>
0

>  <SCORE.SYSTEM.SOLV>
0

>  <SCORE.SYSTEM.norm>
0

>  <SCORE.heavy>
27

>  <SCORE.norm>
-0.258074

>  <RMSD>
4.934

$$$$
ligand
 OpenBabel11021811483D
libRbt.so/2013.1/901 2013/11/27
 27 29  0  0  0  0  0  0  0  0999 V2000
   12.0947   -8.7126   11.7668 N   0  0  0  0  0  0  0  0  0  0  0  0
   12.0486   -7.3665   11.1926 C   0  0  2  0  0  0  0  0  0  0  0  0
   12.3052   -7.2778    9.6862 C   0  0  0  0  0  0  0  0  0  0  0  0
   12.3984   -8.3198    9.0388 O   0  0  0  0  0  0  0  0  0  0  0  0
   12.9690   -6.4220   11.9473 C   0  0  0  0  0  0  0  0  0  0  0  0
   14.4207   -6.8578   11.8470 C   0  0  0  0  0  0  0  0  0  0  0  0
   15.1529   -6.2824   10.3049 S   0  0  2  0  0  0  0  0  0  0  0  0
   16.8431   -6.8795   10.5190 C   0  0  0  0  0  0  0  0  0  0  0  0
   15.4003   -4.5333   10.6898 C   0  0  0  0  0  0  0  0  0  0  0  0
   15.5695   -3.7183    9.4209 C   0  0  1  0  0  0  0  0  0  0  0  0
   16.6681   -4.1868    8.6727 O   0  0  0  0  0  0  0  0  0  0  0  0
   14.3797   -3.8310    8.4881 C   0  0  1  0  0  0  0  0  0  0  0  0
   13.4966   -2.7738    8.7664 O   0  0  0  0  0  0  0  0  0  0  0  0
   14.9934   -3.6802    7.1108 C   0  0  1  0  0  0  0  0  0  0  0  0
   14.7805   -2.3486    6.6990 O   0  0  0  0  0  0  0  0  0  0  0  0
   16.4874   -3.9606    7.2859 C   0  0  2  0  0  0  0  0  0  0  0  0
   12.4292   -6.2053    9.0887 O   0  0  0  0  0  0  0  0  0  0  0  0
   14.7241   -8.1254    4.6471 N   0  0  0  0  0  0  0  0  0  0  0  0
   13.9980   -7.0636    5.1291 C   0  0  0  0  0  0  0  0  0  0  0  0
   14.6481   -6.0552    5.8061 N   0  0  0  0  0  0  0  0  0  0  0  0
   15.9854   -6.0925    6.0005 C   0  0  0  0  0  0  0  0  0  0  0  0
   16.7340   -7.1514    5.5075 C   0  0  0  0  0  0  0  0  0  0  0  0
   16.0895   -8.1840    4.8296 C   0  0  0  0  0  0  0  0  0  0  0  0
   16.7732   -9.2219    4.3468 N   0  0  0  0  0  0  0  0  0  0  0  0
   18.0337   -6.9314    5.8338 N   0  0  0  0  0  0  0  0  0  0  0  0
   18.1095   -5.7566    6.5008 C   0  0  0  0  0  0  0  0  0  0  0  0
   16.8497   -5.2204    6.6063 N   0  0  0  0  0  0  0  0  0  0  0  0
  2  1  1  1  0  0  0
  2  3  1  0  0  0  0
  2  5  1  0  0  0  0
  3  4  1  0  0  0  0
  3 17  1  0  0  0  0
  5  6  1  0  0  0  0
  7  6  1  1  0  0  0
  7  8  1  0  0  0  0
  7  9  1  0  0  0  0
 10  9  1  1  0  0  0
 10 11  1  0  0  0  0
 10 12  1  0  0  0  0
 11 16  1  0  0  0  0
 12 13  1  1  0  0  0
 12 14  1  0  0  0  0
 14 15  1  1  0  0  0
 14 16  1  0  0  0  0
 16 27  1  6  0  0  0
 18 19  2  0  0  0  0
 18 23  1  0  0  0  0
 19 20  1  0  0  0  0
 20 21  2  0  0  0  0
 21 22  1  0  0  0  0
 21 27  1  0  0  0  0
 22 23  2  0  0  0  0
 22 25  1  0  0  0  0
 23 24  1  0  0  0  0
 25 26  2  0  0  0  0
 26 27  1  0  0  0  0
M  END
>  <CHROM.1>
7.06890073,62.61755681,82.70824891,177.63627912,-160.82176397,-58.74472011
108.42755096,14.95034503,-6.01604542,8.23154286,2.65088012,0.97639608,0.58429351

>  <Name>
ligand

>  <RI>
0

>  <Rbt.Current_Directory>
/home/itssahil/PROJECTS/Mol_Feturizer/New_Systems/rnas/3GX5

>  <Rbt.Executable>
rbdock ($Id: //depot/dev/client3/rdock/2013.1/src/exe/rbdock.cxx#4 $)

>  <Rbt.Library>
libRbt.so (2013.1, Build901 2013/11/27)

>  <Rbt.Parameter_File>
/export/apps/rDock/src/rDock_2013.1_src/data/scripts/dock_solv.prm

>  <Rbt.Receptor>
prm/pocket_docking_5.prm

>  <SCORE>
-10.2849

>  <SCORE.INTER>
-10.8654

>  <SCORE.INTER.CONST>
1

>  <SCORE.INTER.POLAR>
0

>  <SCORE.INTER.ROT>
7

>  <SCORE.INTER.SOLV>
12.0324

>  <SCORE.INTER.VDW>
-19.521

>  <SCORE.INTER.norm>
-0.402421

>  <SCORE.INTRA>
0.580488

>  <SCORE.INTRA.DIHEDRAL>
2.94491

>  <SCORE.INTRA.DIHEDRAL.0>
4.28829

>  <SCORE.INTRA.POLAR>
0

>  <SCORE.INTRA.POLAR.0>
0

>  <SCORE.INTRA.REPUL>
0

>  <SCORE.INTRA.REPUL.0>
0

>  <SCORE.INTRA.SOLV>
0.139097

>  <SCORE.INTRA.SOLV.lig_0>
-48.6018

>  <SCORE.INTRA.VDW>
-0.961515

>  <SCORE.INTRA.VDW.0>
-2.1506

>  <SCORE.INTRA.norm>
0.0214996

>  <SCORE.RESTR>
0

>  <SCORE.RESTR.CAVITY>
0

>  <SCORE.RESTR.norm>
0

>  <SCORE.SYSTEM>
0

>  <SCORE.SYSTEM.CONST>
0

>  <SCORE.SYSTEM.DIHEDRAL>
0

>  <SCORE.SYSTEM.SOLV>
0

>  <SCORE.SYSTEM.norm>
0

>  <SCORE.heavy>
27

>  <SCORE.norm>
-0.380921

>  <RMSD>
4.938

$$$$
ligand
 OpenBabel11021811483D
libRbt.so/2013.1/901 2013/11/27
 27 29  0  0  0  0  0  0  0  0999 V2000
   15.9309   -9.3943    8.2778 N   0  0  0  0  0  0  0  0  0  0  0  0
   16.1952   -9.0835    9.6840 C   0  0  2  0  0  0  0  0  0  0  0  0
   15.8703  -10.1970   10.6827 C   0  0  0  0  0  0  0  0  0  0  0  0
   16.6147  -10.3625   11.6483 O   0  0  0  0  0  0  0  0  0  0  0  0
   15.5159   -7.7867   10.0909 C   0  0  0  0  0  0  0  0  0  0  0  0
   14.0215   -7.9763   10.2864 C   0  0  0  0  0  0  0  0  0  0  0  0
   13.2347   -6.4178   10.7306 S   0  0  2  0  0  0  0  0  0  0  0  0
   11.6295   -7.0258   11.2899 C   0  0  0  0  0  0  0  0  0  0  0  0
   12.7711   -5.8044    9.0943 C   0  0  0  0  0  0  0  0  0  0  0  0
   13.7279   -4.7213    8.6311 C   0  0  1  0  0  0  0  0  0  0  0  0
   15.0191   -5.2506    8.4340 O   0  0  0  0  0  0  0  0  0  0  0  0
   13.3369   -4.1259    7.2928 C   0  0  1  0  0  0  0  0  0  0  0  0
   12.5416   -2.9913    7.5279 O   0  0  0  0  0  0  0  0  0  0  0  0
   14.6655   -3.7414    6.6739 C   0  0  1  0  0  0  0  0  0  0  0  0
   14.8382   -2.3566    6.8752 O   0  0  0  0  0  0  0  0  0  0  0  0
   15.7275   -4.5362    7.4366 C   0  0  2  0  0  0  0  0  0  0  0  0
   14.8954  -10.9437   10.5615 O   0  0  0  0  0  0  0  0  0  0  0  0
   14.8494   -8.5725    4.2186 N   0  0  0  0  0  0  0  0  0  0  0  0
   13.9226   -7.8122    4.8896 C   0  0  0  0  0  0  0  0  0  0  0  0
   14.3537   -6.7842    5.6990 N   0  0  0  0  0  0  0  0  0  0  0  0
   15.6701   -6.5108    5.8406 C   0  0  0  0  0  0  0  0  0  0  0  0
   16.6170   -7.2609    5.1585 C   0  0  0  0  0  0  0  0  0  0  0  0
   16.1971   -8.3105    4.3442 C   0  0  0  0  0  0  0  0  0  0  0  0
   17.0770   -9.0584    3.6776 N   0  0  0  0  0  0  0  0  0  0  0  0
   17.8437   -6.7704    5.4732 N   0  0  0  0  0  0  0  0  0  0  0  0
   17.6781   -5.7270    6.3184 C   0  0  0  0  0  0  0  0  0  0  0  0
   16.3366   -5.5483    6.5507 N   0  0  0  0  0  0  0  0  0  0  0  0
  2  1  1  6  0  0  0
  2  3  1  0  0  0  0
  2  5  1  0  0  0  0
  3  4  1  0  0  0  0
  3 17  1  0  0  0  0
  5  6  1  0  0  0  0
  7  6  1  6  0  0  0
  7  8  1  0  0  0  0
  7  9  1  0  0  0  0
 10  9  1  6  0  0  0
 10 11  1  0  0  0  0
 10 12  1  0  0  0  0
 11 16  1  0  0  0  0
 12 13  1  1  0  0  0
 12 14  1  0  0  0  0
 14 15  1  1  0  0  0
 14 16  1  0  0  0  0
 16 27  1  6  0  0  0
 18 19  2  0  0  0  0
 18 23  1  0  0  0  0
 19 20  1  0  0  0  0
 20 21  2  0  0  0  0
 21 22  1  0  0  0  0
 21 27  1  0  0  0  0
 22 23  2  0  0  0  0
 22 25  1  0  0  0  0
 23 24  1  0  0  0  0
 25 26  2  0  0  0  0
 26 27  1  0  0  0  0
M  END
>  <CHROM.1>
142.37505733,75.87018701,-178.69081603,-166.37836423,-102.68700326,65.57538798
58.79962690,14.95141780,-6.81910487,7.90774625,-1.82069045,0.99000043,-0.80055439

>  <Name>
ligand

>  <RI>
0

>  <Rbt.Current_Directory>
/home/itssahil/PROJECTS/Mol_Feturizer/New_Systems/rnas/3GX5

>  <Rbt.Executable>
rbdock ($Id: //depot/dev/client3/rdock/2013.1/src/exe/rbdock.cxx#4 $)

>  <Rbt.Library>
libRbt.so (2013.1, Build901 2013/11/27)

>  <Rbt.Parameter_File>
/export/apps/rDock/src/rDock_2013.1_src/data/scripts/dock_solv.prm

>  <Rbt.Receptor>
prm/pocket_docking_4.prm

>  <SCORE>
-11.3125

>  <SCORE.INTER>
-11.3655

>  <SCORE.INTER.CONST>
1

>  <SCORE.INTER.POLAR>
0

>  <SCORE.INTER.ROT>
7

>  <SCORE.INTER.SOLV>
14.8947

>  <SCORE.INTER.VDW>
-20.8086

>  <SCORE.INTER.norm>
-0.420945

>  <SCORE.INTRA>
0.0530603

>  <SCORE.INTRA.DIHEDRAL>
4.00014

>  <SCORE.INTRA.DIHEDRAL.0>
4.28829

>  <SCORE.INTRA.POLAR>
0

>  <SCORE.INTRA.POLAR.0>
0

>  <SCORE.INTRA.REPUL>
0

>  <SCORE.INTRA.REPUL.0>
0

>  <SCORE.INTRA.SOLV>
-0.27567

>  <SCORE.INTRA.SOLV.lig_0>
-48.6018

>  <SCORE.INTRA.VDW>
-1.80918

>  <SCORE.INTRA.VDW.0>
-2.1506

>  <SCORE.INTRA.norm>
0.0019652

>  <SCORE.RESTR>
0

>  <SCORE.RESTR.CAVITY>
0

>  <SCORE.RESTR.norm>
0

>  <SCORE.SYSTEM>
0

>  <SCORE.SYSTEM.CONST>
0

>  <SCORE.SYSTEM.DIHEDRAL>
0

>  <SCORE.SYSTEM.SOLV>
0

>  <SCORE.SYSTEM.norm>
0

>  <SCORE.heavy>
27

>  <SCORE.norm>
-0.41898

>  <RMSD>
4.947

$$$$
ligand
 OpenBabel11021811483D
libRbt.so/2013.1/901 2013/11/27
 27 29  0  0  0  0  0  0  0  0999 V2000
   11.2537   -9.8383   12.2184 N   0  0  0  0  0  0  0  0  0  0  0  0
   12.3942  -10.3913   11.4855 C   0  0  2  0  0  0  0  0  0  0  0  0
   13.6651  -10.6183   12.3077 C   0  0  0  0  0  0  0  0  0  0  0  0
   13.6700  -11.5081   13.1574 O   0  0  0  0  0  0  0  0  0  0  0  0
   12.6993   -9.5623   10.2491 C   0  0  0  0  0  0  0  0  0  0  0  0
   12.9393   -8.1039   10.5997 C   0  0  0  0  0  0  0  0  0  0  0  0
   13.4704   -7.1791    9.1478 S   0  0  2  0  0  0  0  0  0  0  0  0
   15.1848   -7.7331    9.0338 C   0  0  0  0  0  0  0  0  0  0  0  0
   13.7298   -5.5443    9.8749 C   0  0  0  0  0  0  0  0  0  0  0  0
   14.1453   -4.5403    8.8155 C   0  0  1  0  0  0  0  0  0  0  0  0
   15.4398   -4.8287    8.3388 O   0  0  0  0  0  0  0  0  0  0  0  0
   13.2551   -4.5790    7.5890 C   0  0  1  0  0  0  0  0  0  0  0  0
   12.2344   -3.6270    7.7519 O   0  0  0  0  0  0  0  0  0  0  0  0
   14.1887   -4.1894    6.4608 C   0  0  1  0  0  0  0  0  0  0  0  0
   13.9655   -2.8253    6.1823 O   0  0  0  0  0  0  0  0  0  0  0  0
   15.6054   -4.4080    6.9961 C   0  0  2  0  0  0  0  0  0  0  0  0
   14.6882   -9.9439   12.1617 O   0  0  0  0  0  0  0  0  0  0  0  0
   14.9096   -9.0825    4.7416 N   0  0  0  0  0  0  0  0  0  0  0  0
   13.9604   -8.2771    5.3224 C   0  0  0  0  0  0  0  0  0  0  0  0
   14.3429   -7.0719    5.8690 N   0  0  0  0  0  0  0  0  0  0  0  0
   15.6331   -6.6692    5.8404 C   0  0  0  0  0  0  0  0  0  0  0  0
   16.6007   -7.4654    5.2450 C   0  0  0  0  0  0  0  0  0  0  0  0
   16.2310   -8.6918    4.6969 C   0  0  0  0  0  0  0  0  0  0  0  0
   17.1327   -9.4881    4.1219 N   0  0  0  0  0  0  0  0  0  0  0  0
   17.7923   -6.8225    5.3491 N   0  0  0  0  0  0  0  0  0  0  0  0
   17.5832   -5.6431    5.9783 C   0  0  0  0  0  0  0  0  0  0  0  0
   16.2492   -5.5294    6.2832 N   0  0  0  0  0  0  0  0  0  0  0  0
  2  1  1  1  0  0  0
  2  3  1  0  0  0  0
  2  5  1  0  0  0  0
  3  4  1  0  0  0  0
  3 17  1  0  0  0  0
  5  6  1  0  0  0  0
  7  6  1  1  0  0  0
  7  8  1  0  0  0  0
  7  9  1  0  0  0  0
 10  9  1  1  0  0  0
 10 11  1  0  0  0  0
 10 12  1  0  0  0  0
 11 16  1  0  0  0  0
 12 13  1  1  0  0  0
 12 14  1  0  0  0  0
 14 15  1  1  0  0  0
 14 16  1  0  0  0  0
 16 27  1  6  0  0  0
 18 19  2  0  0  0  0
 18 23  1  0  0  0  0
 19 20  1  0  0  0  0
 20 21  2  0  0  0  0
 21 22  1  0  0  0  0
 21 27  1  0  0  0  0
 22 23  2  0  0  0  0
 22 25  1  0  0  0  0
 23 24  1  0  0  0  0
 25 26  2  0  0  0  0
 26 27  1  0  0  0  0
M  END
>  <CHROM.1>
69.35580356,55.92454392,173.94606875,-76.15707894,-177.90755601,-68.88262216
77.98646163,14.46698320,-7.17395160,8.12899502,2.20131715,-0.98648743,2.71652753

>  <Name>
ligand

>  <RI>
0

>  <Rbt.Current_Directory>
/home/itssahil/PROJECTS/Mol_Feturizer/New_Systems/rnas/3GX5

>  <Rbt.Executable>
rbdock ($Id: //depot/dev/client3/rdock/2013.1/src/exe/rbdock.cxx#4 $)

>  <Rbt.Library>
libRbt.so (2013.1, Build901 2013/11/27)

>  <Rbt.Parameter_File>
/export/apps/rDock/src/rDock_2013.1_src/data/scripts/dock_solv.prm

>  <Rbt.Receptor>
prm/pocket_docking_4.prm

>  <SCORE>
-11.5651

>  <SCORE.INTER>
-11.0301

>  <SCORE.INTER.CONST>
1

>  <SCORE.INTER.POLAR>
0

>  <SCORE.INTER.ROT>
7

>  <SCORE.INTER.SOLV>
14.9432

>  <SCORE.INTER.VDW>
-20.6011

>  <SCORE.INTER.norm>
-0.408522

>  <SCORE.INTRA>
-0.536157

>  <SCORE.INTRA.DIHEDRAL>
0.0815297

>  <SCORE.INTRA.DIHEDRAL.0>
4.28829

>  <SCORE.INTRA.POLAR>
0

>  <SCORE.INTRA.POLAR.0>
0

>  <SCORE.INTRA.REPUL>
0

>  <SCORE.INTRA.REPUL.0>
0

>  <SCORE.INTRA.SOLV>
-0.25673

>  <SCORE.INTRA.SOLV.lig_0>
-48.6018

>  <SCORE.INTRA.VDW>
-0.448557

>  <SCORE.INTRA.VDW.0>
-2.1506

>  <SCORE.INTRA.norm>
-0.0198577

>  <SCORE.RESTR>
0.00114014

>  <SCORE.RESTR.CAVITY>
0.00114014

>  <SCORE.RESTR.norm>
4.22274e-05

>  <SCORE.SYSTEM>
0

>  <SCORE.SYSTEM.CONST>
0

>  <SCORE.SYSTEM.DIHEDRAL>
0

>  <SCORE.SYSTEM.SOLV>
0

>  <SCORE.SYSTEM.norm>
0

>  <SCORE.heavy>
27

>  <SCORE.norm>
-0.428337

>  <RMSD>
4.956

$$$$
ligand
 OpenBabel11021811483D
libRbt.so/2013.1/901 2013/11/27
 27 29  0  0  0  0  0  0  0  0999 V2000
   14.3371   -6.2798   12.1113 N   0  0  0  0  0  0  0  0  0  0  0  0
   14.6661   -7.2912   13.1176 C   0  0  2  0  0  0  0  0  0  0  0  0
   14.2298   -6.9702   14.5492 C   0  0  0  0  0  0  0  0  0  0  0  0
   15.0487   -6.4718   15.3204 O   0  0  0  0  0  0  0  0  0  0  0  0
   16.1446   -7.6390   13.0755 C   0  0  0  0  0  0  0  0  0  0  0  0
   16.4843   -8.4883   11.8628 C   0  0  0  0  0  0  0  0  0  0  0  0
   16.4272   -7.5004   10.3574 S   0  0  2  0  0  0  0  0  0  0  0  0
   17.1412   -8.6737    9.1858 C   0  0  0  0  0  0  0  0  0  0  0  0
   17.8568   -6.4241   10.6151 C   0  0  0  0  0  0  0  0  0  0  0  0
   18.0122   -5.4458    9.4653 C   0  0  1  0  0  0  0  0  0  0  0  0
   18.3640   -6.1236    8.2808 O   0  0  0  0  0  0  0  0  0  0  0  0
   16.7238   -4.7180    9.1359 C   0  0  1  0  0  0  0  0  0  0  0  0
   16.7032   -3.5080    9.8504 O   0  0  0  0  0  0  0  0  0  0  0  0
   16.8285   -4.4687    7.6450 C   0  0  1  0  0  0  0  0  0  0  0  0
   17.2488   -3.1342    7.4701 O   0  0  0  0  0  0  0  0  0  0  0  0
   17.8913   -5.4428    7.1319 C   0  0  2  0  0  0  0  0  0  0  0  0
   13.0916   -7.1940   14.9700 O   0  0  0  0  0  0  0  0  0  0  0  0
   13.5250   -6.9616    4.6729 N   0  0  0  0  0  0  0  0  0  0  0  0
   13.7185   -5.8278    5.4240 C   0  0  0  0  0  0  0  0  0  0  0  0
   14.9505   -5.6022    5.9977 N   0  0  0  0  0  0  0  0  0  0  0  0
   15.9696   -6.4746    5.8312 C   0  0  0  0  0  0  0  0  0  0  0  0
   15.7935   -7.6169    5.0639 C   0  0  0  0  0  0  0  0  0  0  0  0
   14.5502   -7.8642    4.4857 C   0  0  0  0  0  0  0  0  0  0  0  0
   14.3397   -8.9541    3.7470 N   0  0  0  0  0  0  0  0  0  0  0  0
   16.9668   -8.3007    5.0578 N   0  0  0  0  0  0  0  0  0  0  0  0
   17.8672   -7.6025    5.7873 C   0  0  0  0  0  0  0  0  0  0  0  0
   17.2674   -6.4645    6.2678 N   0  0  0  0  0  0  0  0  0  0  0  0
  2  1  1  6  0  0  0
  2  3  1  0  0  0  0
  2  5  1  0  0  0  0
  3  4  1  0  0  0  0
  3 17  1  0  0  0  0
  5  6  1  0  0  0  0
  7  6  1  1  0  0  0
  7  8  1  0  0  0  0
  7  9  1  0  0  0  0
 10  9  1  1  0  0  0
 10 11  1  0  0  0  0
 10 12  1  0  0  0  0
 11 16  1  0  0  0  0
 12 13  1  1  0  0  0
 12 14  1  0  0  0  0
 14 15  1  1  0  0  0
 14 16  1  0  0  0  0
 16 27  1  6  0  0  0
 18 19  2  0  0  0  0
 18 23  1  0  0  0  0
 19 20  1  0  0  0  0
 20 21  2  0  0  0  0
 21 22  1  0  0  0  0
 21 27  1  0  0  0  0
 22 23  2  0  0  0  0
 22 25  1  0  0  0  0
 23 24  1  0  0  0  0
 25 26  2  0  0  0  0
 26 27  1  0  0  0  0
M  END
>  <CHROM.1>
-96.65824572,-73.70124252,72.39538051,170.50512750,-178.67140874,-67.51575911
121.48896523,16.03987452,-6.58669951,8.94731968,1.69302808,0.78557621,1.49254208

>  <Name>
ligand

>  <RI>
0

>  <Rbt.Current_Directory>
/home/itssahil/PROJECTS/Mol_Feturizer/New_Systems/rnas/3GX5

>  <Rbt.Executable>
rbdock ($Id: //depot/dev/client3/rdock/2013.1/src/exe/rbdock.cxx#4 $)

>  <Rbt.Library>
libRbt.so (2013.1, Build901 2013/11/27)

>  <Rbt.Parameter_File>
/export/apps/rDock/src/rDock_2013.1_src/data/scripts/dock_solv.prm

>  <Rbt.Receptor>
prm/pocket_docking_6.prm

>  <SCORE>
-7.07511

>  <SCORE.INTER>
-9.12924

>  <SCORE.INTER.CONST>
1

>  <SCORE.INTER.POLAR>
0

>  <SCORE.INTER.ROT>
7

>  <SCORE.INTER.SOLV>
12.0947

>  <SCORE.INTER.VDW>
-18.3844

>  <SCORE.INTER.norm>
-0.33812

>  <SCORE.INTRA>
2.05413

>  <SCORE.INTRA.DIHEDRAL>
0.95656

>  <SCORE.INTRA.DIHEDRAL.0>
4.28829

>  <SCORE.INTRA.POLAR>
0

>  <SCORE.INTRA.POLAR.0>
0

>  <SCORE.INTRA.REPUL>
0

>  <SCORE.INTRA.REPUL.0>
0

>  <SCORE.INTRA.SOLV>
1.80446

>  <SCORE.INTRA.SOLV.lig_0>
-48.6018

>  <SCORE.INTRA.VDW>
0.673625

>  <SCORE.INTRA.VDW.0>
-2.1506

>  <SCORE.INTRA.norm>
0.076079

>  <SCORE.RESTR>
0

>  <SCORE.RESTR.CAVITY>
0

>  <SCORE.RESTR.norm>
0

>  <SCORE.SYSTEM>
0

>  <SCORE.SYSTEM.CONST>
0

>  <SCORE.SYSTEM.DIHEDRAL>
0

>  <SCORE.SYSTEM.SOLV>
0

>  <SCORE.SYSTEM.norm>
0

>  <SCORE.heavy>
27

>  <SCORE.norm>
-0.262041

>  <RMSD>
4.965

$$$$
ligand
 OpenBabel11021811483D
libRbt.so/2013.1/901 2013/11/27
 27 29  0  0  0  0  0  0  0  0999 V2000
   13.8086   -7.0952   11.4353 N   0  0  0  0  0  0  0  0  0  0  0  0
   14.3022   -7.1433   12.8129 C   0  0  2  0  0  0  0  0  0  0  0  0
   13.2302   -7.0995   13.9045 C   0  0  0  0  0  0  0  0  0  0  0  0
   13.5743   -6.8756   15.0643 O   0  0  0  0  0  0  0  0  0  0  0  0
   15.3515   -6.0706   13.0519 C   0  0  0  0  0  0  0  0  0  0  0  0
   16.6254   -6.3521   12.2739 C   0  0  0  0  0  0  0  0  0  0  0  0
   16.4133   -5.9372   10.5337 S   0  0  2  0  0  0  0  0  0  0  0  0
   18.1077   -6.1569    9.9508 C   0  0  0  0  0  0  0  0  0  0  0  0
   16.3592   -4.1326   10.6293 C   0  0  0  0  0  0  0  0  0  0  0  0
   16.0200   -3.5288    9.2789 C   0  0  1  0  0  0  0  0  0  0  0  0
   16.9624   -3.9228    8.3080 O   0  0  0  0  0  0  0  0  0  0  0  0
   14.6819   -4.0006    8.7446 C   0  0  1  0  0  0  0  0  0  0  0  0
   13.6973   -3.0783    9.1384 O   0  0  0  0  0  0  0  0  0  0  0  0
   14.8744   -3.9838    7.2417 C   0  0  1  0  0  0  0  0  0  0  0  0
   14.2862   -2.7982    6.7555 O   0  0  0  0  0  0  0  0  0  0  0  0
   16.3875   -3.9704    7.0141 C   0  0  2  0  0  0  0  0  0  0  0  0
   12.0318   -7.2846   13.6758 O   0  0  0  0  0  0  0  0  0  0  0  0
   14.8723   -8.3395    4.5578 N   0  0  0  0  0  0  0  0  0  0  0  0
   14.0894   -7.2869    4.9655 C   0  0  0  0  0  0  0  0  0  0  0  0
   14.6781   -6.2173    5.6036 N   0  0  0  0  0  0  0  0  0  0  0  0
   16.0102   -6.1860    5.8316 C   0  0  0  0  0  0  0  0  0  0  0  0
   16.8157   -7.2352    5.4134 C   0  0  0  0  0  0  0  0  0  0  0  0
   16.2336   -8.3288    4.7758 C   0  0  0  0  0  0  0  0  0  0  0  0
   16.9732   -9.3594    4.3651 N   0  0  0  0  0  0  0  0  0  0  0  0
   18.0959   -6.9419    5.7587 N   0  0  0  0  0  0  0  0  0  0  0  0
   18.1043   -5.7320    6.3641 C   0  0  0  0  0  0  0  0  0  0  0  0
   16.8206   -5.2466    6.4110 N   0  0  0  0  0  0  0  0  0  0  0  0
  2  1  1  6  0  0  0
  2  3  1  0  0  0  0
  2  5  1  0  0  0  0
  3  4  1  0  0  0  0
  3 17  1  0  0  0  0
  5  6  1  0  0  0  0
  7  6  1  1  0  0  0
  7  8  1  0  0  0  0
  7  9  1  0  0  0  0
 10  9  1  1  0  0  0
 10 11  1  0  0  0  0
 10 12  1  0  0  0  0
 11 16  1  0  0  0  0
 12 13  1  6  0  0  0
 12 14  1  0  0  0  0
 14 15  1  1  0  0  0
 14 16  1  0  0  0  0
 16 27  1  1  0  0  0
 18 19  2  0  0  0  0
 18 23  1  0  0  0  0
 19 20  1  0  0  0  0
 20 21  2  0  0  0  0
 21 22  1  0  0  0  0
 21 27  1  0  0  0  0
 22 23  2  0  0  0  0
 22 25  1  0  0  0  0
 23 24  1  0  0  0  0
 25 26  2  0  0  0  0
 26 27  1  0  0  0  0
M  END
>  <CHROM.1>
-166.04784457,-68.04712851,76.66651397,172.67583581,-173.38274698,-58.16585292
128.59172095,15.54182349,-5.89440805,8.85142317,2.80197334,1.29686190,0.32524668

>  <Name>
ligand

>  <RI>
0

>  <Rbt.Current_Directory>
/home/itssahil/PROJECTS/Mol_Feturizer/New_Systems/rnas/3GX5

>  <Rbt.Executable>
rbdock ($Id: //depot/dev/client3/rdock/2013.1/src/exe/rbdock.cxx#4 $)

>  <Rbt.Library>
libRbt.so (2013.1, Build901 2013/11/27)

>  <Rbt.Parameter_File>
/export/apps/rDock/src/rDock_2013.1_src/data/scripts/dock_solv.prm

>  <Rbt.Receptor>
prm/pocket_docking_4.prm

>  <SCORE>
-9.68622

>  <SCORE.INTER>
-11.48

>  <SCORE.INTER.CONST>
1

>  <SCORE.INTER.POLAR>
0

>  <SCORE.INTER.ROT>
7

>  <SCORE.INTER.SOLV>
12.764

>  <SCORE.INTER.VDW>
-20.1746

>  <SCORE.INTER.norm>
-0.425184

>  <SCORE.INTRA>
1.79376

>  <SCORE.INTRA.DIHEDRAL>
1.13901

>  <SCORE.INTRA.DIHEDRAL.0>
4.28829

>  <SCORE.INTRA.POLAR>
0

>  <SCORE.INTRA.POLAR.0>
0

>  <SCORE.INTRA.REPUL>
0

>  <SCORE.INTRA.REPUL.0>
0

>  <SCORE.INTRA.SOLV>
1.69617

>  <SCORE.INTRA.SOLV.lig_0>
-48.6018

>  <SCORE.INTRA.VDW>
0.376166

>  <SCORE.INTRA.VDW.0>
-2.1506

>  <SCORE.INTRA.norm>
0.0664354

>  <SCORE.RESTR>
0

>  <SCORE.RESTR.CAVITY>
0

>  <SCORE.RESTR.norm>
0

>  <SCORE.SYSTEM>
0

>  <SCORE.SYSTEM.CONST>
0

>  <SCORE.SYSTEM.DIHEDRAL>
0

>  <SCORE.SYSTEM.SOLV>
0

>  <SCORE.SYSTEM.norm>
0

>  <SCORE.heavy>
27

>  <SCORE.norm>
-0.358749

>  <RMSD>
4.966

$$$$
ligand
 OpenBabel11021811483D
libRbt.so/2013.1/901 2013/11/27
 27 29  0  0  0  0  0  0  0  0999 V2000
   13.5914   -7.9176   10.3914 N   0  0  0  0  0  0  0  0  0  0  0  0
   14.9343   -8.4464   10.1446 C   0  0  2  0  0  0  0  0  0  0  0  0
   15.0870   -9.9629   10.2845 C   0  0  0  0  0  0  0  0  0  0  0  0
   16.1772  -10.4743   10.0322 O   0  0  0  0  0  0  0  0  0  0  0  0
   15.9669   -7.7253   10.9946 C   0  0  0  0  0  0  0  0  0  0  0  0
   16.0550   -6.2518   10.6361 C   0  0  0  0  0  0  0  0  0  0  0  0
   16.8341   -6.0336    9.0266 S   0  0  2  0  0  0  0  0  0  0  0  0
   18.5721   -6.1419    9.5030 C   0  0  0  0  0  0  0  0  0  0  0  0
   16.6869   -4.2425    8.8291 C   0  0  0  0  0  0  0  0  0  0  0  0
   15.4216   -3.8835    8.0722 C   0  0  1  0  0  0  0  0  0  0  0  0
   15.4702   -4.3868    6.7567 O   0  0  0  0  0  0  0  0  0  0  0  0
   14.1776   -4.4972    8.6840 C   0  0  1  0  0  0  0  0  0  0  0  0
   13.6207   -3.5693    9.5806 O   0  0  0  0  0  0  0  0  0  0  0  0
   13.2678   -4.7170    7.4923 C   0  0  1  0  0  0  0  0  0  0  0  0
   12.3407   -3.6550    7.4693 O   0  0  0  0  0  0  0  0  0  0  0  0
   14.1742   -4.6714    6.2603 C   0  0  2  0  0  0  0  0  0  0  0  0
   14.1621  -10.7010   10.6347 O   0  0  0  0  0  0  0  0  0  0  0  0
   17.2845   -8.6746    4.9494 N   0  0  0  0  0  0  0  0  0  0  0  0
   17.6307   -7.5170    5.6031 C   0  0  0  0  0  0  0  0  0  0  0  0
   16.6613   -6.5722    5.8587 N   0  0  0  0  0  0  0  0  0  0  0  0
   15.3781   -6.7669    5.4802 C   0  0  0  0  0  0  0  0  0  0  0  0
   15.0106   -7.9369    4.8316 C   0  0  0  0  0  0  0  0  0  0  0  0
   15.9818   -8.8974    4.5568 C   0  0  0  0  0  0  0  0  0  0  0  0
   15.6692  -10.0317    3.9295 N   0  0  0  0  0  0  0  0  0  0  0  0
   13.6780   -7.8729    4.5784 N   0  0  0  0  0  0  0  0  0  0  0  0
   13.2100   -6.7017    5.0682 C   0  0  0  0  0  0  0  0  0  0  0  0
   14.2495   -6.0076    5.6367 N   0  0  0  0  0  0  0  0  0  0  0  0
  2  1  1  1  0  0  0
  2  3  1  0  0  0  0
  2  5  1  0  0  0  0
  3  4  1  0  0  0  0
  3 17  1  0  0  0  0
  5  6  1  0  0  0  0
  7  6  1  1  0  0  0
  7  8  1  0  0  0  0
  7  9  1  0  0  0  0
 10  9  1  1  0  0  0
 10 11  1  0  0  0  0
 10 12  1  0  0  0  0
 11 16  1  0  0  0  0
 12 13  1  1  0  0  0
 12 14  1  0  0  0  0
 14 15  1  6  0  0  0
 14 16  1  0  0  0  0
 16 27  1  1  0  0  0
 18 19  2  0  0  0  0
 18 23  1  0  0  0  0
 19 20  1  0  0  0  0
 20 21  2  0  0  0  0
 21 22  1  0  0  0  0
 21 27  1  0  0  0  0
 22 23  2  0  0  0  0
 22 25  1  0  0  0  0
 23 24  1  0  0  0  0
 25 26  2  0  0  0  0
 26 27  1  0  0  0  0
M  END
>  <CHROM.1>
176.84058318,-63.39621656,-71.34334416,-82.14268607,-93.03346302,-64.20998013
-4.68285816,15.29964636,-6.76406790,7.75073850,-1.21164461,1.30750535,-1.78165397

>  <Name>
ligand

>  <RI>
0

>  <Rbt.Current_Directory>
/home/itssahil/PROJECTS/Mol_Feturizer/New_Systems/rnas/3GX5

>  <Rbt.Executable>
rbdock ($Id: //depot/dev/client3/rdock/2013.1/src/exe/rbdock.cxx#4 $)

>  <Rbt.Library>
libRbt.so (2013.1, Build901 2013/11/27)

>  <Rbt.Parameter_File>
/export/apps/rDock/src/rDock_2013.1_src/data/scripts/dock_solv.prm

>  <Rbt.Receptor>
prm/pocket_docking_4.prm

>  <SCORE>
-9.50229

>  <SCORE.INTER>
-9.61745

>  <SCORE.INTER.CONST>
1

>  <SCORE.INTER.POLAR>
0

>  <SCORE.INTER.ROT>
7

>  <SCORE.INTER.SOLV>
13.5925

>  <SCORE.INTER.VDW>
-19.2091

>  <SCORE.INTER.norm>
-0.356202

>  <SCORE.INTRA>
0.115156

>  <SCORE.INTRA.DIHEDRAL>
1.71332

>  <SCORE.INTRA.DIHEDRAL.0>
4.28829

>  <SCORE.INTRA.POLAR>
0

>  <SCORE.INTRA.POLAR.0>
0

>  <SCORE.INTRA.REPUL>
0

>  <SCORE.INTRA.REPUL.0>
0

>  <SCORE.INTRA.SOLV>
0.980793

>  <SCORE.INTRA.SOLV.lig_0>
-48.6018

>  <SCORE.INTRA.VDW>
-1.2319

>  <SCORE.INTRA.VDW.0>
-2.1506

>  <SCORE.INTRA.norm>
0.00426504

>  <SCORE.RESTR>
0

>  <SCORE.RESTR.CAVITY>
0

>  <SCORE.RESTR.norm>
0

>  <SCORE.SYSTEM>
0

>  <SCORE.SYSTEM.CONST>
0

>  <SCORE.SYSTEM.DIHEDRAL>
0

>  <SCORE.SYSTEM.SOLV>
0

>  <SCORE.SYSTEM.norm>
0

>  <SCORE.heavy>
27

>  <SCORE.norm>
-0.351937

>  <RMSD>
4.972

$$$$
ligand
 OpenBabel11021811483D
libRbt.so/2013.1/901 2013/11/27
 27 29  0  0  0  0  0  0  0  0999 V2000
   12.9779   -6.8796   12.2130 N   0  0  0  0  0  0  0  0  0  0  0  0
   14.3917   -6.5239   12.3487 C   0  0  2  0  0  0  0  0  0  0  0  0
   15.0879   -7.0386   13.6109 C   0  0  0  0  0  0  0  0  0  0  0  0
   14.6338   -6.7210   14.7093 O   0  0  0  0  0  0  0  0  0  0  0  0
   14.5913   -5.0247   12.2027 C   0  0  0  0  0  0  0  0  0  0  0  0
   16.0650   -4.6593   12.1557 C   0  0  0  0  0  0  0  0  0  0  0  0
   16.7725   -5.0727   10.5515 S   0  0  2  0  0  0  0  0  0  0  0  0
   18.5088   -5.2527   11.0121 C   0  0  0  0  0  0  0  0  0  0  0  0
   16.8322   -3.4359    9.7858 C   0  0  0  0  0  0  0  0  0  0  0  0
   15.8140   -3.3246    8.6660 C   0  0  1  0  0  0  0  0  0  0  0  0
   16.3683   -3.7605    7.4458 O   0  0  0  0  0  0  0  0  0  0  0  0
   14.6008   -4.2069    8.8860 C   0  0  1  0  0  0  0  0  0  0  0  0
   13.6137   -3.4485    9.5383 O   0  0  0  0  0  0  0  0  0  0  0  0
   14.1678   -4.5713    7.4804 C   0  0  1  0  0  0  0  0  0  0  0  0
   13.0906   -3.7276    7.1401 O   0  0  0  0  0  0  0  0  0  0  0  0
   15.3772   -4.2935    6.5851 C   0  0  2  0  0  0  0  0  0  0  0  0
   16.0914   -7.7561   13.5785 O   0  0  0  0  0  0  0  0  0  0  0  0
   14.2528   -8.8915    4.3465 N   0  0  0  0  0  0  0  0  0  0  0  0
   13.3829   -7.8839    4.6855 C   0  0  0  0  0  0  0  0  0  0  0  0
   13.8745   -6.7392    5.2734 N   0  0  0  0  0  0  0  0  0  0  0  0
   15.1957   -6.5910    5.5185 C   0  0  0  0  0  0  0  0  0  0  0  0
   16.0881   -7.5940    5.1690 C   0  0  0  0  0  0  0  0  0  0  0  0
   15.6049   -8.7621    4.5831 C   0  0  0  0  0  0  0  0  0  0  0  0
   16.4300   -9.7513    4.2391 N   0  0  0  0  0  0  0  0  0  0  0  0
   17.3350   -7.1830    5.5163 N   0  0  0  0  0  0  0  0  0  0  0  0
   17.2378   -5.9460    6.0557 C   0  0  0  0  0  0  0  0  0  0  0  0
   15.9196   -5.5615    6.0579 N   0  0  0  0  0  0  0  0  0  0  0  0
  2  1  1  1  0  0  0
  2  3  1  0  0  0  0
  2  5  1  0  0  0  0
  3  4  1  0  0  0  0
  3 17  1  0  0  0  0
  5  6  1  0  0  0  0
  7  6  1  1  0  0  0
  7  8  1  0  0  0  0
  7  9  1  0  0  0  0
 10  9  1  1  0  0  0
 10 11  1  0  0  0  0
 10 12  1  0  0  0  0
 11 16  1  0  0  0  0
 12 13  1  6  0  0  0
 12 14  1  0  0  0  0
 14 15  1  6  0  0  0
 14 16  1  0  0  0  0
 16 27  1  1  0  0  0
 18 19  2  0  0  0  0
 18 23  1  0  0  0  0
 19 20  1  0  0  0  0
 20 21  2  0  0  0  0
 21 22  1  0  0  0  0
 21 27  1  0  0  0  0
 22 23  2  0  0  0  0
 22 25  1  0  0  0  0
 23 24  1  0  0  0  0
 25 26  2  0  0  0  0
 26 27  1  0  0  0  0
M  END
>  <CHROM.1>
-57.87011629,-172.42073908,75.40597642,-155.73035031,-109.83748883,-88.29431083
159.60899784,15.40747718,-5.85924278,8.70179297,1.45803187,1.53219536,1.49088846

>  <Name>
ligand

>  <RI>
0

>  <Rbt.Current_Directory>
/home/itssahil/PROJECTS/Mol_Feturizer/New_Systems/rnas/3GX5

>  <Rbt.Executable>
rbdock ($Id: //depot/dev/client3/rdock/2013.1/src/exe/rbdock.cxx#4 $)

>  <Rbt.Library>
libRbt.so (2013.1, Build901 2013/11/27)

>  <Rbt.Parameter_File>
/export/apps/rDock/src/rDock_2013.1_src/data/scripts/dock_solv.prm

>  <Rbt.Receptor>
prm/pocket_docking_4.prm

>  <SCORE>
-9.91781

>  <SCORE.INTER>
-13.9838

>  <SCORE.INTER.CONST>
1

>  <SCORE.INTER.POLAR>
0

>  <SCORE.INTER.ROT>
7

>  <SCORE.INTER.SOLV>
15.6934

>  <SCORE.INTER.VDW>
-22.8204

>  <SCORE.INTER.norm>
-0.51792

>  <SCORE.INTRA>
4.06603

>  <SCORE.INTRA.DIHEDRAL>
8.42254

>  <SCORE.INTRA.DIHEDRAL.0>
4.28829

>  <SCORE.INTRA.POLAR>
0

>  <SCORE.INTRA.POLAR.0>
0

>  <SCORE.INTRA.REPUL>
0

>  <SCORE.INTRA.REPUL.0>
0

>  <SCORE.INTRA.SOLV>
-0.558415

>  <SCORE.INTRA.SOLV.lig_0>
-48.6018

>  <SCORE.INTRA.VDW>
0.133972

>  <SCORE.INTRA.VDW.0>
-2.1506

>  <SCORE.INTRA.norm>
0.150594

>  <SCORE.RESTR>
0

>  <SCORE.RESTR.CAVITY>
0

>  <SCORE.RESTR.norm>
0

>  <SCORE.SYSTEM>
0

>  <SCORE.SYSTEM.CONST>
0

>  <SCORE.SYSTEM.DIHEDRAL>
0

>  <SCORE.SYSTEM.SOLV>
0

>  <SCORE.SYSTEM.norm>
0

>  <SCORE.heavy>
27

>  <SCORE.norm>
-0.367326

>  <RMSD>
4.993

$$$$
ligand
 OpenBabel11021811483D
libRbt.so/2013.1/901 2013/11/27
 27 29  0  0  0  0  0  0  0  0999 V2000
   14.2169   -9.2012   14.0581 N   0  0  0  0  0  0  0  0  0  0  0  0
   14.0288   -7.7502   14.1109 C   0  0  2  0  0  0  0  0  0  0  0  0
   13.7586   -7.1656   15.4995 C   0  0  0  0  0  0  0  0  0  0  0  0
   12.6004   -7.1323   15.9132 O   0  0  0  0  0  0  0  0  0  0  0  0
   12.9601   -7.3046   13.1270 C   0  0  0  0  0  0  0  0  0  0  0  0
   13.3121   -7.6995   11.7031 C   0  0  0  0  0  0  0  0  0  0  0  0
   11.8939   -7.4837   10.6135 S   0  0  2  0  0  0  0  0  0  0  0  0
   10.8972   -8.9039   11.1120 C   0  0  0  0  0  0  0  0  0  0  0  0
   12.5703   -8.1199    9.0622 C   0  0  0  0  0  0  0  0  0  0  0  0
   13.6303   -7.1848    8.5099 C   0  0  1  0  0  0  0  0  0  0  0  0
   14.3351   -7.8005    7.4562 O   0  0  0  0  0  0  0  0  0  0  0  0
   13.0438   -5.9229    7.9083 C   0  0  1  0  0  0  0  0  0  0  0  0
   13.0217   -4.9278    8.9004 O   0  0  0  0  0  0  0  0  0  0  0  0
   14.0195   -5.5698    6.8040 C   0  0  1  0  0  0  0  0  0  0  0  0
   14.8648   -4.5552    7.2981 O   0  0  0  0  0  0  0  0  0  0  0  0
   14.8137   -6.8474    6.5236 C   0  0  2  0  0  0  0  0  0  0  0  0
   14.6514   -6.7190   16.2249 O   0  0  0  0  0  0  0  0  0  0  0  0
   16.4616   -9.6698    2.4326 N   0  0  0  0  0  0  0  0  0  0  0  0
   17.1278   -9.4203    3.6078 C   0  0  0  0  0  0  0  0  0  0  0  0
   16.5231   -8.6459    4.5734 N   0  0  0  0  0  0  0  0  0  0  0  0
   15.2872   -8.1316    4.3845 C   0  0  0  0  0  0  0  0  0  0  0  0
   14.5964   -8.3863    3.2087 C   0  0  0  0  0  0  0  0  0  0  0  0
   15.1989   -9.1593    2.2183 C   0  0  0  0  0  0  0  0  0  0  0  0
   14.5701   -9.4208    1.0721 N   0  0  0  0  0  0  0  0  0  0  0  0
   13.3924   -7.7634    3.2885 N   0  0  0  0  0  0  0  0  0  0  0  0
   13.3150   -7.1446    4.4892 C   0  0  0  0  0  0  0  0  0  0  0  0
   14.4782   -7.3689    5.1836 N   0  0  0  0  0  0  0  0  0  0  0  0
  2  1  1  1  0  0  0
  2  3  1  0  0  0  0
  2  5  1  0  0  0  0
  3  4  1  0  0  0  0
  3 17  1  0  0  0  0
  5  6  1  0  0  0  0
  7  6  1  1  0  0  0
  7  8  1  0  0  0  0
  7  9  1  0  0  0  0
 10  9  1  6  0  0  0
 10 11  1  0  0  0  0
 10 12  1  0  0  0  0
 11 16  1  0  0  0  0
 12 13  1  1  0  0  0
 12 14  1  0  0  0  0
 14 15  1  1  0  0  0
 14 16  1  0  0  0  0
 16 27  1  6  0  0  0
 18 19  2  0  0  0  0
 18 23  1  0  0  0  0
 19 20  1  0  0  0  0
 20 21  2  0  0  0  0
 21 22  1  0  0  0  0
 21 27  1  0  0  0  0
 22 23  2  0  0  0  0
 22 25  1  0  0  0  0
 23 24  1  0  0  0  0
 25 26  2  0  0  0  0
 26 27  1  0  0  0  0
M  END
>  <CHROM.1>
-86.44210969,-58.57078661,167.89041336,-74.67221004,-69.54678501,168.47404376
-93.06792421,13.92204964,-7.56266289,8.39284762,-1.84767159,0.88791703,-1.44402825

>  <Name>
ligand

>  <RI>
0

>  <Rbt.Current_Directory>
/home/itssahil/PROJECTS/Mol_Feturizer/New_Systems/rnas/3GX5

>  <Rbt.Executable>
rbdock ($Id: //depot/dev/client3/rdock/2013.1/src/exe/rbdock.cxx#4 $)

>  <Rbt.Library>
libRbt.so (2013.1, Build901 2013/11/27)

>  <Rbt.Parameter_File>
/export/apps/rDock/src/rDock_2013.1_src/data/scripts/dock_solv.prm

>  <Rbt.Receptor>
prm/pocket_docking_6.prm

>  <SCORE>
-13.4827

>  <SCORE.INTER>
-14.1462

>  <SCORE.INTER.CONST>
1

>  <SCORE.INTER.POLAR>
0

>  <SCORE.INTER.ROT>
7

>  <SCORE.INTER.SOLV>
12.7769

>  <SCORE.INTER.VDW>
-21.9564

>  <SCORE.INTER.norm>
-0.523932

>  <SCORE.INTRA>
0.663495

>  <SCORE.INTRA.DIHEDRAL>
0.32404

>  <SCORE.INTRA.DIHEDRAL.0>
4.28829

>  <SCORE.INTRA.POLAR>
0

>  <SCORE.INTRA.POLAR.0>
0

>  <SCORE.INTRA.REPUL>
0

>  <SCORE.INTRA.REPUL.0>
0

>  <SCORE.INTRA.SOLV>
-0.0948181

>  <SCORE.INTRA.SOLV.lig_0>
-48.6018

>  <SCORE.INTRA.VDW>
0.548884

>  <SCORE.INTRA.VDW.0>
-2.1506

>  <SCORE.INTRA.norm>
0.0245739

>  <SCORE.RESTR>
0

>  <SCORE.RESTR.CAVITY>
0

>  <SCORE.RESTR.norm>
0

>  <SCORE.SYSTEM>
0

>  <SCORE.SYSTEM.CONST>
0

>  <SCORE.SYSTEM.DIHEDRAL>
0

>  <SCORE.SYSTEM.SOLV>
0

>  <SCORE.SYSTEM.norm>
0

>  <SCORE.heavy>
27

>  <SCORE.norm>
-0.499358

>  <RMSD>
5.010

$$$$
ligand
 OpenBabel11021811483D
libRbt.so/2013.1/901 2013/11/27
 27 29  0  0  0  0  0  0  0  0999 V2000
   14.5166   -9.4485   13.5110 N   0  0  0  0  0  0  0  0  0  0  0  0
   15.2320   -8.1741   13.6004 C   0  0  2  0  0  0  0  0  0  0  0  0
   14.5464   -7.0842   14.4280 C   0  0  0  0  0  0  0  0  0  0  0  0
   15.2418   -6.3325   15.1100 O   0  0  0  0  0  0  0  0  0  0  0  0
   15.5861   -7.6515   12.2183 C   0  0  0  0  0  0  0  0  0  0  0  0
   16.6051   -6.5273   12.2903 C   0  0  0  0  0  0  0  0  0  0  0  0
   16.9501   -5.8746   10.6471 S   0  0  2  0  0  0  0  0  0  0  0  0
   18.7380   -5.6549   10.7666 C   0  0  0  0  0  0  0  0  0  0  0  0
   16.4210   -4.1585   10.8562 C   0  0  0  0  0  0  0  0  0  0  0  0
   15.8782   -3.5969    9.5550 C   0  0  1  0  0  0  0  0  0  0  0  0
   16.7867   -3.8195    8.5009 O   0  0  0  0  0  0  0  0  0  0  0  0
   14.5923   -4.2696    9.1166 C   0  0  1  0  0  0  0  0  0  0  0  0
   13.5100   -3.5238    9.6140 O   0  0  0  0  0  0  0  0  0  0  0  0
   14.6531   -4.1994    7.6041 C   0  0  1  0  0  0  0  0  0  0  0  0
   13.8453   -3.1167    7.2005 O   0  0  0  0  0  0  0  0  0  0  0  0
   16.1204   -3.9395    7.2564 C   0  0  2  0  0  0  0  0  0  0  0  0
   13.3226   -6.9266   14.4477 O   0  0  0  0  0  0  0  0  0  0  0  0
   15.1322   -8.2499    4.4526 N   0  0  0  0  0  0  0  0  0  0  0  0
   14.2345   -7.3117    4.9010 C   0  0  0  0  0  0  0  0  0  0  0  0
   14.6918   -6.2376    5.6324 N   0  0  0  0  0  0  0  0  0  0  0  0
   16.0062   -6.0911    5.9124 C   0  0  0  0  0  0  0  0  0  0  0  0
   16.9264   -7.0230    5.4545 C   0  0  0  0  0  0  0  0  0  0  0  0
   16.4780   -8.1203    4.7223 C   0  0  0  0  0  0  0  0  0  0  0  0
   17.3305   -9.0406    4.2707 N   0  0  0  0  0  0  0  0  0  0  0  0
   18.1590   -6.6300    5.8672 N   0  0  0  0  0  0  0  0  0  0  0  0
   18.0261   -5.4716    6.5536 C   0  0  0  0  0  0  0  0  0  0  0  0
   16.6990   -5.1201    6.5847 N   0  0  0  0  0  0  0  0  0  0  0  0
  2  1  1  6  0  0  0
  2  3  1  0  0  0  0
  2  5  1  0  0  0  0
  3  4  1  0  0  0  0
  3 17  1  0  0  0  0
  5  6  1  0  0  0  0
  7  6  1  1  0  0  0
  7  8  1  0  0  0  0
  7  9  1  0  0  0  0
 10  9  1  1  0  0  0
 10 11  1  0  0  0  0
 10 12  1  0  0  0  0
 11 16  1  0  0  0  0
 12 13  1  1  0  0  0
 12 14  1  0  0  0  0
 14 15  1  1  0  0  0
 14 16  1  0  0  0  0
 16 27  1  1  0  0  0
 18 19  2  0  0  0  0
 18 23  1  0  0  0  0
 19 20  1  0  0  0  0
 20 21  2  0  0  0  0
 21 22  1  0  0  0  0
 21 27  1  0  0  0  0
 22 23  2  0  0  0  0
 22 25  1  0  0  0  0
 23 24  1  0  0  0  0
 25 26  2  0  0  0  0
 26 27  1  0  0  0  0
M  END
>  <CHROM.1>
143.26449502,-166.18432682,-177.37080209,-139.09378302,-148.43355503,-50.95115691
136.61776522,15.81468619,-6.00709588,9.11866940,-2.18954752,1.34919512,-0.92160857

>  <Name>
ligand

>  <RI>
0

>  <Rbt.Current_Directory>
/home/itssahil/PROJECTS/Mol_Feturizer/New_Systems/rnas/3GX5

>  <Rbt.Executable>
rbdock ($Id: //depot/dev/client3/rdock/2013.1/src/exe/rbdock.cxx#4 $)

>  <Rbt.Library>
libRbt.so (2013.1, Build901 2013/11/27)

>  <Rbt.Parameter_File>
/export/apps/rDock/src/rDock_2013.1_src/data/scripts/dock_solv.prm

>  <Rbt.Receptor>
prm/pocket_docking_6.prm

>  <SCORE>
-9.39639

>  <SCORE.INTER>
-12.1039

>  <SCORE.INTER.CONST>
1

>  <SCORE.INTER.POLAR>
0

>  <SCORE.INTER.ROT>
7

>  <SCORE.INTER.SOLV>
12.9405

>  <SCORE.INTER.VDW>
-20.6495

>  <SCORE.INTER.norm>
-0.448294

>  <SCORE.INTRA>
2.70754

>  <SCORE.INTRA.DIHEDRAL>
7.40197

>  <SCORE.INTRA.DIHEDRAL.0>
4.28829

>  <SCORE.INTRA.POLAR>
0

>  <SCORE.INTRA.POLAR.0>
0

>  <SCORE.INTRA.REPUL>
0

>  <SCORE.INTRA.REPUL.0>
0

>  <SCORE.INTRA.SOLV>
-1.07864

>  <SCORE.INTRA.SOLV.lig_0>
-48.6018

>  <SCORE.INTRA.VDW>
-0.454123

>  <SCORE.INTRA.VDW.0>
-2.1506

>  <SCORE.INTRA.norm>
0.100279

>  <SCORE.RESTR>
0

>  <SCORE.RESTR.CAVITY>
0

>  <SCORE.RESTR.norm>
0

>  <SCORE.SYSTEM>
0

>  <SCORE.SYSTEM.CONST>
0

>  <SCORE.SYSTEM.DIHEDRAL>
0

>  <SCORE.SYSTEM.SOLV>
0

>  <SCORE.SYSTEM.norm>
0

>  <SCORE.heavy>
27

>  <SCORE.norm>
-0.348015

>  <RMSD>
5.011

$$$$
ligand
 OpenBabel11021811483D
libRbt.so/2013.1/901 2013/11/27
 27 29  0  0  0  0  0  0  0  0999 V2000
   14.2932   -7.2634   14.2032 N   0  0  0  0  0  0  0  0  0  0  0  0
   15.1689   -7.9989   13.2889 C   0  0  2  0  0  0  0  0  0  0  0  0
   15.9728   -9.1415   13.9143 C   0  0  0  0  0  0  0  0  0  0  0  0
   15.8503   -9.3622   15.1184 O   0  0  0  0  0  0  0  0  0  0  0  0
   16.0864   -7.0510   12.5350 C   0  0  0  0  0  0  0  0  0  0  0  0
   15.4470   -6.5609   11.2472 C   0  0  0  0  0  0  0  0  0  0  0  0
   14.2528   -5.2554   11.5860 S   0  0  2  0  0  0  0  0  0  0  0  0
   12.7611   -6.2468   11.8122 C   0  0  0  0  0  0  0  0  0  0  0  0
   13.9543   -4.6394    9.9126 C   0  0  0  0  0  0  0  0  0  0  0  0
   15.1660   -3.8924    9.3865 C   0  0  1  0  0  0  0  0  0  0  0  0
   16.2105   -4.7896    9.0863 O   0  0  0  0  0  0  0  0  0  0  0  0
   14.8869   -3.1624    8.0874 C   0  0  1  0  0  0  0  0  0  0  0  0
   14.5038   -1.8452    8.3926 O   0  0  0  0  0  0  0  0  0  0  0  0
   16.2221   -3.1896    7.3715 C   0  0  1  0  0  0  0  0  0  0  0  0
   16.8318   -1.9340    7.5708 O   0  0  0  0  0  0  0  0  0  0  0  0
   17.0343   -4.2987    8.0434 C   0  0  2  0  0  0  0  0  0  0  0  0
   16.7459   -9.8515   13.2655 O   0  0  0  0  0  0  0  0  0  0  0  0
   14.7394   -7.6233    4.7120 N   0  0  0  0  0  0  0  0  0  0  0  0
   14.1509   -6.6154    5.4365 C   0  0  0  0  0  0  0  0  0  0  0  0
   14.9293   -5.8413    6.2687 N   0  0  0  0  0  0  0  0  0  0  0  0
   16.2594   -6.0552    6.3810 C   0  0  0  0  0  0  0  0  0  0  0  0
   16.8702   -7.0602    5.6452 C   0  0  0  0  0  0  0  0  0  0  0  0
   16.0946   -7.8584    4.8069 C   0  0  0  0  0  0  0  0  0  0  0  0
   16.6436   -8.8384    4.0887 N   0  0  0  0  0  0  0  0  0  0  0  0
   18.1956   -7.0473    5.9406 N   0  0  0  0  0  0  0  0  0  0  0  0
   18.4219   -6.0502    6.8268 C   0  0  0  0  0  0  0  0  0  0  0  0
   17.2334   -5.4209    7.1047 N   0  0  0  0  0  0  0  0  0  0  0  0
  2  1  1  1  0  0  0
  2  3  1  0  0  0  0
  2  5  1  0  0  0  0
  3  4  1  0  0  0  0
  3 17  1  0  0  0  0
  5  6  1  0  0  0  0
  7  6  1  6  0  0  0
  7  8  1  0  0  0  0
  7  9  1  0  0  0  0
 10  9  1  6  0  0  0
 10 11  1  0  0  0  0
 10 12  1  0  0  0  0
 11 16  1  0  0  0  0
 12 13  1  1  0  0  0
 12 14  1  0  0  0  0
 14 15  1  1  0  0  0
 14 16  1  0  0  0  0
 16 27  1  6  0  0  0
 18 19  2  0  0  0  0
 18 23  1  0  0  0  0
 19 20  1  0  0  0  0
 20 21  2  0  0  0  0
 21 22  1  0  0  0  0
 21 27  1  0  0  0  0
 22 23  2  0  0  0  0
 22 25  1  0  0  0  0
 23 24  1  0  0  0  0
 25 26  2  0  0  0  0
 26 27  1  0  0  0  0
M  END
>  <CHROM.1>
-0.66858492,-88.95164199,78.63289915,-90.19639114,-70.74765871,72.16071304
62.84430969,15.65228564,-6.04292878,9.18889442,2.01054503,-1.26284714,2.26954576

>  <Name>
ligand

>  <RI>
0

>  <Rbt.Current_Directory>
/home/itssahil/PROJECTS/Mol_Feturizer/New_Systems/rnas/3GX5

>  <Rbt.Executable>
rbdock ($Id: //depot/dev/client3/rdock/2013.1/src/exe/rbdock.cxx#4 $)

>  <Rbt.Library>
libRbt.so (2013.1, Build901 2013/11/27)

>  <Rbt.Parameter_File>
/export/apps/rDock/src/rDock_2013.1_src/data/scripts/dock_solv.prm

>  <Rbt.Receptor>
prm/pocket_docking_5.prm

>  <SCORE>
-9.09401

>  <SCORE.INTER>
-11.5485

>  <SCORE.INTER.CONST>
1

>  <SCORE.INTER.POLAR>
0

>  <SCORE.INTER.ROT>
7

>  <SCORE.INTER.SOLV>
13.2355

>  <SCORE.INTER.VDW>
-20.3775

>  <SCORE.INTER.norm>
-0.427723

>  <SCORE.INTRA>
2.45452

>  <SCORE.INTRA.DIHEDRAL>
4.68124

>  <SCORE.INTRA.DIHEDRAL.0>
4.28829

>  <SCORE.INTRA.POLAR>
0

>  <SCORE.INTRA.POLAR.0>
0

>  <SCORE.INTRA.REPUL>
0

>  <SCORE.INTRA.REPUL.0>
0

>  <SCORE.INTRA.SOLV>
1.63229

>  <SCORE.INTRA.SOLV.lig_0>
-48.6018

>  <SCORE.INTRA.VDW>
-0.702246

>  <SCORE.INTRA.VDW.0>
-2.1506

>  <SCORE.INTRA.norm>
0.0909081

>  <SCORE.RESTR>
0

>  <SCORE.RESTR.CAVITY>
0

>  <SCORE.RESTR.norm>
0

>  <SCORE.SYSTEM>
0

>  <SCORE.SYSTEM.CONST>
0

>  <SCORE.SYSTEM.DIHEDRAL>
0

>  <SCORE.SYSTEM.SOLV>
0

>  <SCORE.SYSTEM.norm>
0

>  <SCORE.heavy>
27

>  <SCORE.norm>
-0.336815

>  <RMSD>
5.020

$$$$
ligand
 OpenBabel11021811483D
libRbt.so/2013.1/901 2013/11/27
 27 29  0  0  0  0  0  0  0  0999 V2000
   13.6767   -9.5942   10.3370 N   0  0  0  0  0  0  0  0  0  0  0  0
   14.2118   -8.6591   11.3284 C   0  0  2  0  0  0  0  0  0  0  0  0
   14.7531   -9.2910   12.6132 C   0  0  0  0  0  0  0  0  0  0  0  0
   15.6966   -8.7495   13.1878 O   0  0  0  0  0  0  0  0  0  0  0  0
   13.1998   -7.5731   11.6530 C   0  0  0  0  0  0  0  0  0  0  0  0
   13.8186   -6.4637   12.4857 C   0  0  0  0  0  0  0  0  0  0  0  0
   15.1654   -5.6708   11.5897 S   0  0  2  0  0  0  0  0  0  0  0  0
   15.5730   -4.3455   12.7459 C   0  0  0  0  0  0  0  0  0  0  0  0
   14.2333   -4.7245   10.3632 C   0  0  0  0  0  0  0  0  0  0  0  0
   15.1379   -3.7541    9.6264 C   0  0  1  0  0  0  0  0  0  0  0  0
   16.3825   -4.3520    9.3442 O   0  0  0  0  0  0  0  0  0  0  0  0
   14.5824   -3.3430    8.2770 C   0  0  1  0  0  0  0  0  0  0  0  0
   13.8445   -2.1587    8.4436 O   0  0  0  0  0  0  0  0  0  0  0  0
   15.8232   -3.0990    7.4421 C   0  0  1  0  0  0  0  0  0  0  0  0
   16.0442   -1.7068    7.4140 O   0  0  0  0  0  0  0  0  0  0  0  0
   16.9639   -3.8138    8.1697 C   0  0  2  0  0  0  0  0  0  0  0  0
   14.2890  -10.3260   13.0990 O   0  0  0  0  0  0  0  0  0  0  0  0
   20.0746   -8.0240    8.0429 N   0  0  0  0  0  0  0  0  0  0  0  0
   19.8882   -7.1445    9.0816 C   0  0  0  0  0  0  0  0  0  0  0  0
   19.0206   -6.0866    8.9209 N   0  0  0  0  0  0  0  0  0  0  0  0
   18.3496   -5.9025    7.7618 C   0  0  0  0  0  0  0  0  0  0  0  0
   18.5169   -6.7901    6.7088 C   0  0  0  0  0  0  0  0  0  0  0  0
   19.3988   -7.8591    6.8525 C   0  0  0  0  0  0  0  0  0  0  0  0
   19.5917   -8.7297    5.8612 N   0  0  0  0  0  0  0  0  0  0  0  0
   17.7267   -6.3766    5.6848 N   0  0  0  0  0  0  0  0  0  0  0  0
   17.0636   -5.2667    6.0835 C   0  0  0  0  0  0  0  0  0  0  0  0
   17.4329   -4.9636    7.3709 N   0  0  0  0  0  0  0  0  0  0  0  0
  2  1  1  6  0  0  0
  2  3  1  0  0  0  0
  2  5  1  0  0  0  0
  3  4  1  0  0  0  0
  3 17  1  0  0  0  0
  5  6  1  0  0  0  0
  7  6  1  1  0  0  0
  7  8  1  0  0  0  0
  7  9  1  0  0  0  0
 10  9  1  6  0  0  0
 10 11  1  0  0  0  0
 10 12  1  0  0  0  0
 11 16  1  0  0  0  0
 12 13  1  1  0  0  0
 12 14  1  0  0  0  0
 14 15  1  1  0  0  0
 14 16  1  0  0  0  0
 16 27  1  6  0  0  0
 18 19  2  0  0  0  0
 18 23  1  0  0  0  0
 19 20  1  0  0  0  0
 20 21  2  0  0  0  0
 21 22  1  0  0  0  0
 21 27  1  0  0  0  0
 22 23  2  0  0  0  0
 22 25  1  0  0  0  0
 23 24  1  0  0  0  0
 25 26  2  0  0  0  0
 26 27  1  0  0  0  0
M  END
>  <CHROM.1>
147.87532806,-169.94734194,61.16343563,175.12641962,169.62788988,40.25625949
-59.69030860,16.19146250,-6.05254013,9.45728819,-2.34902090,0.75632083,-0.50508870

>  <Name>
ligand

>  <RI>
0

>  <Rbt.Current_Directory>
/home/itssahil/PROJECTS/Mol_Feturizer/New_Systems/rnas/3GX5

>  <Rbt.Executable>
rbdock ($Id: //depot/dev/client3/rdock/2013.1/src/exe/rbdock.cxx#4 $)

>  <Rbt.Library>
libRbt.so (2013.1, Build901 2013/11/27)

>  <Rbt.Parameter_File>
/export/apps/rDock/src/rDock_2013.1_src/data/scripts/dock_solv.prm

>  <Rbt.Receptor>
prm/pocket_docking_5.prm

>  <SCORE>
-11.0135

>  <SCORE.INTER>
-11.4647

>  <SCORE.INTER.CONST>
1

>  <SCORE.INTER.POLAR>
0

>  <SCORE.INTER.ROT>
7

>  <SCORE.INTER.SOLV>
10.2541

>  <SCORE.INTER.VDW>
-19.3278

>  <SCORE.INTER.norm>
-0.424619

>  <SCORE.INTRA>
0.451195

>  <SCORE.INTRA.DIHEDRAL>
0.816489

>  <SCORE.INTRA.DIHEDRAL.0>
4.28829

>  <SCORE.INTRA.POLAR>
0

>  <SCORE.INTRA.POLAR.0>
0

>  <SCORE.INTRA.REPUL>
0

>  <SCORE.INTRA.REPUL.0>
0

>  <SCORE.INTRA.SOLV>
-0.953755

>  <SCORE.INTRA.SOLV.lig_0>
-48.6018

>  <SCORE.INTRA.VDW>
0.519828

>  <SCORE.INTRA.VDW.0>
-2.1506

>  <SCORE.INTRA.norm>
0.0167109

>  <SCORE.RESTR>
0

>  <SCORE.RESTR.CAVITY>
0

>  <SCORE.RESTR.norm>
0

>  <SCORE.SYSTEM>
0

>  <SCORE.SYSTEM.CONST>
0

>  <SCORE.SYSTEM.DIHEDRAL>
0

>  <SCORE.SYSTEM.SOLV>
0

>  <SCORE.SYSTEM.norm>
0

>  <SCORE.heavy>
27

>  <SCORE.norm>
-0.407908

>  <RMSD>
5.026

$$$$
ligand
 OpenBabel11021811483D
libRbt.so/2013.1/901 2013/11/27
 27 29  0  0  0  0  0  0  0  0999 V2000
   11.4574   -8.4753   10.7691 N   0  0  0  0  0  0  0  0  0  0  0  0
   12.5798   -9.1923   10.1609 C   0  0  2  0  0  0  0  0  0  0  0  0
   13.3977  -10.0726   11.1090 C   0  0  0  0  0  0  0  0  0  0  0  0
   13.7283  -11.1974   10.7360 O   0  0  0  0  0  0  0  0  0  0  0  0
   13.4871   -8.2382    9.4023 C   0  0  0  0  0  0  0  0  0  0  0  0
   13.8352   -7.0170   10.2358 C   0  0  0  0  0  0  0  0  0  0  0  0
   15.6071   -6.6959   10.1853 S   0  0  2  0  0  0  0  0  0  0  0  0
   16.1065   -7.4499   11.7477 C   0  0  0  0  0  0  0  0  0  0  0  0
   15.6403   -4.9537   10.6675 C   0  0  0  0  0  0  0  0  0  0  0  0
   15.7211   -4.0556    9.4468 C   0  0  1  0  0  0  0  0  0  0  0  0
   16.7747   -4.4591    8.6024 O   0  0  0  0  0  0  0  0  0  0  0  0
   14.4759   -4.1236    8.5847 C   0  0  1  0  0  0  0  0  0  0  0  0
   13.6020   -3.0991    8.9865 O   0  0  0  0  0  0  0  0  0  0  0  0
   14.9999   -3.8751    7.1847 C   0  0  1  0  0  0  0  0  0  0  0  0
   14.7486   -2.5226    6.8755 O   0  0  0  0  0  0  0  0  0  0  0  0
   16.5047   -4.1457    7.2474 C   0  0  2  0  0  0  0  0  0  0  0  0
   13.7381   -9.7075   12.2376 O   0  0  0  0  0  0  0  0  0  0  0  0
   14.6166   -8.1782    4.4921 N   0  0  0  0  0  0  0  0  0  0  0  0
   13.9114   -7.1637    5.0926 C   0  0  0  0  0  0  0  0  0  0  0  0
   14.5938   -6.1849    5.7810 N   0  0  0  0  0  0  0  0  0  0  0  0
   15.9425   -6.2053    5.8722 C   0  0  0  0  0  0  0  0  0  0  0  0
   16.6692   -7.2156    5.2593 C   0  0  0  0  0  0  0  0  0  0  0  0
   15.9926   -8.2185    4.5681 C   0  0  0  0  0  0  0  0  0  0  0  0
   16.6550   -9.2099    3.9715 N   0  0  0  0  0  0  0  0  0  0  0  0
   17.9861   -6.9881    5.5007 N   0  0  0  0  0  0  0  0  0  0  0  0
   18.0924   -5.8549    6.2323 C   0  0  0  0  0  0  0  0  0  0  0  0
   16.8355   -5.3534    6.4651 N   0  0  0  0  0  0  0  0  0  0  0  0
  2  1  1  1  0  0  0
  2  3  1  0  0  0  0
  2  5  1  0  0  0  0
  3  4  1  0  0  0  0
  3 17  1  0  0  0  0
  5  6  1  0  0  0  0
  7  6  1  1  0  0  0
  7  8  1  0  0  0  0
  7  9  1  0  0  0  0
 10  9  1  1  0  0  0
 10 11  1  0  0  0  0
 10 12  1  0  0  0  0
 11 16  1  0  0  0  0
 12 13  1  1  0  0  0
 12 14  1  0  0  0  0
 14 15  1  1  0  0  0
 14 16  1  0  0  0  0
 16 27  1  6  0  0  0
 18 19  2  0  0  0  0
 18 23  1  0  0  0  0
 19 20  1  0  0  0  0
 20 21  2  0  0  0  0
 21 22  1  0  0  0  0
 21 27  1  0  0  0  0
 22 23  2  0  0  0  0
 22 25  1  0  0  0  0
 23 24  1  0  0  0  0
 25 26  2  0  0  0  0
 26 27  1  0  0  0  0
M  END
>  <CHROM.1>
136.27983215,48.32373154,132.10212022,-98.81476907,-97.21465782,-51.21254372
107.56415659,15.09678402,-6.64873851,8.24376830,-3.10300130,1.17801052,0.52093683

>  <Name>
ligand

>  <RI>
0

>  <Rbt.Current_Directory>
/home/itssahil/PROJECTS/Mol_Feturizer/New_Systems/rnas/3GX5

>  <Rbt.Executable>
rbdock ($Id: //depot/dev/client3/rdock/2013.1/src/exe/rbdock.cxx#4 $)

>  <Rbt.Library>
libRbt.so (2013.1, Build901 2013/11/27)

>  <Rbt.Parameter_File>
/export/apps/rDock/src/rDock_2013.1_src/data/scripts/dock_solv.prm

>  <Rbt.Receptor>
prm/pocket_docking_4.prm

>  <SCORE>
-6.03482

>  <SCORE.INTER>
-9.58046

>  <SCORE.INTER.CONST>
1

>  <SCORE.INTER.POLAR>
0

>  <SCORE.INTER.ROT>
7

>  <SCORE.INTER.SOLV>
14.2813

>  <SCORE.INTER.VDW>
-19.4141

>  <SCORE.INTER.norm>
-0.354832

>  <SCORE.INTRA>
3.54564

>  <SCORE.INTRA.DIHEDRAL>
8.98408

>  <SCORE.INTRA.DIHEDRAL.0>
4.28829

>  <SCORE.INTRA.POLAR>
0

>  <SCORE.INTRA.POLAR.0>
0

>  <SCORE.INTRA.REPUL>
0

>  <SCORE.INTRA.REPUL.0>
0

>  <SCORE.INTRA.SOLV>
-0.202838

>  <SCORE.INTRA.SOLV.lig_0>
-48.6018

>  <SCORE.INTRA.VDW>
-0.844977

>  <SCORE.INTRA.VDW.0>
-2.1506

>  <SCORE.INTRA.norm>
0.13132

>  <SCORE.RESTR>
0

>  <SCORE.RESTR.CAVITY>
0

>  <SCORE.RESTR.norm>
0

>  <SCORE.SYSTEM>
0

>  <SCORE.SYSTEM.CONST>
0

>  <SCORE.SYSTEM.DIHEDRAL>
0

>  <SCORE.SYSTEM.SOLV>
0

>  <SCORE.SYSTEM.norm>
0

>  <SCORE.heavy>
27

>  <SCORE.norm>
-0.223512

>  <RMSD>
5.032

$$$$
ligand
 OpenBabel11021811483D
libRbt.so/2013.1/901 2013/11/27
 27 29  0  0  0  0  0  0  0  0999 V2000
   17.4156   -6.4531    8.0532 N   0  0  0  0  0  0  0  0  0  0  0  0
   16.7677   -5.2486    8.5757 C   0  0  2  0  0  0  0  0  0  0  0  0
   17.0369   -3.9586    7.7970 C   0  0  0  0  0  0  0  0  0  0  0  0
   17.9033   -3.9638    6.9235 O   0  0  0  0  0  0  0  0  0  0  0  0
   17.0830   -5.0579   10.0498 C   0  0  0  0  0  0  0  0  0  0  0  0
   16.2715   -6.0010   10.9212 C   0  0  0  0  0  0  0  0  0  0  0  0
   14.5068   -5.7341   10.6763 S   0  0  2  0  0  0  0  0  0  0  0  0
   14.3447   -4.0696   11.3563 C   0  0  0  0  0  0  0  0  0  0  0  0
   13.8343   -6.6899   12.0558 C   0  0  0  0  0  0  0  0  0  0  0  0
   13.4665   -8.0941   11.6130 C   0  0  1  0  0  0  0  0  0  0  0  0
   12.6946   -8.0569   10.4345 O   0  0  0  0  0  0  0  0  0  0  0  0
   14.6782   -8.9361   11.2650 C   0  0  1  0  0  0  0  0  0  0  0  0
   15.0631   -9.6537   12.4103 O   0  0  0  0  0  0  0  0  0  0  0  0
   14.1648   -9.8672   10.1854 C   0  0  1  0  0  0  0  0  0  0  0  0
   13.8824  -11.1056   10.7975 O   0  0  0  0  0  0  0  0  0  0  0  0
   12.8839   -9.2224    9.6517 C   0  0  2  0  0  0  0  0  0  0  0  0
   16.4268   -2.9071    8.0089 O   0  0  0  0  0  0  0  0  0  0  0  0
   13.0119   -5.1052    6.4190 N   0  0  0  0  0  0  0  0  0  0  0  0
   12.7932   -5.1057    7.7752 C   0  0  0  0  0  0  0  0  0  0  0  0
   12.7959   -6.3025    8.4573 N   0  0  0  0  0  0  0  0  0  0  0  0
   13.0125   -7.4725    7.8157 C   0  0  0  0  0  0  0  0  0  0  0  0
   13.2486   -7.4867    6.4488 C   0  0  0  0  0  0  0  0  0  0  0  0
   13.2389   -6.2853    5.7432 C   0  0  0  0  0  0  0  0  0  0  0  0
   13.4551   -6.2584    4.4278 N   0  0  0  0  0  0  0  0  0  0  0  0
   13.4405   -8.7771    6.0716 N   0  0  0  0  0  0  0  0  0  0  0  0
   13.3455   -9.5582    7.1723 C   0  0  0  0  0  0  0  0  0  0  0  0
   13.0876   -8.7645    8.2628 N   0  0  0  0  0  0  0  0  0  0  0  0
  2  1  1  6  0  0  0
  2  3  1  0  0  0  0
  2  5  1  0  0  0  0
  3  4  1  0  0  0  0
  3 17  1  0  0  0  0
  5  6  1  0  0  0  0
  7  6  1  1  0  0  0
  7  8  1  0  0  0  0
  7  9  1  0  0  0  0
 10  9  1  6  0  0  0
 10 11  1  0  0  0  0
 10 12  1  0  0  0  0
 11 16  1  0  0  0  0
 12 13  1  1  0  0  0
 12 14  1  0  0  0  0
 14 15  1  1  0  0  0
 14 16  1  0  0  0  0
 16 27  1  6  0  0  0
 18 19  2  0  0  0  0
 18 23  1  0  0  0  0
 19 20  1  0  0  0  0
 20 21  2  0  0  0  0
 21 22  1  0  0  0  0
 21 27  1  0  0  0  0
 22 23  2  0  0  0  0
 22 25  1  0  0  0  0
 23 24  1  0  0  0  0
 25 26  2  0  0  0  0
 26 27  1  0  0  0  0
M  END
>  <CHROM.1>
-10.08765101,-76.60648777,-59.11859986,-66.34427204,-94.68023684,-48.96833806
-4.14222289,14.48223155,-6.82910252,9.01358279,-0.94422850,0.92946159,2.02155415

>  <Name>
ligand

>  <RI>
0

>  <Rbt.Current_Directory>
/home/itssahil/PROJECTS/Mol_Feturizer/New_Systems/rnas/3GX5

>  <Rbt.Executable>
rbdock ($Id: //depot/dev/client3/rdock/2013.1/src/exe/rbdock.cxx#4 $)

>  <Rbt.Library>
libRbt.so (2013.1, Build901 2013/11/27)

>  <Rbt.Parameter_File>
/export/apps/rDock/src/rDock_2013.1_src/data/scripts/dock_solv.prm

>  <Rbt.Receptor>
prm/pocket_docking_2.prm

>  <SCORE>
-1.73578

>  <SCORE.INTER>
-2.47469

>  <SCORE.INTER.CONST>
1

>  <SCORE.INTER.POLAR>
0

>  <SCORE.INTER.ROT>
7

>  <SCORE.INTER.SOLV>
15.5198

>  <SCORE.INTER.VDW>
-15.0897

>  <SCORE.INTER.norm>
-0.0916551

>  <SCORE.INTRA>
-0.178119

>  <SCORE.INTRA.DIHEDRAL>
2.28985

>  <SCORE.INTRA.DIHEDRAL.0>
4.28829

>  <SCORE.INTRA.POLAR>
0

>  <SCORE.INTRA.POLAR.0>
0

>  <SCORE.INTRA.REPUL>
0

>  <SCORE.INTRA.REPUL.0>
0

>  <SCORE.INTRA.SOLV>
0.162982

>  <SCORE.INTRA.SOLV.lig_0>
-48.6018

>  <SCORE.INTRA.VDW>
-1.40454

>  <SCORE.INTRA.VDW.0>
-2.1506

>  <SCORE.INTRA.norm>
-0.00659702

>  <SCORE.RESTR>
0.917024

>  <SCORE.RESTR.CAVITY>
0.917024

>  <SCORE.RESTR.norm>
0.0339639

>  <SCORE.SYSTEM>
0

>  <SCORE.SYSTEM.CONST>
0

>  <SCORE.SYSTEM.DIHEDRAL>
0

>  <SCORE.SYSTEM.SOLV>
0

>  <SCORE.SYSTEM.norm>
0

>  <SCORE.heavy>
27

>  <SCORE.norm>
-0.0642882

>  <RMSD>
5.037

$$$$
ligand
 OpenBabel11021811483D
libRbt.so/2013.1/901 2013/11/27
 27 29  0  0  0  0  0  0  0  0999 V2000
   12.0167   -9.1298   12.0692 N   0  0  0  0  0  0  0  0  0  0  0  0
   11.9063   -8.4324   10.7866 C   0  0  2  0  0  0  0  0  0  0  0  0
   13.0949   -8.5973    9.8364 C   0  0  0  0  0  0  0  0  0  0  0  0
   14.0525   -9.2798   10.1984 O   0  0  0  0  0  0  0  0  0  0  0  0
   11.5886   -6.9610   10.9936 C   0  0  0  0  0  0  0  0  0  0  0  0
   12.5508   -6.3146   11.9753 C   0  0  0  0  0  0  0  0  0  0  0  0
   14.1710   -6.0858   11.2216 S   0  0  2  0  0  0  0  0  0  0  0  0
   15.0284   -5.2474   12.5711 C   0  0  0  0  0  0  0  0  0  0  0  0
   13.8386   -4.6686   10.1493 C   0  0  0  0  0  0  0  0  0  0  0  0
   15.1061   -4.2061    9.4547 C   0  0  1  0  0  0  0  0  0  0  0  0
   15.8345   -5.3087    8.9649 O   0  0  0  0  0  0  0  0  0  0  0  0
   14.8281   -3.3449    8.2385 C   0  0  1  0  0  0  0  0  0  0  0  0
   14.8385   -1.9975    8.6378 O   0  0  0  0  0  0  0  0  0  0  0  0
   15.9908   -3.6487    7.3155 C   0  0  1  0  0  0  0  0  0  0  0  0
   16.9192   -2.5959    7.4480 O   0  0  0  0  0  0  0  0  0  0  0  0
   16.5894   -4.9648    7.8164 C   0  0  2  0  0  0  0  0  0  0  0  0
   13.1406   -8.0709    8.7213 O   0  0  0  0  0  0  0  0  0  0  0  0
   13.1120   -7.2531    4.6401 N   0  0  0  0  0  0  0  0  0  0  0  0
   12.9209   -6.1625    5.4532 C   0  0  0  0  0  0  0  0  0  0  0  0
   13.9674   -5.7053    6.2235 N   0  0  0  0  0  0  0  0  0  0  0  0
   15.1765   -6.3091    6.1897 C   0  0  0  0  0  0  0  0  0  0  0  0
   15.3886   -7.4028    5.3631 C   0  0  0  0  0  0  0  0  0  0  0  0
   14.3370   -7.8834    4.5857 C   0  0  0  0  0  0  0  0  0  0  0  0
   14.4995   -8.9361    3.7838 N   0  0  0  0  0  0  0  0  0  0  0  0
   16.6778   -7.8000    5.5190 N   0  0  0  0  0  0  0  0  0  0  0  0
   17.2718   -6.9703    6.4074 C   0  0  0  0  0  0  0  0  0  0  0  0
   16.3571   -6.0362    6.8274 N   0  0  0  0  0  0  0  0  0  0  0  0
  2  1  1  1  0  0  0
  2  3  1  0  0  0  0
  2  5  1  0  0  0  0
  3  4  1  0  0  0  0
  3 17  1  0  0  0  0
  5  6  1  0  0  0  0
  7  6  1  1  0  0  0
  7  8  1  0  0  0  0
  7  9  1  0  0  0  0
 10  9  1  6  0  0  0
 10 11  1  0  0  0  0
 10 12  1  0  0  0  0
 11 16  1  0  0  0  0
 12 13  1  1  0  0  0
 12 14  1  0  0  0  0
 14 15  1  1  0  0  0
 14 16  1  0  0  0  0
 16 27  1  6  0  0  0
 18 19  2  0  0  0  0
 18 23  1  0  0  0  0
 19 20  1  0  0  0  0
 20 21  2  0  0  0  0
 21 22  1  0  0  0  0
 21 27  1  0  0  0  0
 22 23  2  0  0  0  0
 22 25  1  0  0  0  0
 23 24  1  0  0  0  0
 25 26  2  0  0  0  0
 26 27  1  0  0  0  0
M  END
>  <CHROM.1>
-0.48662124,51.32372073,73.16124559,177.29343112,176.02440651,44.10284007
67.33033616,14.47597989,-6.22657952,8.41803534,2.31539611,1.01686872,1.01364573

>  <Name>
ligand

>  <RI>
0

>  <Rbt.Current_Directory>
/home/itssahil/PROJECTS/Mol_Feturizer/New_Systems/rnas/3GX5

>  <Rbt.Executable>
rbdock ($Id: //depot/dev/client3/rdock/2013.1/src/exe/rbdock.cxx#4 $)

>  <Rbt.Library>
libRbt.so (2013.1, Build901 2013/11/27)

>  <Rbt.Parameter_File>
/export/apps/rDock/src/rDock_2013.1_src/data/scripts/dock_solv.prm

>  <Rbt.Receptor>
prm/pocket_docking_3.prm

>  <SCORE>
-12.6952

>  <SCORE.INTER>
-12.1064

>  <SCORE.INTER.CONST>
1

>  <SCORE.INTER.POLAR>
0

>  <SCORE.INTER.ROT>
7

>  <SCORE.INTER.SOLV>
11.7019

>  <SCORE.INTER.VDW>
-20.2382

>  <SCORE.INTER.norm>
-0.448386

>  <SCORE.INTRA>
-0.663903

>  <SCORE.INTRA.DIHEDRAL>
1.1082

>  <SCORE.INTRA.DIHEDRAL.0>
4.28829

>  <SCORE.INTRA.POLAR>
0

>  <SCORE.INTRA.POLAR.0>
0

>  <SCORE.INTRA.REPUL>
0

>  <SCORE.INTRA.REPUL.0>
0

>  <SCORE.INTRA.SOLV>
0.286892

>  <SCORE.INTRA.SOLV.lig_0>
-48.6018

>  <SCORE.INTRA.VDW>
-1.36145

>  <SCORE.INTRA.VDW.0>
-2.1506

>  <SCORE.INTRA.norm>
-0.024589

>  <SCORE.RESTR>
0.0751516

>  <SCORE.RESTR.CAVITY>
0.0751516

>  <SCORE.RESTR.norm>
0.00278339

>  <SCORE.SYSTEM>
0

>  <SCORE.SYSTEM.CONST>
0

>  <SCORE.SYSTEM.DIHEDRAL>
0

>  <SCORE.SYSTEM.SOLV>
0

>  <SCORE.SYSTEM.norm>
0

>  <SCORE.heavy>
27

>  <SCORE.norm>
-0.470191

>  <RMSD>
5.049

$$$$
ligand
 OpenBabel11021811483D
libRbt.so/2013.1/901 2013/11/27
 27 29  0  0  0  0  0  0  0  0999 V2000
   15.4785   -8.1355    9.5100 N   0  0  0  0  0  0  0  0  0  0  0  0
   14.3215   -8.5117    8.6953 C   0  0  2  0  0  0  0  0  0  0  0  0
   13.3285   -9.4716    9.3552 C   0  0  0  0  0  0  0  0  0  0  0  0
   13.7228  -10.1973   10.2670 O   0  0  0  0  0  0  0  0  0  0  0  0
   14.7602   -9.0447    7.3417 C   0  0  0  0  0  0  0  0  0  0  0  0
   13.6656   -8.8918    6.2997 C   0  0  0  0  0  0  0  0  0  0  0  0
   14.1648   -7.7285    5.0180 S   0  0  2  0  0  0  0  0  0  0  0  0
   15.5610   -8.6257    4.3076 C   0  0  0  0  0  0  0  0  0  0  0  0
   15.0618   -6.5111    6.0090 C   0  0  0  0  0  0  0  0  0  0  0  0
   14.1131   -5.4739    6.5812 C   0  0  1  0  0  0  0  0  0  0  0  0
   13.2561   -6.0577    7.5355 O   0  0  0  0  0  0  0  0  0  0  0  0
   14.8337   -4.3656    7.3234 C   0  0  1  0  0  0  0  0  0  0  0  0
   15.0677   -3.3101    6.4254 O   0  0  0  0  0  0  0  0  0  0  0  0
   13.8462   -3.9581    8.3980 C   0  0  1  0  0  0  0  0  0  0  0  0
   13.1927   -2.7923    7.9485 O   0  0  0  0  0  0  0  0  0  0  0  0
   12.8580   -5.1200    8.5200 C   0  0  2  0  0  0  0  0  0  0  0  0
   12.1467   -9.5562    9.0102 O   0  0  0  0  0  0  0  0  0  0  0  0
   15.5287   -5.2474   13.0221 N   0  0  0  0  0  0  0  0  0  0  0  0
   15.6808   -4.3698   11.9763 C   0  0  0  0  0  0  0  0  0  0  0  0
   14.8767   -4.5002   10.8654 N   0  0  0  0  0  0  0  0  0  0  0  0
   13.9414   -5.4734   10.7895 C   0  0  0  0  0  0  0  0  0  0  0  0
   13.7667   -6.3584   11.8434 C   0  0  0  0  0  0  0  0  0  0  0  0
   14.5792   -6.2458   12.9696 C   0  0  0  0  0  0  0  0  0  0  0  0
   14.4464   -7.0814   14.0000 N   0  0  0  0  0  0  0  0  0  0  0  0
   12.7676   -7.2149   11.5079 N   0  0  0  0  0  0  0  0  0  0  0  0
   12.3098   -6.8716   10.2819 C   0  0  0  0  0  0  0  0  0  0  0  0
   13.0219   -5.7897    9.8256 N   0  0  0  0  0  0  0  0  0  0  0  0
  2  1  1  1  0  0  0
  2  3  1  0  0  0  0
  2  5  1  0  0  0  0
  3  4  1  0  0  0  0
  3 17  1  0  0  0  0
  5  6  1  0  0  0  0
  7  6  1  1  0  0  0
  7  8  1  0  0  0  0
  7  9  1  0  0  0  0
 10  9  1  1  0  0  0
 10 11  1  0  0  0  0
 10 12  1  0  0  0  0
 11 16  1  0  0  0  0
 12 13  1  6  0  0  0
 12 14  1  0  0  0  0
 14 15  1  6  0  0  0
 14 16  1  0  0  0  0
 16 27  1  1  0  0  0
 18 19  2  0  0  0  0
 18 23  1  0  0  0  0
 19 20  1  0  0  0  0
 20 21  2  0  0  0  0
 21 22  1  0  0  0  0
 21 27  1  0  0  0  0
 22 23  2  0  0  0  0
 22 25  1  0  0  0  0
 23 24  1  0  0  0  0
 25 26  2  0  0  0  0
 26 27  1  0  0  0  0
M  END
>  <CHROM.1>
-23.70265472,-156.05914262,114.25136305,64.35770309,-85.92949984,67.45511691
111.70397495,14.08300597,-6.62395593,8.82422075,1.71480528,1.45763554,1.22223513

>  <Name>
ligand

>  <RI>
0

>  <Rbt.Current_Directory>
/home/itssahil/PROJECTS/Mol_Feturizer/New_Systems/rnas/3GX5

>  <Rbt.Executable>
rbdock ($Id: //depot/dev/client3/rdock/2013.1/src/exe/rbdock.cxx#4 $)

>  <Rbt.Library>
libRbt.so (2013.1, Build901 2013/11/27)

>  <Rbt.Parameter_File>
/export/apps/rDock/src/rDock_2013.1_src/data/scripts/dock_solv.prm

>  <Rbt.Receptor>
prm/pocket_docking_2.prm

>  <SCORE>
-7.32248

>  <SCORE.INTER>
-12.7752

>  <SCORE.INTER.CONST>
1

>  <SCORE.INTER.POLAR>
0

>  <SCORE.INTER.ROT>
7

>  <SCORE.INTER.SOLV>
9.83093

>  <SCORE.INTER.VDW>
-20.0604

>  <SCORE.INTER.norm>
-0.473155

>  <SCORE.INTRA>
4.97569

>  <SCORE.INTRA.DIHEDRAL>
7.78175

>  <SCORE.INTRA.DIHEDRAL.0>
4.28829

>  <SCORE.INTRA.POLAR>
0

>  <SCORE.INTRA.POLAR.0>
0

>  <SCORE.INTRA.REPUL>
0

>  <SCORE.INTRA.REPUL.0>
0

>  <SCORE.INTRA.SOLV>
2.63686

>  <SCORE.INTRA.SOLV.lig_0>
-48.6018

>  <SCORE.INTRA.VDW>
-0.233621

>  <SCORE.INTRA.VDW.0>
-2.1506

>  <SCORE.INTRA.norm>
0.184285

>  <SCORE.RESTR>
0.477011

>  <SCORE.RESTR.CAVITY>
0.477011

>  <SCORE.RESTR.norm>
0.0176671

>  <SCORE.SYSTEM>
0

>  <SCORE.SYSTEM.CONST>
0

>  <SCORE.SYSTEM.DIHEDRAL>
0

>  <SCORE.SYSTEM.SOLV>
0

>  <SCORE.SYSTEM.norm>
0

>  <SCORE.heavy>
27

>  <SCORE.norm>
-0.271203

>  <RMSD>
5.052

$$$$
ligand
 OpenBabel11021811483D
libRbt.so/2013.1/901 2013/11/27
 27 29  0  0  0  0  0  0  0  0999 V2000
   14.3862   -8.1637    7.4018 N   0  0  0  0  0  0  0  0  0  0  0  0
   15.0422   -7.8276    8.6669 C   0  0  2  0  0  0  0  0  0  0  0  0
   16.4608   -8.3738    8.8452 C   0  0  0  0  0  0  0  0  0  0  0  0
   17.1154   -8.0146    9.8230 O   0  0  0  0  0  0  0  0  0  0  0  0
   14.1697   -8.2115    9.8502 C   0  0  0  0  0  0  0  0  0  0  0  0
   14.5779   -7.4673   11.1099 C   0  0  0  0  0  0  0  0  0  0  0  0
   13.4635   -6.0870   11.4232 S   0  0  2  0  0  0  0  0  0  0  0  0
   11.8733   -6.9285   11.2743 C   0  0  0  0  0  0  0  0  0  0  0  0
   13.5139   -5.2523    9.8203 C   0  0  0  0  0  0  0  0  0  0  0  0
   14.5983   -4.1909    9.7964 C   0  0  1  0  0  0  0  0  0  0  0  0
   15.8341   -4.7345   10.2008 O   0  0  0  0  0  0  0  0  0  0  0  0
   14.8464   -3.6365    8.4074 C   0  0  1  0  0  0  0  0  0  0  0  0
   14.0514   -2.4898    8.2394 O   0  0  0  0  0  0  0  0  0  0  0  0
   16.3192   -3.2806    8.4254 C   0  0  1  0  0  0  0  0  0  0  0  0
   16.4136   -1.8912    8.6459 O   0  0  0  0  0  0  0  0  0  0  0  0
   16.9226   -4.0572    9.5977 C   0  0  2  0  0  0  0  0  0  0  0  0
   16.9835   -9.1570    8.0476 O   0  0  0  0  0  0  0  0  0  0  0  0
   18.2206   -7.1009    5.5395 N   0  0  0  0  0  0  0  0  0  0  0  0
   17.2281   -6.1529    5.5987 C   0  0  0  0  0  0  0  0  0  0  0  0
   17.0380   -5.4491    6.7676 N   0  0  0  0  0  0  0  0  0  0  0  0
   17.8121   -5.6739    7.8529 C   0  0  0  0  0  0  0  0  0  0  0  0
   18.8273   -6.6181    7.8038 C   0  0  0  0  0  0  0  0  0  0  0  0
   19.0253   -7.3453    6.6320 C   0  0  0  0  0  0  0  0  0  0  0  0
   19.9861   -8.2659    6.5477 N   0  0  0  0  0  0  0  0  0  0  0  0
   19.4440   -6.6313    9.0136 N   0  0  0  0  0  0  0  0  0  0  0  0
   18.8471   -5.7086    9.8029 C   0  0  0  0  0  0  0  0  0  0  0  0
   17.8384   -5.1012    9.0964 N   0  0  0  0  0  0  0  0  0  0  0  0
  2  1  1  6  0  0  0
  2  3  1  0  0  0  0
  2  5  1  0  0  0  0
  3  4  1  0  0  0  0
  3 17  1  0  0  0  0
  5  6  1  0  0  0  0
  7  6  1  6  0  0  0
  7  8  1  0  0  0  0
  7  9  1  0  0  0  0
 10  9  1  6  0  0  0
 10 11  1  0  0  0  0
 10 12  1  0  0  0  0
 11 16  1  0  0  0  0
 12 13  1  1  0  0  0
 12 14  1  0  0  0  0
 14 15  1  1  0  0  0
 14 16  1  0  0  0  0
 16 27  1  6  0  0  0
 18 19  2  0  0  0  0
 18 23  1  0  0  0  0
 19 20  1  0  0  0  0
 20 21  2  0  0  0  0
 21 22  1  0  0  0  0
 21 27  1  0  0  0  0
 22 23  2  0  0  0  0
 22 25  1  0  0  0  0
 23 24  1  0  0  0  0
 25 26  2  0  0  0  0
 26 27  1  0  0  0  0
M  END
>  <CHROM.1>
172.67307757,-160.36511060,101.07004683,49.79433381,-91.62814069,52.38083416
90.31343330,16.13408181,-6.05060049,8.84181590,2.90602005,0.59467475,-0.06315160

>  <Name>
ligand

>  <RI>
0

>  <Rbt.Current_Directory>
/home/itssahil/PROJECTS/Mol_Feturizer/New_Systems/rnas/3GX5

>  <Rbt.Executable>
rbdock ($Id: //depot/dev/client3/rdock/2013.1/src/exe/rbdock.cxx#4 $)

>  <Rbt.Library>
libRbt.so (2013.1, Build901 2013/11/27)

>  <Rbt.Parameter_File>
/export/apps/rDock/src/rDock_2013.1_src/data/scripts/dock_solv.prm

>  <Rbt.Receptor>
prm/pocket_docking_5.prm

>  <SCORE>
-7.31137

>  <SCORE.INTER>
-9.21977

>  <SCORE.INTER.CONST>
1

>  <SCORE.INTER.POLAR>
0

>  <SCORE.INTER.ROT>
7

>  <SCORE.INTER.SOLV>
9.19828

>  <SCORE.INTER.VDW>
-17.4793

>  <SCORE.INTER.norm>
-0.341473

>  <SCORE.INTRA>
1.9084

>  <SCORE.INTRA.DIHEDRAL>
6.13411

>  <SCORE.INTRA.DIHEDRAL.0>
4.28829

>  <SCORE.INTRA.POLAR>
0

>  <SCORE.INTRA.POLAR.0>
0

>  <SCORE.INTRA.REPUL>
0

>  <SCORE.INTRA.REPUL.0>
0

>  <SCORE.INTRA.SOLV>
0.387043

>  <SCORE.INTRA.SOLV.lig_0>
-48.6018

>  <SCORE.INTRA.VDW>
-1.35217

>  <SCORE.INTRA.VDW.0>
-2.1506

>  <SCORE.INTRA.norm>
0.0706815

>  <SCORE.RESTR>
0

>  <SCORE.RESTR.CAVITY>
0

>  <SCORE.RESTR.norm>
0

>  <SCORE.SYSTEM>
0

>  <SCORE.SYSTEM.CONST>
0

>  <SCORE.SYSTEM.DIHEDRAL>
0

>  <SCORE.SYSTEM.SOLV>
0

>  <SCORE.SYSTEM.norm>
0

>  <SCORE.heavy>
27

>  <SCORE.norm>
-0.270792

>  <RMSD>
5.053

$$$$
ligand
 OpenBabel11021811483D
libRbt.so/2013.1/901 2013/11/27
 27 29  0  0  0  0  0  0  0  0999 V2000
   15.6683   -7.3238   11.0646 N   0  0  0  0  0  0  0  0  0  0  0  0
   15.8991   -5.8827   10.9469 C   0  0  2  0  0  0  0  0  0  0  0  0
   14.7953   -4.9850   11.5114 C   0  0  0  0  0  0  0  0  0  0  0  0
   13.6284   -5.3695   11.4476 O   0  0  0  0  0  0  0  0  0  0  0  0
   16.2174   -5.4988    9.5116 C   0  0  0  0  0  0  0  0  0  0  0  0
   16.7274   -4.0712    9.4152 C   0  0  0  0  0  0  0  0  0  0  0  0
   16.7713   -3.5254    7.6989 S   0  0  2  0  0  0  0  0  0  0  0  0
   16.9197   -1.7426    7.9412 C   0  0  0  0  0  0  0  0  0  0  0  0
   15.0165   -3.6270    7.2757 C   0  0  0  0  0  0  0  0  0  0  0  0
   14.7581   -4.7670    6.3080 C   0  0  1  0  0  0  0  0  0  0  0  0
   15.3392   -5.9608    6.7806 O   0  0  0  0  0  0  0  0  0  0  0  0
   13.2832   -5.0809    6.1513 C   0  0  1  0  0  0  0  0  0  0  0  0
   12.7892   -4.3534    5.0551 O   0  0  0  0  0  0  0  0  0  0  0  0
   13.2654   -6.5697    5.8698 C   0  0  1  0  0  0  0  0  0  0  0  0
   13.1175   -6.7327    4.4772 O   0  0  0  0  0  0  0  0  0  0  0  0
   14.6232   -7.0995    6.3359 C   0  0  2  0  0  0  0  0  0  0  0  0
   15.0214   -3.8859   12.0250 O   0  0  0  0  0  0  0  0  0  0  0  0
   12.0509   -7.8430   10.8358 N   0  0  0  0  0  0  0  0  0  0  0  0
   11.8848   -6.8254    9.9281 C   0  0  0  0  0  0  0  0  0  0  0  0
   12.6651   -6.8014    8.7931 N   0  0  0  0  0  0  0  0  0  0  0  0
   13.5868   -7.7620    8.5577 C   0  0  0  0  0  0  0  0  0  0  0  0
   13.7564   -8.8035    9.4583 C   0  0  0  0  0  0  0  0  0  0  0  0
   12.9818   -8.8360   10.6160 C   0  0  0  0  0  0  0  0  0  0  0  0
   13.1199   -9.8167   11.5087 N   0  0  0  0  0  0  0  0  0  0  0  0
   14.7286   -9.6192    8.9750 N   0  0  0  0  0  0  0  0  0  0  0  0
   15.1521   -9.1178    7.7919 C   0  0  0  0  0  0  0  0  0  0  0  0
   14.4496   -7.9708    7.5152 N   0  0  0  0  0  0  0  0  0  0  0  0
  2  1  1  6  0  0  0
  2  3  1  0  0  0  0
  2  5  1  0  0  0  0
  3  4  1  0  0  0  0
  3 17  1  0  0  0  0
  5  6  1  0  0  0  0
  7  6  1  1  0  0  0
  7  8  1  0  0  0  0
  7  9  1  0  0  0  0
 10  9  1  1  0  0  0
 10 11  1  0  0  0  0
 10 12  1  0  0  0  0
 11 16  1  0  0  0  0
 12 13  1  6  0  0  0
 12 14  1  0  0  0  0
 14 15  1  6  0  0  0
 14 16  1  0  0  0  0
 16 27  1  1  0  0  0
 18 19  2  0  0  0  0
 18 23  1  0  0  0  0
 19 20  1  0  0  0  0
 20 21  2  0  0  0  0
 21 22  1  0  0  0  0
 21 27  1  0  0  0  0
 22 23  2  0  0  0  0
 22 25  1  0  0  0  0
 23 24  1  0  0  0  0
 25 26  2  0  0  0  0
 26 27  1  0  0  0  0
M  END
>  <CHROM.1>
-33.04543493,-168.66750073,-168.22067113,164.06791674,-109.77048860,50.44106251
74.17715727,14.50699228,-6.08638711,8.58413933,-2.27141061,-1.02618945,-1.27339662

>  <Name>
ligand

>  <RI>
0

>  <Rbt.Current_Directory>
/home/itssahil/PROJECTS/Mol_Feturizer/New_Systems/rnas/3GX5

>  <Rbt.Executable>
rbdock ($Id: //depot/dev/client3/rdock/2013.1/src/exe/rbdock.cxx#4 $)

>  <Rbt.Library>
libRbt.so (2013.1, Build901 2013/11/27)

>  <Rbt.Parameter_File>
/export/apps/rDock/src/rDock_2013.1_src/data/scripts/dock_solv.prm

>  <Rbt.Receptor>
prm/pocket_docking_2.prm

>  <SCORE>
-12.4265

>  <SCORE.INTER>
-14.0627

>  <SCORE.INTER.CONST>
1

>  <SCORE.INTER.POLAR>
0

>  <SCORE.INTER.ROT>
7

>  <SCORE.INTER.SOLV>
9.05236

>  <SCORE.INTER.VDW>
-20.6593

>  <SCORE.INTER.norm>
-0.520841

>  <SCORE.INTRA>
0.381993

>  <SCORE.INTRA.DIHEDRAL>
3.76245

>  <SCORE.INTRA.DIHEDRAL.0>
4.28829

>  <SCORE.INTRA.POLAR>
0

>  <SCORE.INTRA.POLAR.0>
0

>  <SCORE.INTRA.REPUL>
0

>  <SCORE.INTRA.REPUL.0>
0

>  <SCORE.INTRA.SOLV>
2.80393

>  <SCORE.INTRA.SOLV.lig_0>
-48.6018

>  <SCORE.INTRA.VDW>
-2.9012

>  <SCORE.INTRA.VDW.0>
-2.1506

>  <SCORE.INTRA.norm>
0.0141479

>  <SCORE.RESTR>
1.25423

>  <SCORE.RESTR.CAVITY>
1.25423

>  <SCORE.RESTR.norm>
0.046453

>  <SCORE.SYSTEM>
0

>  <SCORE.SYSTEM.CONST>
0

>  <SCORE.SYSTEM.DIHEDRAL>
0

>  <SCORE.SYSTEM.SOLV>
0

>  <SCORE.SYSTEM.norm>
0

>  <SCORE.heavy>
27

>  <SCORE.norm>
-0.46024

>  <RMSD>
5.060

$$$$
ligand
 OpenBabel11021811483D
libRbt.so/2013.1/901 2013/11/27
 27 29  0  0  0  0  0  0  0  0999 V2000
   12.5298   -9.1247   12.5401 N   0  0  0  0  0  0  0  0  0  0  0  0
   11.8478   -8.2521   11.5824 C   0  0  2  0  0  0  0  0  0  0  0  0
   10.6655   -7.4534   12.1365 C   0  0  0  0  0  0  0  0  0  0  0  0
   10.1059   -7.8540   13.1564 O   0  0  0  0  0  0  0  0  0  0  0  0
   11.4348   -9.0252   10.3412 C   0  0  0  0  0  0  0  0  0  0  0  0
   12.6421   -9.5387    9.5755 C   0  0  0  0  0  0  0  0  0  0  0  0
   13.2304   -8.2987    8.4086 S   0  0  2  0  0  0  0  0  0  0  0  0
   14.8230   -9.0212    7.9606 C   0  0  0  0  0  0  0  0  0  0  0  0
   13.7927   -7.0134    9.5490 C   0  0  0  0  0  0  0  0  0  0  0  0
   14.4358   -5.8641    8.7949 C   0  0  1  0  0  0  0  0  0  0  0  0
   15.6805   -6.2548    8.2617 O   0  0  0  0  0  0  0  0  0  0  0  0
   13.6178   -5.4156    7.5999 C   0  0  1  0  0  0  0  0  0  0  0  0
   12.7772   -4.3655    8.0072 O   0  0  0  0  0  0  0  0  0  0  0  0
   14.6631   -4.9270    6.6177 C   0  0  1  0  0  0  0  0  0  0  0  0
   14.7028   -3.5207    6.7105 O   0  0  0  0  0  0  0  0  0  0  0  0
   15.9881   -5.5378    7.0792 C   0  0  2  0  0  0  0  0  0  0  0  0
   10.2415   -6.4247   11.6028 O   0  0  0  0  0  0  0  0  0  0  0  0
   14.5801   -9.0500    3.4597 N   0  0  0  0  0  0  0  0  0  0  0  0
   13.7643   -8.2314    4.2023 C   0  0  0  0  0  0  0  0  0  0  0  0
   14.3282   -7.3669    5.1147 N   0  0  0  0  0  0  0  0  0  0  0  0
   15.6676   -7.3096    5.2882 C   0  0  0  0  0  0  0  0  0  0  0  0
   16.5052   -8.1200    4.5358 C   0  0  0  0  0  0  0  0  0  0  0  0
   15.9493   -9.0070    3.6162 C   0  0  0  0  0  0  0  0  0  0  0  0
   16.7205   -9.8068    2.8792 N   0  0  0  0  0  0  0  0  0  0  0  0
   17.7850   -7.8533    4.9034 N   0  0  0  0  0  0  0  0  0  0  0  0
   17.7606   -6.8879    5.8510 C   0  0  0  0  0  0  0  0  0  0  0  0
   16.4564   -6.5347    6.0959 N   0  0  0  0  0  0  0  0  0  0  0  0
  2  1  1  1  0  0  0
  2  3  1  0  0  0  0
  2  5  1  0  0  0  0
  3  4  1  0  0  0  0
  3 17  1  0  0  0  0
  5  6  1  0  0  0  0
  7  6  1  1  0  0  0
  7  8  1  0  0  0  0
  7  9  1  0  0  0  0
 10  9  1  6  0  0  0
 10 11  1  0  0  0  0
 10 12  1  0  0  0  0
 11 16  1  0  0  0  0
 12 13  1  1  0  0  0
 12 14  1  0  0  0  0
 14 15  1  1  0  0  0
 14 16  1  0  0  0  0
 16 27  1  6  0  0  0
 18 19  2  0  0  0  0
 18 23  1  0  0  0  0
 19 20  1  0  0  0  0
 20 21  2  0  0  0  0
 21 22  1  0  0  0  0
 21 27  1  0  0  0  0
 22 23  2  0  0  0  0
 22 25  1  0  0  0  0
 23 24  1  0  0  0  0
 25 26  2  0  0  0  0
 26 27  1  0  0  0  0
M  END
>  <CHROM.1>
-21.75170157,-64.53051309,-87.37634197,167.72006580,176.15796774,-70.86074629
83.55794095,14.06804009,-7.34413483,7.75414175,2.94182002,0.95512434,0.24733579

>  <Name>
ligand

>  <RI>
0

>  <Rbt.Current_Directory>
/home/itssahil/PROJECTS/Mol_Feturizer/New_Systems/rnas/3GX5

>  <Rbt.Executable>
rbdock ($Id: //depot/dev/client3/rdock/2013.1/src/exe/rbdock.cxx#4 $)

>  <Rbt.Library>
libRbt.so (2013.1, Build901 2013/11/27)

>  <Rbt.Parameter_File>
/export/apps/rDock/src/rDock_2013.1_src/data/scripts/dock_solv.prm

>  <Rbt.Receptor>
prm/pocket_docking_5.prm

>  <SCORE>
-11.9449

>  <SCORE.INTER>
-12.7954

>  <SCORE.INTER.CONST>
1

>  <SCORE.INTER.POLAR>
0

>  <SCORE.INTER.ROT>
7

>  <SCORE.INTER.SOLV>
11.3864

>  <SCORE.INTER.VDW>
-20.5924

>  <SCORE.INTER.norm>
-0.473904

>  <SCORE.INTRA>
0.850479

>  <SCORE.INTRA.DIHEDRAL>
2.07513

>  <SCORE.INTRA.DIHEDRAL.0>
4.28829

>  <SCORE.INTRA.POLAR>
0

>  <SCORE.INTRA.POLAR.0>
0

>  <SCORE.INTRA.REPUL>
0

>  <SCORE.INTRA.REPUL.0>
0

>  <SCORE.INTRA.SOLV>
0.620773

>  <SCORE.INTRA.SOLV.lig_0>
-48.6018

>  <SCORE.INTRA.VDW>
-0.497471

>  <SCORE.INTRA.VDW.0>
-2.1506

>  <SCORE.INTRA.norm>
0.0314992

>  <SCORE.RESTR>
0

>  <SCORE.RESTR.CAVITY>
0

>  <SCORE.RESTR.norm>
0

>  <SCORE.SYSTEM>
0

>  <SCORE.SYSTEM.CONST>
0

>  <SCORE.SYSTEM.DIHEDRAL>
0

>  <SCORE.SYSTEM.SOLV>
0

>  <SCORE.SYSTEM.norm>
0

>  <SCORE.heavy>
27

>  <SCORE.norm>
-0.442405

>  <RMSD>
5.061

$$$$
ligand
 OpenBabel11021811483D
libRbt.so/2013.1/901 2013/11/27
 27 29  0  0  0  0  0  0  0  0999 V2000
   11.9839   -8.7339   12.5339 N   0  0  0  0  0  0  0  0  0  0  0  0
   13.3618   -9.1066   12.8598 C   0  0  2  0  0  0  0  0  0  0  0  0
   13.6970   -9.1717   14.3519 C   0  0  0  0  0  0  0  0  0  0  0  0
   13.1204   -8.4055   15.1226 O   0  0  0  0  0  0  0  0  0  0  0  0
   14.3529   -8.2168   12.1284 C   0  0  0  0  0  0  0  0  0  0  0  0
   14.3415   -6.8000   12.6761 C   0  0  0  0  0  0  0  0  0  0  0  0
   15.5063   -5.7606   11.7772 S   0  0  2  0  0  0  0  0  0  0  0  0
   15.5482   -4.3222   12.8673 C   0  0  0  0  0  0  0  0  0  0  0  0
   14.4343   -5.1177   10.4710 C   0  0  0  0  0  0  0  0  0  0  0  0
   15.1528   -4.0614    9.6518 C   0  0  1  0  0  0  0  0  0  0  0  0
   16.4582   -4.4847    9.3312 O   0  0  0  0  0  0  0  0  0  0  0  0
   14.4840   -3.7985    8.3170 C   0  0  1  0  0  0  0  0  0  0  0  0
   13.5877   -2.7274    8.4736 O   0  0  0  0  0  0  0  0  0  0  0  0
   15.6373   -3.4160    7.4117 C   0  0  1  0  0  0  0  0  0  0  0  0
   15.6495   -2.0092    7.3175 O   0  0  0  0  0  0  0  0  0  0  0  0
   16.9017   -3.9230    8.1085 C   0  0  2  0  0  0  0  0  0  0  0  0
   14.5265   -9.9565   14.8196 O   0  0  0  0  0  0  0  0  0  0  0  0
   20.3430   -7.8695    8.1311 N   0  0  0  0  0  0  0  0  0  0  0  0
   20.0371   -7.0119    9.1597 C   0  0  0  0  0  0  0  0  0  0  0  0
   19.0960   -6.0264    8.9575 N   0  0  0  0  0  0  0  0  0  0  0  0
   18.4687   -5.8922    7.7676 C   0  0  0  0  0  0  0  0  0  0  0  0
   18.7569   -6.7594    6.7238 C   0  0  0  0  0  0  0  0  0  0  0  0
   19.7139   -7.7548    6.9096 C   0  0  0  0  0  0  0  0  0  0  0  0
   20.0233   -8.6033    5.9287 N   0  0  0  0  0  0  0  0  0  0  0  0
   17.9859   -6.4067    5.6630 N   0  0  0  0  0  0  0  0  0  0  0  0
   17.2175   -5.3551    6.0295 C   0  0  0  0  0  0  0  0  0  0  0  0
   17.4992   -5.0284    7.3331 N   0  0  0  0  0  0  0  0  0  0  0  0
  2  1  1  1  0  0  0
  2  3  1  0  0  0  0
  2  5  1  0  0  0  0
  3  4  1  0  0  0  0
  3 17  1  0  0  0  0
  5  6  1  0  0  0  0
  7  6  1  1  0  0  0
  7  8  1  0  0  0  0
  7  9  1  0  0  0  0
 10  9  1  6  0  0  0
 10 11  1  0  0  0  0
 10 12  1  0  0  0  0
 11 16  1  0  0  0  0
 12 13  1  1  0  0  0
 12 14  1  0  0  0  0
 14 15  1  1  0  0  0
 14 16  1  0  0  0  0
 16 27  1  6  0  0  0
 18 19  2  0  0  0  0
 18 23  1  0  0  0  0
 19 20  1  0  0  0  0
 20 21  2  0  0  0  0
 21 22  1  0  0  0  0
 21 27  1  0  0  0  0
 22 23  2  0  0  0  0
 22 25  1  0  0  0  0
 23 24  1  0  0  0  0
 25 26  2  0  0  0  0
 26 27  1  0  0  0  0
M  END
>  <CHROM.1>
-32.07340259,70.09688430,-179.17197047,-167.48926488,173.18826844,45.07926492
-52.54765942,16.10341178,-6.12563478,9.84213072,-2.32779900,0.68332729,-0.67183623

>  <Name>
ligand

>  <RI>
0

>  <Rbt.Current_Directory>
/home/itssahil/PROJECTS/Mol_Feturizer/New_Systems/rnas/3GX5

>  <Rbt.Executable>
rbdock ($Id: //depot/dev/client3/rdock/2013.1/src/exe/rbdock.cxx#4 $)

>  <Rbt.Library>
libRbt.so (2013.1, Build901 2013/11/27)

>  <Rbt.Parameter_File>
/export/apps/rDock/src/rDock_2013.1_src/data/scripts/dock_solv.prm

>  <Rbt.Receptor>
prm/pocket_docking_7.prm

>  <SCORE>
-9.96178

>  <SCORE.INTER>
-10.7672

>  <SCORE.INTER.CONST>
1

>  <SCORE.INTER.POLAR>
0

>  <SCORE.INTER.ROT>
7

>  <SCORE.INTER.SOLV>
8.87273

>  <SCORE.INTER.VDW>
-18.4024

>  <SCORE.INTER.norm>
-0.398785

>  <SCORE.INTRA>
0.805407

>  <SCORE.INTRA.DIHEDRAL>
1.43315

>  <SCORE.INTRA.DIHEDRAL.0>
4.28829

>  <SCORE.INTRA.POLAR>
0

>  <SCORE.INTRA.POLAR.0>
0

>  <SCORE.INTRA.REPUL>
0

>  <SCORE.INTRA.REPUL.0>
0

>  <SCORE.INTRA.SOLV>
-0.630555

>  <SCORE.INTRA.SOLV.lig_0>
-48.6018

>  <SCORE.INTRA.VDW>
0.404108

>  <SCORE.INTRA.VDW.0>
-2.1506

>  <SCORE.INTRA.norm>
0.0298299

>  <SCORE.RESTR>
0

>  <SCORE.RESTR.CAVITY>
0

>  <SCORE.RESTR.norm>
0

>  <SCORE.SYSTEM>
0

>  <SCORE.SYSTEM.CONST>
0

>  <SCORE.SYSTEM.DIHEDRAL>
0

>  <SCORE.SYSTEM.SOLV>
0

>  <SCORE.SYSTEM.norm>
0

>  <SCORE.heavy>
27

>  <SCORE.norm>
-0.368955

>  <RMSD>
5.062

$$$$
ligand
 OpenBabel11021811483D
libRbt.so/2013.1/901 2013/11/27
 27 29  0  0  0  0  0  0  0  0999 V2000
   12.6217   -8.9911   13.5513 N   0  0  0  0  0  0  0  0  0  0  0  0
   13.5125   -8.2330   14.4319 C   0  0  2  0  0  0  0  0  0  0  0  0
   12.8240   -7.2846   15.4163 C   0  0  0  0  0  0  0  0  0  0  0  0
   13.5142   -6.6715   16.2296 O   0  0  0  0  0  0  0  0  0  0  0  0
   14.5699   -7.4937   13.6293 C   0  0  0  0  0  0  0  0  0  0  0  0
   13.9444   -6.5800   12.5894 C   0  0  0  0  0  0  0  0  0  0  0  0
   15.2165   -5.7938   11.5851 S   0  0  2  0  0  0  0  0  0  0  0  0
   15.5820   -4.3552   12.6127 C   0  0  0  0  0  0  0  0  0  0  0  0
   14.1959   -5.0068   10.3171 C   0  0  0  0  0  0  0  0  0  0  0  0
   15.0215   -4.0548    9.4714 C   0  0  1  0  0  0  0  0  0  0  0  0
   16.1760   -4.6987    8.9827 O   0  0  0  0  0  0  0  0  0  0  0  0
   14.2836   -3.5763    8.2366 C   0  0  1  0  0  0  0  0  0  0  0  0
   13.6400   -2.3660    8.5461 O   0  0  0  0  0  0  0  0  0  0  0  0
   15.3898   -3.3617    7.2234 C   0  0  1  0  0  0  0  0  0  0  0  0
   15.6721   -1.9806    7.1951 O   0  0  0  0  0  0  0  0  0  0  0  0
   16.5931   -4.1499    7.7450 C   0  0  2  0  0  0  0  0  0  0  0  0
   11.6026   -7.1093   15.4365 O   0  0  0  0  0  0  0  0  0  0  0  0
   14.5472   -7.7970    4.5937 N   0  0  0  0  0  0  0  0  0  0  0  0
   13.8850   -6.8085    5.2803 C   0  0  0  0  0  0  0  0  0  0  0  0
   14.6051   -5.9369    6.0674 N   0  0  0  0  0  0  0  0  0  0  0  0
   15.9492   -6.0368    6.1721 C   0  0  0  0  0  0  0  0  0  0  0  0
   16.6333   -7.0211    5.4737 C   0  0  0  0  0  0  0  0  0  0  0  0
   15.9179   -7.9167    4.6816 C   0  0  0  0  0  0  0  0  0  0  0  0
   16.5385   -8.8803    4.0005 N   0  0  0  0  0  0  0  0  0  0  0  0
   17.9559   -6.8872    5.7513 N   0  0  0  0  0  0  0  0  0  0  0  0
   18.1080   -5.8360    6.5895 C   0  0  0  0  0  0  0  0  0  0  0  0
   16.8747   -5.2934    6.8544 N   0  0  0  0  0  0  0  0  0  0  0  0
  2  1  1  6  0  0  0
  2  3  1  0  0  0  0
  2  5  1  0  0  0  0
  3  4  1  0  0  0  0
  3 17  1  0  0  0  0
  5  6  1  0  0  0  0
  7  6  1  1  0  0  0
  7  8  1  0  0  0  0
  7  9  1  0  0  0  0
 10  9  1  6  0  0  0
 10 11  1  0  0  0  0
 10 12  1  0  0  0  0
 11 16  1  0  0  0  0
 12 13  1  1  0  0  0
 12 14  1  0  0  0  0
 14 15  1  1  0  0  0
 14 16  1  0  0  0  0
 16 27  1  6  0  0  0
 18 19  2  0  0  0  0
 18 23  1  0  0  0  0
 19 20  1  0  0  0  0
 20 21  2  0  0  0  0
 21 22  1  0  0  0  0
 21 27  1  0  0  0  0
 22 23  2  0  0  0  0
 22 25  1  0  0  0  0
 23 24  1  0  0  0  0
 25 26  2  0  0  0  0
 26 27  1  0  0  0  0
M  END
>  <CHROM.1>
176.28859592,56.26038827,-176.50374958,-86.57525359,169.65173386,51.54245416
79.44269164,14.98597380,-5.87382309,9.43868899,2.95119279,1.26969110,0.30305053

>  <Name>
ligand

>  <RI>
0

>  <Rbt.Current_Directory>
/home/itssahil/PROJECTS/Mol_Feturizer/New_Systems/rnas/3GX5

>  <Rbt.Executable>
rbdock ($Id: //depot/dev/client3/rdock/2013.1/src/exe/rbdock.cxx#4 $)

>  <Rbt.Library>
libRbt.so (2013.1, Build901 2013/11/27)

>  <Rbt.Parameter_File>
/export/apps/rDock/src/rDock_2013.1_src/data/scripts/dock_solv.prm

>  <Rbt.Receptor>
prm/pocket_docking_7.prm

>  <SCORE>
-13.3096

>  <SCORE.INTER>
-13.4254

>  <SCORE.INTER.CONST>
1

>  <SCORE.INTER.POLAR>
0

>  <SCORE.INTER.ROT>
7

>  <SCORE.INTER.SOLV>
12.1595

>  <SCORE.INTER.VDW>
-21.2701

>  <SCORE.INTER.norm>
-0.497237

>  <SCORE.INTRA>
0.11583

>  <SCORE.INTRA.DIHEDRAL>
0.306135

>  <SCORE.INTRA.DIHEDRAL.0>
4.28829

>  <SCORE.INTRA.POLAR>
0

>  <SCORE.INTRA.POLAR.0>
0

>  <SCORE.INTRA.REPUL>
0

>  <SCORE.INTRA.REPUL.0>
0

>  <SCORE.INTRA.SOLV>
-0.494686

>  <SCORE.INTRA.SOLV.lig_0>
-48.6018

>  <SCORE.INTRA.VDW>
0.210106

>  <SCORE.INTRA.VDW.0>
-2.1506

>  <SCORE.INTRA.norm>
0.00429002

>  <SCORE.RESTR>
0

>  <SCORE.RESTR.CAVITY>
0

>  <SCORE.RESTR.norm>
0

>  <SCORE.SYSTEM>
0

>  <SCORE.SYSTEM.CONST>
0

>  <SCORE.SYSTEM.DIHEDRAL>
0

>  <SCORE.SYSTEM.SOLV>
0

>  <SCORE.SYSTEM.norm>
0

>  <SCORE.heavy>
27

>  <SCORE.norm>
-0.492947

>  <RMSD>
5.065

$$$$
ligand
 OpenBabel11021811483D
libRbt.so/2013.1/901 2013/11/27
 27 29  0  0  0  0  0  0  0  0999 V2000
   15.1720   -9.6732    8.9951 N   0  0  0  0  0  0  0  0  0  0  0  0
   14.6730  -10.1161   10.2985 C   0  0  2  0  0  0  0  0  0  0  0  0
   13.1643  -10.3596   10.3844 C   0  0  0  0  0  0  0  0  0  0  0  0
   12.7303  -11.0772   11.2845 O   0  0  0  0  0  0  0  0  0  0  0  0
   15.1254   -9.1746   11.4020 C   0  0  0  0  0  0  0  0  0  0  0  0
   14.4594   -7.8145   11.2838 C   0  0  0  0  0  0  0  0  0  0  0  0
   15.0274   -6.9537    9.8067 S   0  0  2  0  0  0  0  0  0  0  0  0
   16.7590   -6.6904   10.2444 C   0  0  0  0  0  0  0  0  0  0  0  0
   14.3812   -5.2951   10.1227 C   0  0  0  0  0  0  0  0  0  0  0  0
   14.5301   -4.4133    8.8966 C   0  0  1  0  0  0  0  0  0  0  0  0
   15.7769   -4.6313    8.2768 O   0  0  0  0  0  0  0  0  0  0  0  0
   13.4992   -4.7164    7.8271 C   0  0  1  0  0  0  0  0  0  0  0  0
   12.4002   -3.8611    8.0159 O   0  0  0  0  0  0  0  0  0  0  0  0
   14.2236   -4.3959    6.5354 C   0  0  1  0  0  0  0  0  0  0  0  0
   13.8018   -3.1151    6.1232 O   0  0  0  0  0  0  0  0  0  0  0  0
   15.7139   -4.3896    6.8822 C   0  0  2  0  0  0  0  0  0  0  0  0
   12.3595   -9.8722    9.5860 O   0  0  0  0  0  0  0  0  0  0  0  0
   15.1505   -9.1816    4.8480 N   0  0  0  0  0  0  0  0  0  0  0  0
   14.1768   -8.3721    5.3808 C   0  0  0  0  0  0  0  0  0  0  0  0
   14.5255   -7.1334    5.8726 N   0  0  0  0  0  0  0  0  0  0  0  0
   15.8062   -6.7020    5.8365 C   0  0  0  0  0  0  0  0  0  0  0  0
   16.7981   -7.5025    5.2888 C   0  0  0  0  0  0  0  0  0  0  0  0
   16.4628   -8.7621    4.7967 C   0  0  0  0  0  0  0  0  0  0  0  0
   17.3887   -9.5632    4.2689 N   0  0  0  0  0  0  0  0  0  0  0  0
   17.9733   -6.8272    5.3729 N   0  0  0  0  0  0  0  0  0  0  0  0
   17.7303   -5.6244    5.9430 C   0  0  0  0  0  0  0  0  0  0  0  0
   16.3909   -5.5281    6.2298 N   0  0  0  0  0  0  0  0  0  0  0  0
  2  1  1  6  0  0  0
  2  3  1  0  0  0  0
  2  5  1  0  0  0  0
  3  4  1  0  0  0  0
  3 17  1  0  0  0  0
  5  6  1  0  0  0  0
  7  6  1  1  0  0  0
  7  8  1  0  0  0  0
  7  9  1  0  0  0  0
 10  9  1  1  0  0  0
 10 11  1  0  0  0  0
 10 12  1  0  0  0  0
 11 16  1  0  0  0  0
 12 13  1  1  0  0  0
 12 14  1  0  0  0  0
 14 15  1  1  0  0  0
 14 16  1  0  0  0  0
 16 27  1  6  0  0  0
 18 19  2  0  0  0  0
 18 23  1  0  0  0  0
 19 20  1  0  0  0  0
 20 21  2  0  0  0  0
 21 22  1  0  0  0  0
 21 27  1  0  0  0  0
 22 23  2  0  0  0  0
 22 25  1  0  0  0  0
 23 24  1  0  0  0  0
 25 26  2  0  0  0  0
 26 27  1  0  0  0  0
M  END
>  <CHROM.1>
159.37017871,68.22056787,-67.31658468,-66.31584813,-170.50728036,-40.92084593
89.10373239,14.99324608,-7.07358698,7.93625818,-2.28050913,1.10384852,-0.23623168

>  <Name>
ligand

>  <RI>
0

>  <Rbt.Current_Directory>
/home/itssahil/PROJECTS/Mol_Feturizer/New_Systems/rnas/3GX5

>  <Rbt.Executable>
rbdock ($Id: //depot/dev/client3/rdock/2013.1/src/exe/rbdock.cxx#4 $)

>  <Rbt.Library>
libRbt.so (2013.1, Build901 2013/11/27)

>  <Rbt.Parameter_File>
/export/apps/rDock/src/rDock_2013.1_src/data/scripts/dock_solv.prm

>  <Rbt.Receptor>
prm/pocket_docking_7.prm

>  <SCORE>
-7.56028

>  <SCORE.INTER>
-9.25961

>  <SCORE.INTER.CONST>
1

>  <SCORE.INTER.POLAR>
0

>  <SCORE.INTER.ROT>
7

>  <SCORE.INTER.SOLV>
14.1928

>  <SCORE.INTER.VDW>
-19.1707

>  <SCORE.INTER.norm>
-0.342948

>  <SCORE.INTRA>
1.69933

>  <SCORE.INTRA.DIHEDRAL>
1.67499

>  <SCORE.INTRA.DIHEDRAL.0>
4.28829

>  <SCORE.INTRA.POLAR>
0

>  <SCORE.INTRA.POLAR.0>
0

>  <SCORE.INTRA.REPUL>
0

>  <SCORE.INTRA.REPUL.0>
0

>  <SCORE.INTRA.SOLV>
1.84939

>  <SCORE.INTRA.SOLV.lig_0>
-48.6018

>  <SCORE.INTRA.VDW>
-0.0628609

>  <SCORE.INTRA.VDW.0>
-2.1506

>  <SCORE.INTRA.norm>
0.0629381

>  <SCORE.RESTR>
0

>  <SCORE.RESTR.CAVITY>
0

>  <SCORE.RESTR.norm>
0

>  <SCORE.SYSTEM>
0

>  <SCORE.SYSTEM.CONST>
0

>  <SCORE.SYSTEM.DIHEDRAL>
0

>  <SCORE.SYSTEM.SOLV>
0

>  <SCORE.SYSTEM.norm>
0

>  <SCORE.heavy>
27

>  <SCORE.norm>
-0.28001

>  <RMSD>
5.071

$$$$
ligand
 OpenBabel11021811483D
libRbt.so/2013.1/901 2013/11/27
 27 29  0  0  0  0  0  0  0  0999 V2000
   12.6256   -9.5195   12.8346 N   0  0  0  0  0  0  0  0  0  0  0  0
   12.9385   -8.3839   11.9650 C   0  0  2  0  0  0  0  0  0  0  0  0
   14.1704   -8.5507   11.0720 C   0  0  0  0  0  0  0  0  0  0  0  0
   15.2364   -8.8823   11.5891 O   0  0  0  0  0  0  0  0  0  0  0  0
   13.0299   -7.0955   12.7654 C   0  0  0  0  0  0  0  0  0  0  0  0
   13.0769   -5.8772   11.8593 C   0  0  0  0  0  0  0  0  0  0  0  0
   14.7513   -5.5960   11.2570 S   0  0  2  0  0  0  0  0  0  0  0  0
   15.4218   -4.6378   12.6322 C   0  0  0  0  0  0  0  0  0  0  0  0
   14.4563   -4.2604   10.0747 C   0  0  0  0  0  0  0  0  0  0  0  0
   15.7596   -3.7827    9.4614 C   0  0  1  0  0  0  0  0  0  0  0  0
   16.5264   -4.8758    9.0105 O   0  0  0  0  0  0  0  0  0  0  0  0
   15.5484   -2.9162    8.2354 C   0  0  1  0  0  0  0  0  0  0  0  0
   15.5224   -1.5713    8.6423 O   0  0  0  0  0  0  0  0  0  0  0  0
   16.7679   -3.2041    7.3833 C   0  0  1  0  0  0  0  0  0  0  0  0
   17.6770   -2.1442    7.5782 O   0  0  0  0  0  0  0  0  0  0  0  0
   17.3466   -4.5182    7.9122 C   0  0  2  0  0  0  0  0  0  0  0  0
   14.1459   -8.3620    9.8528 O   0  0  0  0  0  0  0  0  0  0  0  0
   13.9563   -7.3114    5.0623 N   0  0  0  0  0  0  0  0  0  0  0  0
   13.6793   -6.2977    5.9471 C   0  0  0  0  0  0  0  0  0  0  0  0
   14.7172   -5.6792    6.6089 N   0  0  0  0  0  0  0  0  0  0  0  0
   16.0001   -6.0508    6.3999 C   0  0  0  0  0  0  0  0  0  0  0  0
   16.2964   -7.0634    5.4990 C   0  0  0  0  0  0  0  0  0  0  0  0
   15.2568   -7.7056    4.8296 C   0  0  0  0  0  0  0  0  0  0  0  0
   15.5006   -8.6875    3.9613 N   0  0  0  0  0  0  0  0  0  0  0  0
   17.6449   -7.2228    5.4789 N   0  0  0  0  0  0  0  0  0  0  0  0
   18.1899   -6.3243    6.3311 C   0  0  0  0  0  0  0  0  0  0  0  0
   17.1847   -5.5853    6.9047 N   0  0  0  0  0  0  0  0  0  0  0  0
  2  1  1  1  0  0  0
  2  3  1  0  0  0  0
  2  5  1  0  0  0  0
  3  4  1  0  0  0  0
  3 17  1  0  0  0  0
  5  6  1  0  0  0  0
  7  6  1  1  0  0  0
  7  8  1  0  0  0  0
  7  9  1  0  0  0  0
 10  9  1  6  0  0  0
 10 11  1  0  0  0  0
 10 12  1  0  0  0  0
 11 16  1  0  0  0  0
 12 13  1  1  0  0  0
 12 14  1  0  0  0  0
 14 15  1  1  0  0  0
 14 16  1  0  0  0  0
 16 27  1  6  0  0  0
 18 19  2  0  0  0  0
 18 23  1  0  0  0  0
 19 20  1  0  0  0  0
 20 21  2  0  0  0  0
 21 22  1  0  0  0  0
 21 27  1  0  0  0  0
 22 23  2  0  0  0  0
 22 25  1  0  0  0  0
 23 24  1  0  0  0  0
 25 26  2  0  0  0  0
 26 27  1  0  0  0  0
M  END
>  <CHROM.1>
-52.33424418,-168.64941758,-82.21748381,-85.11795154,177.17706301,48.59397308
52.68054081,15.28585536,-5.94779692,8.76891062,2.60662204,1.10856834,0.86149188

>  <Name>
ligand

>  <RI>
0

>  <Rbt.Current_Directory>
/home/itssahil/PROJECTS/Mol_Feturizer/New_Systems/rnas/3GX5

>  <Rbt.Executable>
rbdock ($Id: //depot/dev/client3/rdock/2013.1/src/exe/rbdock.cxx#4 $)

>  <Rbt.Library>
libRbt.so (2013.1, Build901 2013/11/27)

>  <Rbt.Parameter_File>
/export/apps/rDock/src/rDock_2013.1_src/data/scripts/dock_solv.prm

>  <Rbt.Receptor>
prm/pocket_docking_4.prm

>  <SCORE>
-11.4751

>  <SCORE.INTER>
-10.9673

>  <SCORE.INTER.CONST>
1

>  <SCORE.INTER.POLAR>
0

>  <SCORE.INTER.ROT>
7

>  <SCORE.INTER.SOLV>
12.3084

>  <SCORE.INTER.VDW>
-19.681

>  <SCORE.INTER.norm>
-0.406198

>  <SCORE.INTRA>
-0.507706

>  <SCORE.INTRA.DIHEDRAL>
2.51693

>  <SCORE.INTRA.DIHEDRAL.0>
4.28829

>  <SCORE.INTRA.POLAR>
0

>  <SCORE.INTRA.POLAR.0>
0

>  <SCORE.INTRA.REPUL>
0

>  <SCORE.INTRA.REPUL.0>
0

>  <SCORE.INTRA.SOLV>
-1.08046

>  <SCORE.INTRA.SOLV.lig_0>
-48.6018

>  <SCORE.INTRA.VDW>
-1.22594

>  <SCORE.INTRA.VDW.0>
-2.1506

>  <SCORE.INTRA.norm>
-0.0188039

>  <SCORE.RESTR>
0

>  <SCORE.RESTR.CAVITY>
0

>  <SCORE.RESTR.norm>
0

>  <SCORE.SYSTEM>
0

>  <SCORE.SYSTEM.CONST>
0

>  <SCORE.SYSTEM.DIHEDRAL>
0

>  <SCORE.SYSTEM.SOLV>
0

>  <SCORE.SYSTEM.norm>
0

>  <SCORE.heavy>
27

>  <SCORE.norm>
-0.425002

>  <RMSD>
5.080

$$$$
ligand
 OpenBabel11021811483D
libRbt.so/2013.1/901 2013/11/27
 27 29  0  0  0  0  0  0  0  0999 V2000
   14.2981   -8.3175    8.9256 N   0  0  0  0  0  0  0  0  0  0  0  0
   13.2931   -8.4472    9.9826 C   0  0  2  0  0  0  0  0  0  0  0  0
   12.3601   -9.6551    9.8674 C   0  0  0  0  0  0  0  0  0  0  0  0
   12.1633  -10.3488   10.8642 O   0  0  0  0  0  0  0  0  0  0  0  0
   12.4909   -7.1651   10.1299 C   0  0  0  0  0  0  0  0  0  0  0  0
   13.1949   -6.1662   11.0321 C   0  0  0  0  0  0  0  0  0  0  0  0
   14.7024   -5.5589   10.2552 S   0  0  2  0  0  0  0  0  0  0  0  0
   15.7574   -5.3879   11.7102 C   0  0  0  0  0  0  0  0  0  0  0  0
   14.2638   -3.8243    9.9955 C   0  0  0  0  0  0  0  0  0  0  0  0
   14.1822   -3.5023    8.5148 C   0  0  1  0  0  0  0  0  0  0  0  0
   15.3774   -3.8642    7.8614 O   0  0  0  0  0  0  0  0  0  0  0  0
   13.0925   -4.2806    7.8041 C   0  0  1  0  0  0  0  0  0  0  0  0
   11.9239   -3.5000    7.7957 O   0  0  0  0  0  0  0  0  0  0  0  0
   13.6397   -4.4574    6.4022 C   0  0  1  0  0  0  0  0  0  0  0  0
   13.0288   -3.4833    5.5862 O   0  0  0  0  0  0  0  0  0  0  0  0
   15.1460   -4.2089    6.5069 C   0  0  2  0  0  0  0  0  0  0  0  0
   11.7977   -9.9706    8.8153 O   0  0  0  0  0  0  0  0  0  0  0  0
   14.9588   -9.0203    4.4494 N   0  0  0  0  0  0  0  0  0  0  0  0
   13.9740   -8.0626    4.4448 C   0  0  0  0  0  0  0  0  0  0  0  0
   14.2146   -6.8463    5.0451 N   0  0  0  0  0  0  0  0  0  0  0  0
   15.4018   -6.5801    5.6344 C   0  0  0  0  0  0  0  0  0  0  0  0
   16.4108   -7.5322    5.6349 C   0  0  0  0  0  0  0  0  0  0  0  0
   16.1790   -8.7709    5.0407 C   0  0  0  0  0  0  0  0  0  0  0  0
   17.1213   -9.7142    5.0266 N   0  0  0  0  0  0  0  0  0  0  0  0
   17.4834   -7.0034    6.2785 N   0  0  0  0  0  0  0  0  0  0  0  0
   17.1689   -5.7442    6.6607 C   0  0  0  0  0  0  0  0  0  0  0  0
   15.8849   -5.4637    6.2630 N   0  0  0  0  0  0  0  0  0  0  0  0
  2  1  1  6  0  0  0
  2  3  1  0  0  0  0
  2  5  1  0  0  0  0
  3  4  1  0  0  0  0
  3 17  1  0  0  0  0
  5  6  1  0  0  0  0
  7  6  1  1  0  0  0
  7  8  1  0  0  0  0
  7  9  1  0  0  0  0
 10  9  1  1  0  0  0
 10 11  1  0  0  0  0
 10 12  1  0  0  0  0
 11 16  1  0  0  0  0
 12 13  1  6  0  0  0
 12 14  1  0  0  0  0
 14 15  1  6  0  0  0
 14 16  1  0  0  0  0
 16 27  1  1  0  0  0
 18 19  2  0  0  0  0
 18 23  1  0  0  0  0
 19 20  1  0  0  0  0
 20 21  2  0  0  0  0
 21 22  1  0  0  0  0
 21 27  1  0  0  0  0
 22 23  2  0  0  0  0
 22 25  1  0  0  0  0
 23 24  1  0  0  0  0
 25 26  2  0  0  0  0
 26 27  1  0  0  0  0
M  END
>  <CHROM.1>
132.71693884,-84.77492820,67.76701473,-144.55227409,-114.59691857,-54.21730198
133.02501577,14.38415036,-6.47769762,7.83605183,2.92830200,1.11591794,0.15298550

>  <Name>
ligand

>  <RI>
0

>  <Rbt.Current_Directory>
/home/itssahil/PROJECTS/Mol_Feturizer/New_Systems/rnas/3GX5

>  <Rbt.Executable>
rbdock ($Id: //depot/dev/client3/rdock/2013.1/src/exe/rbdock.cxx#4 $)

>  <Rbt.Library>
libRbt.so (2013.1, Build901 2013/11/27)

>  <Rbt.Parameter_File>
/export/apps/rDock/src/rDock_2013.1_src/data/scripts/dock_solv.prm

>  <Rbt.Receptor>
prm/pocket_docking_3.prm

>  <SCORE>
-5.59492

>  <SCORE.INTER>
-9.47596

>  <SCORE.INTER.CONST>
1

>  <SCORE.INTER.POLAR>
0

>  <SCORE.INTER.ROT>
7

>  <SCORE.INTER.SOLV>
14.6601

>  <SCORE.INTER.VDW>
-19.4707

>  <SCORE.INTER.norm>
-0.350962

>  <SCORE.INTRA>
3.73646

>  <SCORE.INTRA.DIHEDRAL>
8.91135

>  <SCORE.INTRA.DIHEDRAL.0>
4.28829

>  <SCORE.INTRA.POLAR>
0

>  <SCORE.INTRA.POLAR.0>
0

>  <SCORE.INTRA.REPUL>
0

>  <SCORE.INTRA.REPUL.0>
0

>  <SCORE.INTRA.SOLV>
1.29448

>  <SCORE.INTRA.SOLV.lig_0>
-48.6018

>  <SCORE.INTRA.VDW>
-1.36646

>  <SCORE.INTRA.VDW.0>
-2.1506

>  <SCORE.INTRA.norm>
0.138387

>  <SCORE.RESTR>
0.144589

>  <SCORE.RESTR.CAVITY>
0.144589

>  <SCORE.RESTR.norm>
0.00535514

>  <SCORE.SYSTEM>
0

>  <SCORE.SYSTEM.CONST>
0

>  <SCORE.SYSTEM.DIHEDRAL>
0

>  <SCORE.SYSTEM.SOLV>
0

>  <SCORE.SYSTEM.norm>
0

>  <SCORE.heavy>
27

>  <SCORE.norm>
-0.207219

>  <RMSD>
5.082

$$$$
ligand
 OpenBabel11021811483D
libRbt.so/2013.1/901 2013/11/27
 27 29  0  0  0  0  0  0  0  0999 V2000
   20.7633   -9.2533    6.7395 N   0  0  0  0  0  0  0  0  0  0  0  0
   20.2355   -7.9379    7.1068 C   0  0  2  0  0  0  0  0  0  0  0  0
   20.6255   -7.4304    8.4972 C   0  0  0  0  0  0  0  0  0  0  0  0
   21.6157   -7.9108    9.0470 O   0  0  0  0  0  0  0  0  0  0  0  0
   18.7280   -7.8867    6.9233 C   0  0  0  0  0  0  0  0  0  0  0  0
   18.3415   -7.9498    5.4556 C   0  0  0  0  0  0  0  0  0  0  0  0
   18.0344   -9.6516    4.9508 S   0  0  2  0  0  0  0  0  0  0  0  0
   19.5371   -9.9731    4.0034 C   0  0  0  0  0  0  0  0  0  0  0  0
   16.8720   -9.3875    3.5915 C   0  0  0  0  0  0  0  0  0  0  0  0
   15.4718   -9.1325    4.1183 C   0  0  1  0  0  0  0  0  0  0  0  0
   15.5217   -8.4572    5.3543 O   0  0  0  0  0  0  0  0  0  0  0  0
   14.6577   -8.2327    3.2095 C   0  0  1  0  0  0  0  0  0  0  0  0
   13.9219   -9.0426    2.3276 O   0  0  0  0  0  0  0  0  0  0  0  0
   13.7417   -7.4972    4.1666 C   0  0  1  0  0  0  0  0  0  0  0  0
   12.4859   -8.1367    4.1221 O   0  0  0  0  0  0  0  0  0  0  0  0
   14.3767   -7.6465    5.5508 C   0  0  2  0  0  0  0  0  0  0  0  0
   19.9871   -6.5619    9.0979 O   0  0  0  0  0  0  0  0  0  0  0  0
   13.0521   -2.8416    7.1562 N   0  0  0  0  0  0  0  0  0  0  0  0
   12.2161   -3.8696    6.7935 C   0  0  0  0  0  0  0  0  0  0  0  0
   12.7597   -5.0707    6.3941 N   0  0  0  0  0  0  0  0  0  0  0  0
   14.0985   -5.2542    6.3563 C   0  0  0  0  0  0  0  0  0  0  0  0
   14.9552   -4.2300    6.7329 C   0  0  0  0  0  0  0  0  0  0  0  0
   14.4207   -3.0059    7.1294 C   0  0  0  0  0  0  0  0  0  0  0  0
   15.2112   -1.9953    7.4922 N   0  0  0  0  0  0  0  0  0  0  0  0
   16.2289   -4.6843    6.6088 N   0  0  0  0  0  0  0  0  0  0  0  0
   16.1808   -5.9671    6.1815 C   0  0  0  0  0  0  0  0  0  0  0  0
   14.8678   -6.3380    6.0269 N   0  0  0  0  0  0  0  0  0  0  0  0
  2  1  1  1  0  0  0
  2  3  1  0  0  0  0
  2  5  1  0  0  0  0
  3  4  1  0  0  0  0
  3 17  1  0  0  0  0
  5  6  1  0  0  0  0
  7  6  1  1  0  0  0
  7  8  1  0  0  0  0
  7  9  1  0  0  0  0
 10  9  1  6  0  0  0
 10 11  1  0  0  0  0
 10 12  1  0  0  0  0
 11 16  1  0  0  0  0
 12 13  1  6  0  0  0
 12 14  1  0  0  0  0
 14 15  1  1  0  0  0
 14 16  1  0  0  0  0
 16 27  1  6  0  0  0
 18 19  2  0  0  0  0
 18 23  1  0  0  0  0
 19 20  1  0  0  0  0
 20 21  2  0  0  0  0
 21 22  1  0  0  0  0
 21 27  1  0  0  0  0
 22 23  2  0  0  0  0
 22 25  1  0  0  0  0
 23 24  1  0  0  0  0
 25 26  2  0  0  0  0
 26 27  1  0  0  0  0
M  END
>  <CHROM.1>
20.87800011,-68.41279062,92.71345211,-105.18830424,-79.72775688,32.43972991
-179.26701783,16.39135880,-7.07442671,5.90049155,-0.33662236,-0.41789305
0.65452713

>  <Name>
ligand

>  <RI>
0

>  <Rbt.Current_Directory>
/home/itssahil/PROJECTS/Mol_Feturizer/New_Systems/rnas/3GX5

>  <Rbt.Executable>
rbdock ($Id: //depot/dev/client3/rdock/2013.1/src/exe/rbdock.cxx#4 $)

>  <Rbt.Library>
libRbt.so (2013.1, Build901 2013/11/27)

>  <Rbt.Parameter_File>
/export/apps/rDock/src/rDock_2013.1_src/data/scripts/dock_solv.prm

>  <Rbt.Receptor>
prm/pocket_docking_8.prm

>  <SCORE>
-12.7228

>  <SCORE.INTER>
-17.7848

>  <SCORE.INTER.CONST>
1

>  <SCORE.INTER.POLAR>
0

>  <SCORE.INTER.ROT>
7

>  <SCORE.INTER.SOLV>
18.3624

>  <SCORE.INTER.VDW>
-26.244

>  <SCORE.INTER.norm>
-0.658698

>  <SCORE.INTRA>
5.06203

>  <SCORE.INTRA.DIHEDRAL>
8.01794

>  <SCORE.INTRA.DIHEDRAL.0>
4.28829

>  <SCORE.INTRA.POLAR>
0

>  <SCORE.INTRA.POLAR.0>
0

>  <SCORE.INTRA.REPUL>
0

>  <SCORE.INTRA.REPUL.0>
0

>  <SCORE.INTRA.SOLV>
1.77917

>  <SCORE.INTRA.SOLV.lig_0>
-48.6018

>  <SCORE.INTRA.VDW>
0.16348

>  <SCORE.INTRA.VDW.0>
-2.1506

>  <SCORE.INTRA.norm>
0.187483

>  <SCORE.RESTR>
0

>  <SCORE.RESTR.CAVITY>
0

>  <SCORE.RESTR.norm>
0

>  <SCORE.SYSTEM>
0

>  <SCORE.SYSTEM.CONST>
0

>  <SCORE.SYSTEM.DIHEDRAL>
0

>  <SCORE.SYSTEM.SOLV>
0

>  <SCORE.SYSTEM.norm>
0

>  <SCORE.heavy>
27

>  <SCORE.norm>
-0.471215

>  <RMSD>
5.088

$$$$
ligand
 OpenBabel11021811483D
libRbt.so/2013.1/901 2013/11/27
 27 29  0  0  0  0  0  0  0  0999 V2000
   12.0842   -8.8549   11.8968 N   0  0  0  0  0  0  0  0  0  0  0  0
   12.9483   -9.2320   10.7766 C   0  0  2  0  0  0  0  0  0  0  0  0
   13.8970  -10.4050   11.0351 C   0  0  0  0  0  0  0  0  0  0  0  0
   13.5672  -11.5282   10.6567 O   0  0  0  0  0  0  0  0  0  0  0  0
   13.7163   -8.0295   10.2540 C   0  0  0  0  0  0  0  0  0  0  0  0
   14.3903   -7.2647   11.3802 C   0  0  0  0  0  0  0  0  0  0  0  0
   15.1071   -5.7298   10.7674 S   0  0  2  0  0  0  0  0  0  0  0  0
   15.2534   -4.8128   12.3156 C   0  0  0  0  0  0  0  0  0  0  0  0
   13.6377   -4.9305   10.0814 C   0  0  0  0  0  0  0  0  0  0  0  0
   13.9753   -4.1794    8.8067 C   0  0  1  0  0  0  0  0  0  0  0  0
   15.1996   -4.6305    8.2740 O   0  0  0  0  0  0  0  0  0  0  0  0
   12.9583   -4.4057    7.7054 C   0  0  1  0  0  0  0  0  0  0  0  0
   11.9974   -3.3823    7.7723 O   0  0  0  0  0  0  0  0  0  0  0  0
   13.7799   -4.2996    6.4366 C   0  0  1  0  0  0  0  0  0  0  0  0
   13.5799   -3.0059    5.9129 O   0  0  0  0  0  0  0  0  0  0  0  0
   15.2365   -4.4914    6.8646 C   0  0  2  0  0  0  0  0  0  0  0  0
   14.9798  -10.2774   11.6130 O   0  0  0  0  0  0  0  0  0  0  0  0
   14.2124   -8.7061    3.9311 N   0  0  0  0  0  0  0  0  0  0  0  0
   13.3924   -7.6323    4.1793 C   0  0  0  0  0  0  0  0  0  0  0  0
   13.8450   -6.6117    4.9862 N   0  0  0  0  0  0  0  0  0  0  0  0
   15.0805   -6.6486    5.5336 C   0  0  0  0  0  0  0  0  0  0  0  0
   15.9251   -7.7197    5.2809 C   0  0  0  0  0  0  0  0  0  0  0  0
   15.4779   -8.7647    4.4751 C   0  0  0  0  0  0  0  0  0  0  0  0
   16.2575   -9.8143    4.2142 N   0  0  0  0  0  0  0  0  0  0  0  0
   17.0912   -7.4964    5.9402 N   0  0  0  0  0  0  0  0  0  0  0  0
   16.9948   -6.3081    6.5798 C   0  0  0  0  0  0  0  0  0  0  0  0
   15.7575   -5.7662    6.3323 N   0  0  0  0  0  0  0  0  0  0  0  0
  2  1  1  1  0  0  0
  2  3  1  0  0  0  0
  2  5  1  0  0  0  0
  3  4  1  0  0  0  0
  3 17  1  0  0  0  0
  5  6  1  0  0  0  0
  7  6  1  1  0  0  0
  7  8  1  0  0  0  0
  7  9  1  0  0  0  0
 10  9  1  1  0  0  0
 10 11  1  0  0  0  0
 10 12  1  0  0  0  0
 11 16  1  0  0  0  0
 12 13  1  6  0  0  0
 12 14  1  0  0  0  0
 14 15  1  1  0  0  0
 14 16  1  0  0  0  0
 16 27  1  6  0  0  0
 18 19  2  0  0  0  0
 18 23  1  0  0  0  0
 19 20  1  0  0  0  0
 20 21  2  0  0  0  0
 21 22  1  0  0  0  0
 21 27  1  0  0  0  0
 22 23  2  0  0  0  0
 22 25  1  0  0  0  0
 23 24  1  0  0  0  0
 25 26  2  0  0  0  0
 26 27  1  0  0  0  0
M  END
>  <CHROM.1>
97.51615061,49.28106250,-172.46659247,160.08141565,-142.71863320,18.35253810
115.80868756,14.46207219,-6.77147278,8.14396161,-2.31305355,1.36842820,-0.52072703

>  <Name>
ligand

>  <RI>
0

>  <Rbt.Current_Directory>
/home/itssahil/PROJECTS/Mol_Feturizer/New_Systems/rnas/3GX5

>  <Rbt.Executable>
rbdock ($Id: //depot/dev/client3/rdock/2013.1/src/exe/rbdock.cxx#4 $)

>  <Rbt.Library>
libRbt.so (2013.1, Build901 2013/11/27)

>  <Rbt.Parameter_File>
/export/apps/rDock/src/rDock_2013.1_src/data/scripts/dock_solv.prm

>  <Rbt.Receptor>
prm/pocket_docking_3.prm

>  <SCORE>
-4.05217

>  <SCORE.INTER>
-9.76964

>  <SCORE.INTER.CONST>
1

>  <SCORE.INTER.POLAR>
0

>  <SCORE.INTER.ROT>
7

>  <SCORE.INTER.SOLV>
13.7357

>  <SCORE.INTER.VDW>
-19.3583

>  <SCORE.INTER.norm>
-0.361839

>  <SCORE.INTRA>
5.67032

>  <SCORE.INTRA.DIHEDRAL>
8.00618

>  <SCORE.INTRA.DIHEDRAL.0>
4.28829

>  <SCORE.INTRA.POLAR>
0

>  <SCORE.INTRA.POLAR.0>
0

>  <SCORE.INTRA.REPUL>
0

>  <SCORE.INTRA.REPUL.0>
0

>  <SCORE.INTRA.SOLV>
-0.233416

>  <SCORE.INTRA.SOLV.lig_0>
-48.6018

>  <SCORE.INTRA.VDW>
1.78393

>  <SCORE.INTRA.VDW.0>
-2.1506

>  <SCORE.INTRA.norm>
0.210012

>  <SCORE.RESTR>
0.0471603

>  <SCORE.RESTR.CAVITY>
0.0471603

>  <SCORE.RESTR.norm>
0.00174668

>  <SCORE.SYSTEM>
0

>  <SCORE.SYSTEM.CONST>
0

>  <SCORE.SYSTEM.DIHEDRAL>
0

>  <SCORE.SYSTEM.SOLV>
0

>  <SCORE.SYSTEM.norm>
0

>  <SCORE.heavy>
27

>  <SCORE.norm>
-0.15008

>  <RMSD>
5.095

$$$$
ligand
 OpenBabel11021811483D
libRbt.so/2013.1/901 2013/11/27
 27 29  0  0  0  0  0  0  0  0999 V2000
   13.4133   -9.2674    7.9523 N   0  0  0  0  0  0  0  0  0  0  0  0
   13.4403   -8.4151    9.1425 C   0  0  2  0  0  0  0  0  0  0  0  0
   12.6417   -8.9266   10.3440 C   0  0  0  0  0  0  0  0  0  0  0  0
   13.2479   -9.2455   11.3660 O   0  0  0  0  0  0  0  0  0  0  0  0
   13.0362   -6.9908    8.8004 C   0  0  0  0  0  0  0  0  0  0  0  0
   13.2633   -6.0493    9.9706 C   0  0  0  0  0  0  0  0  0  0  0  0
   15.0058   -6.0080   10.4255 S   0  0  2  0  0  0  0  0  0  0  0  0
   14.8839   -6.4482   12.1721 C   0  0  0  0  0  0  0  0  0  0  0  0
   15.2636   -4.2253   10.5814 C   0  0  0  0  0  0  0  0  0  0  0  0
   15.4291   -3.5809    9.2174 C   0  0  1  0  0  0  0  0  0  0  0  0
   16.3693   -4.2906    8.4438 O   0  0  0  0  0  0  0  0  0  0  0  0
   14.1518   -3.5989    8.4010 C   0  0  1  0  0  0  0  0  0  0  0  0
   13.4660   -2.3928    8.6244 O   0  0  0  0  0  0  0  0  0  0  0  0
   14.6460   -3.6880    6.9713 C   0  0  1  0  0  0  0  0  0  0  0  0
   14.5942   -2.3886    6.4266 O   0  0  0  0  0  0  0  0  0  0  0  0
   16.0919   -4.1813    7.0588 C   0  0  2  0  0  0  0  0  0  0  0  0
   11.4129   -9.0401   10.3338 O   0  0  0  0  0  0  0  0  0  0  0  0
   13.6443   -7.9906    4.4288 N   0  0  0  0  0  0  0  0  0  0  0  0
   13.1632   -6.7447    4.7504 C   0  0  0  0  0  0  0  0  0  0  0  0
   13.9653   -5.8744    5.4553 N   0  0  0  0  0  0  0  0  0  0  0  0
   15.2155   -6.2248    5.8318 C   0  0  0  0  0  0  0  0  0  0  0  0
   15.7202   -7.4743    5.5023 C   0  0  0  0  0  0  0  0  0  0  0  0
   14.9173   -8.3695    4.7986 C   0  0  0  0  0  0  0  0  0  0  0  0
   15.3640   -9.5818    4.4692 N   0  0  0  0  0  0  0  0  0  0  0  0
   16.9847   -7.5557    5.9906 N   0  0  0  0  0  0  0  0  0  0  0  0
   17.2799   -6.3835    6.5984 C   0  0  0  0  0  0  0  0  0  0  0  0
   16.1966   -5.5451    6.5027 N   0  0  0  0  0  0  0  0  0  0  0  0
  2  1  1  6  0  0  0
  2  3  1  0  0  0  0
  2  5  1  0  0  0  0
  3  4  1  0  0  0  0
  3 17  1  0  0  0  0
  5  6  1  0  0  0  0
  7  6  1  6  0  0  0
  7  8  1  0  0  0  0
  7  9  1  0  0  0  0
 10  9  1  1  0  0  0
 10 11  1  0  0  0  0
 10 12  1  0  0  0  0
 11 16  1  0  0  0  0
 12 13  1  6  0  0  0
 12 14  1  0  0  0  0
 14 15  1  1  0  0  0
 14 16  1  0  0  0  0
 16 27  1  6  0  0  0
 18 19  2  0  0  0  0
 18 23  1  0  0  0  0
 19 20  1  0  0  0  0
 20 21  2  0  0  0  0
 21 22  1  0  0  0  0
 21 27  1  0  0  0  0
 22 23  2  0  0  0  0
 22 25  1  0  0  0  0
 23 24  1  0  0  0  0
 25 26  2  0  0  0  0
 26 27  1  0  0  0  0
M  END
>  <CHROM.1>
114.26812203,-171.23221829,60.94234652,-124.57361366,-78.90242679,-48.92648344
122.33794389,14.54074169,-6.26734965,8.00477272,2.50861718,1.19020428,0.85054509

>  <Name>
ligand

>  <RI>
0

>  <Rbt.Current_Directory>
/home/itssahil/PROJECTS/Mol_Feturizer/New_Systems/rnas/3GX5

>  <Rbt.Executable>
rbdock ($Id: //depot/dev/client3/rdock/2013.1/src/exe/rbdock.cxx#4 $)

>  <Rbt.Library>
libRbt.so (2013.1, Build901 2013/11/27)

>  <Rbt.Parameter_File>
/export/apps/rDock/src/rDock_2013.1_src/data/scripts/dock_solv.prm

>  <Rbt.Receptor>
prm/pocket_docking_2.prm

>  <SCORE>
-4.55788

>  <SCORE.INTER>
-7.43441

>  <SCORE.INTER.CONST>
1

>  <SCORE.INTER.POLAR>
0

>  <SCORE.INTER.ROT>
7

>  <SCORE.INTER.SOLV>
15.6423

>  <SCORE.INTER.VDW>
-18.437

>  <SCORE.INTER.norm>
-0.275349

>  <SCORE.INTRA>
0.806787

>  <SCORE.INTRA.DIHEDRAL>
4.34185

>  <SCORE.INTRA.DIHEDRAL.0>
4.28829

>  <SCORE.INTRA.POLAR>
0

>  <SCORE.INTRA.POLAR.0>
0

>  <SCORE.INTRA.REPUL>
0

>  <SCORE.INTRA.REPUL.0>
0

>  <SCORE.INTRA.SOLV>
0.504785

>  <SCORE.INTRA.SOLV.lig_0>
-48.6018

>  <SCORE.INTRA.VDW>
-1.61653

>  <SCORE.INTRA.VDW.0>
-2.1506

>  <SCORE.INTRA.norm>
0.029881

>  <SCORE.RESTR>
2.06974

>  <SCORE.RESTR.CAVITY>
2.06974

>  <SCORE.RESTR.norm>
0.0766571

>  <SCORE.SYSTEM>
0

>  <SCORE.SYSTEM.CONST>
0

>  <SCORE.SYSTEM.DIHEDRAL>
0

>  <SCORE.SYSTEM.SOLV>
0

>  <SCORE.SYSTEM.norm>
0

>  <SCORE.heavy>
27

>  <SCORE.norm>
-0.16881

>  <RMSD>
5.097

$$$$
ligand
 OpenBabel11021811483D
libRbt.so/2013.1/901 2013/11/27
 27 29  0  0  0  0  0  0  0  0999 V2000
   12.9007   -9.1956    8.9825 N   0  0  0  0  0  0  0  0  0  0  0  0
   13.5268   -8.8341   10.2557 C   0  0  2  0  0  0  0  0  0  0  0  0
   13.9336  -10.0062   11.1522 C   0  0  0  0  0  0  0  0  0  0  0  0
   13.2019  -10.9938   11.2045 O   0  0  0  0  0  0  0  0  0  0  0  0
   12.6638   -7.8481   11.0251 C   0  0  0  0  0  0  0  0  0  0  0  0
   13.4718   -7.0922   12.0658 C   0  0  0  0  0  0  0  0  0  0  0  0
   14.7762   -6.1281   11.2821 S   0  0  2  0  0  0  0  0  0  0  0  0
   15.1832   -4.9982   12.6299 C   0  0  0  0  0  0  0  0  0  0  0  0
   13.7909   -5.0203   10.2473 C   0  0  0  0  0  0  0  0  0  0  0  0
   14.6746   -4.2542    9.2802 C   0  0  1  0  0  0  0  0  0  0  0  0
   15.6001   -5.1186    8.6619 O   0  0  0  0  0  0  0  0  0  0  0  0
   13.8939   -3.6307    8.1399 C   0  0  1  0  0  0  0  0  0  0  0  0
   13.5555   -2.3155    8.5014 O   0  0  0  0  0  0  0  0  0  0  0  0
   14.8782   -3.6431    6.9879 C   0  0  1  0  0  0  0  0  0  0  0  0
   15.4288   -2.3487    6.8911 O   0  0  0  0  0  0  0  0  0  0  0  0
   15.9543   -4.6623    7.3683 C   0  0  2  0  0  0  0  0  0  0  0  0
   14.9632  -10.0048   11.8324 O   0  0  0  0  0  0  0  0  0  0  0  0
   12.7998   -7.9939    4.8449 N   0  0  0  0  0  0  0  0  0  0  0  0
   12.4421   -6.9207    5.6243 C   0  0  0  0  0  0  0  0  0  0  0  0
   13.4268   -6.1568    6.2113 N   0  0  0  0  0  0  0  0  0  0  0  0
   14.7355   -6.4440    6.0307 C   0  0  0  0  0  0  0  0  0  0  0  0
   15.1123   -7.5162    5.2351 C   0  0  0  0  0  0  0  0  0  0  0  0
   14.1278   -8.3044    4.6429 C   0  0  0  0  0  0  0  0  0  0  0  0
   14.4498   -9.3472    3.8770 N   0  0  0  0  0  0  0  0  0  0  0  0
   16.4692   -7.5684    5.2203 N   0  0  0  0  0  0  0  0  0  0  0  0
   16.9402   -6.5469    5.9722 C   0  0  0  0  0  0  0  0  0  0  0  0
   15.8787   -5.8361    6.4759 N   0  0  0  0  0  0  0  0  0  0  0  0
  2  1  1  6  0  0  0
  2  3  1  0  0  0  0
  2  5  1  0  0  0  0
  3  4  1  0  0  0  0
  3 17  1  0  0  0  0
  5  6  1  0  0  0  0
  7  6  1  1  0  0  0
  7  8  1  0  0  0  0
  7  9  1  0  0  0  0
 10  9  1  1  0  0  0
 10 11  1  0  0  0  0
 10 12  1  0  0  0  0
 11 16  1  0  0  0  0
 12 13  1  1  0  0  0
 12 14  1  0  0  0  0
 14 15  1  1  0  0  0
 14 16  1  0  0  0  0
 16 27  1  6  0  0  0
 18 19  2  0  0  0  0
 18 23  1  0  0  0  0
 19 20  1  0  0  0  0
 20 21  2  0  0  0  0
 21 22  1  0  0  0  0
 21 27  1  0  0  0  0
 22 23  2  0  0  0  0
 22 25  1  0  0  0  0
 23 24  1  0  0  0  0
 25 26  2  0  0  0  0
 26 27  1  0  0  0  0
M  END
>  <CHROM.1>
-37.73597636,-159.72017597,61.56832551,163.12666076,-169.79096456,45.91137054
73.27273981,14.41548727,-6.57043691,8.40987262,2.38725957,1.38044063,1.14430741

>  <Name>
ligand

>  <RI>
0

>  <Rbt.Current_Directory>
/home/itssahil/PROJECTS/Mol_Feturizer/New_Systems/rnas/3GX5

>  <Rbt.Executable>
rbdock ($Id: //depot/dev/client3/rdock/2013.1/src/exe/rbdock.cxx#4 $)

>  <Rbt.Library>
libRbt.so (2013.1, Build901 2013/11/27)

>  <Rbt.Parameter_File>
/export/apps/rDock/src/rDock_2013.1_src/data/scripts/dock_solv.prm

>  <Rbt.Receptor>
prm/pocket_docking_2.prm

>  <SCORE>
-6.87419

>  <SCORE.INTER>
-8.68762

>  <SCORE.INTER.CONST>
1

>  <SCORE.INTER.POLAR>
0

>  <SCORE.INTER.ROT>
7

>  <SCORE.INTER.SOLV>
15.7186

>  <SCORE.INTER.VDW>
-19.2979

>  <SCORE.INTER.norm>
-0.321764

>  <SCORE.INTRA>
0.0169186

>  <SCORE.INTRA.DIHEDRAL>
2.24294

>  <SCORE.INTRA.DIHEDRAL.0>
4.28829

>  <SCORE.INTRA.POLAR>
0

>  <SCORE.INTRA.POLAR.0>
0

>  <SCORE.INTRA.REPUL>
0

>  <SCORE.INTRA.REPUL.0>
0

>  <SCORE.INTRA.SOLV>
-0.667099

>  <SCORE.INTRA.SOLV.lig_0>
-48.6018

>  <SCORE.INTRA.VDW>
-0.771

>  <SCORE.INTRA.VDW.0>
-2.1506

>  <SCORE.INTRA.norm>
0.000626615

>  <SCORE.RESTR>
1.7965

>  <SCORE.RESTR.CAVITY>
1.7965

>  <SCORE.RESTR.norm>
0.0665372

>  <SCORE.SYSTEM>
0

>  <SCORE.SYSTEM.CONST>
0

>  <SCORE.SYSTEM.DIHEDRAL>
0

>  <SCORE.SYSTEM.SOLV>
0

>  <SCORE.SYSTEM.norm>
0

>  <SCORE.heavy>
27

>  <SCORE.norm>
-0.2546

>  <RMSD>
5.100

$$$$
ligand
 OpenBabel11021811483D
libRbt.so/2013.1/901 2013/11/27
 27 29  0  0  0  0  0  0  0  0999 V2000
   12.6036   -8.5084   10.4788 N   0  0  0  0  0  0  0  0  0  0  0  0
   13.9830   -8.8333   10.8472 C   0  0  2  0  0  0  0  0  0  0  0  0
   14.4099  -10.2838   10.6091 C   0  0  0  0  0  0  0  0  0  0  0  0
   15.5861  -10.5177   10.3344 O   0  0  0  0  0  0  0  0  0  0  0  0
   14.2747   -8.4193   12.2798 C   0  0  0  0  0  0  0  0  0  0  0  0
   14.0845   -6.9255   12.4792 C   0  0  0  0  0  0  0  0  0  0  0  0
   15.3040   -5.9966   11.5331 S   0  0  2  0  0  0  0  0  0  0  0  0
   15.5138   -4.5651   12.6130 C   0  0  0  0  0  0  0  0  0  0  0  0
   14.2469   -5.2633   10.2629 C   0  0  0  0  0  0  0  0  0  0  0  0
   15.0223   -4.2648    9.4234 C   0  0  1  0  0  0  0  0  0  0  0  0
   16.1962   -4.8526    8.9110 O   0  0  0  0  0  0  0  0  0  0  0  0
   14.2504   -3.7977    8.2050 C   0  0  1  0  0  0  0  0  0  0  0  0
   13.5612   -2.6201    8.5416 O   0  0  0  0  0  0  0  0  0  0  0  0
   15.3343   -3.5216    7.1828 C   0  0  1  0  0  0  0  0  0  0  0  0
   15.5592   -2.1297    7.1738 O   0  0  0  0  0  0  0  0  0  0  0  0
   16.5754   -4.2675    7.6777 C   0  0  2  0  0  0  0  0  0  0  0  0
   13.6249  -11.2337   10.6746 O   0  0  0  0  0  0  0  0  0  0  0  0
   14.6420   -7.9645    4.5135 N   0  0  0  0  0  0  0  0  0  0  0  0
   13.9475   -7.0179    5.2269 C   0  0  0  0  0  0  0  0  0  0  0  0
   14.6411   -6.1239    6.0126 N   0  0  0  0  0  0  0  0  0  0  0  0
   15.9902   -6.1613    6.0902 C   0  0  0  0  0  0  0  0  0  0  0  0
   16.7062   -7.1025    5.3647 C   0  0  0  0  0  0  0  0  0  0  0  0
   16.0182   -8.0202    4.5735 C   0  0  0  0  0  0  0  0  0  0  0  0
   16.6701   -8.9439    3.8668 N   0  0  0  0  0  0  0  0  0  0  0  0
   18.0261   -6.9097    5.6189 N   0  0  0  0  0  0  0  0  0  0  0  0
   18.1450   -5.8640    6.4692 C   0  0  0  0  0  0  0  0  0  0  0  0
   16.8929   -5.3842    6.7655 N   0  0  0  0  0  0  0  0  0  0  0  0
  2  1  1  1  0  0  0
  2  3  1  0  0  0  0
  2  5  1  0  0  0  0
  3  4  1  0  0  0  0
  3 17  1  0  0  0  0
  5  6  1  0  0  0  0
  7  6  1  1  0  0  0
  7  8  1  0  0  0  0
  7  9  1  0  0  0  0
 10  9  1  6  0  0  0
 10 11  1  0  0  0  0
 10 12  1  0  0  0  0
 11 16  1  0  0  0  0
 12 13  1  1  0  0  0
 12 14  1  0  0  0  0
 14 15  1  1  0  0  0
 14 16  1  0  0  0  0
 16 27  1  6  0  0  0
 18 19  2  0  0  0  0
 18 23  1  0  0  0  0
 19 20  1  0  0  0  0
 20 21  2  0  0  0  0
 21 22  1  0  0  0  0
 21 27  1  0  0  0  0
 22 23  2  0  0  0  0
 22 25  1  0  0  0  0
 23 24  1  0  0  0  0
 25 26  2  0  0  0  0
 26 27  1  0  0  0  0
M  END
>  <CHROM.1>
149.11777226,-59.96583160,-65.94202877,-148.13560469,172.48993233,52.97705775
78.87269755,15.23011425,-6.45748465,8.52317620,-3.04521406,1.29357619,0.26411142

>  <Name>
ligand

>  <RI>
0

>  <Rbt.Current_Directory>
/home/itssahil/PROJECTS/Mol_Feturizer/New_Systems/rnas/3GX5

>  <Rbt.Executable>
rbdock ($Id: //depot/dev/client3/rdock/2013.1/src/exe/rbdock.cxx#4 $)

>  <Rbt.Library>
libRbt.so (2013.1, Build901 2013/11/27)

>  <Rbt.Parameter_File>
/export/apps/rDock/src/rDock_2013.1_src/data/scripts/dock_solv.prm

>  <Rbt.Receptor>
prm/pocket_docking_4.prm

>  <SCORE>
-11.3066

>  <SCORE.INTER>
-12.4662

>  <SCORE.INTER.CONST>
1

>  <SCORE.INTER.POLAR>
0

>  <SCORE.INTER.ROT>
7

>  <SCORE.INTER.SOLV>
12.215

>  <SCORE.INTER.VDW>
-20.6492

>  <SCORE.INTER.norm>
-0.461712

>  <SCORE.INTRA>
1.15961

>  <SCORE.INTRA.DIHEDRAL>
2.7149

>  <SCORE.INTRA.DIHEDRAL.0>
4.28829

>  <SCORE.INTRA.POLAR>
0

>  <SCORE.INTRA.POLAR.0>
0

>  <SCORE.INTRA.REPUL>
0

>  <SCORE.INTRA.REPUL.0>
0

>  <SCORE.INTRA.SOLV>
0.830829

>  <SCORE.INTRA.SOLV.lig_0>
-48.6018

>  <SCORE.INTRA.VDW>
-0.613258

>  <SCORE.INTRA.VDW.0>
-2.1506

>  <SCORE.INTRA.norm>
0.0429484

>  <SCORE.RESTR>
0

>  <SCORE.RESTR.CAVITY>
0

>  <SCORE.RESTR.norm>
0

>  <SCORE.SYSTEM>
0

>  <SCORE.SYSTEM.CONST>
0

>  <SCORE.SYSTEM.DIHEDRAL>
0

>  <SCORE.SYSTEM.SOLV>
0

>  <SCORE.SYSTEM.norm>
0

>  <SCORE.heavy>
27

>  <SCORE.norm>
-0.418764

>  <RMSD>
5.104

$$$$
ligand
 OpenBabel11021811483D
libRbt.so/2013.1/901 2013/11/27
 27 29  0  0  0  0  0  0  0  0999 V2000
   14.0834   -8.2994    8.2207 N   0  0  0  0  0  0  0  0  0  0  0  0
   13.9062   -8.5258    9.6564 C   0  0  2  0  0  0  0  0  0  0  0  0
   13.9052   -9.9899   10.1027 C   0  0  0  0  0  0  0  0  0  0  0  0
   14.9106  -10.6706    9.9039 O   0  0  0  0  0  0  0  0  0  0  0  0
   12.6685   -7.8101   10.1707 C   0  0  0  0  0  0  0  0  0  0  0  0
   12.6779   -6.3382    9.7953 C   0  0  0  0  0  0  0  0  0  0  0  0
   14.3070   -5.6210   10.0721 S   0  0  2  0  0  0  0  0  0  0  0  0
   14.3644   -5.6613   11.8760 C   0  0  0  0  0  0  0  0  0  0  0  0
   13.9424   -3.8680    9.8213 C   0  0  0  0  0  0  0  0  0  0  0  0
   13.9036   -3.5293    8.3425 C   0  0  1  0  0  0  0  0  0  0  0  0
   15.0426   -4.0378    7.6866 O   0  0  0  0  0  0  0  0  0  0  0  0
   12.7232   -4.1567    7.6275 C   0  0  1  0  0  0  0  0  0  0  0  0
   11.6646   -3.2324    7.6242 O   0  0  0  0  0  0  0  0  0  0  0  0
   13.2438   -4.3940    6.2244 C   0  0  1  0  0  0  0  0  0  0  0  0
   12.7635   -3.3445    5.4145 O   0  0  0  0  0  0  0  0  0  0  0  0
   14.7694   -4.3418    6.3301 C   0  0  2  0  0  0  0  0  0  0  0  0
   12.9367  -10.5238   10.6502 O   0  0  0  0  0  0  0  0  0  0  0  0
   14.1449   -8.9345    3.8940 N   0  0  0  0  0  0  0  0  0  0  0  0
   13.3207   -7.8365    3.8471 C   0  0  0  0  0  0  0  0  0  0  0  0
   13.6577   -6.7104    4.5654 N   0  0  0  0  0  0  0  0  0  0  0  0
   14.7846   -6.6678    5.3110 C   0  0  0  0  0  0  0  0  0  0  0  0
   15.6339   -7.7638    5.3572 C   0  0  0  0  0  0  0  0  0  0  0  0
   15.3014   -8.9139    4.6443 C   0  0  0  0  0  0  0  0  0  0  0  0
   16.0884   -9.9898    4.6686 N   0  0  0  0  0  0  0  0  0  0  0  0
   16.6799   -7.4478    6.1635 N   0  0  0  0  0  0  0  0  0  0  0  0
   16.5072   -6.1799    6.6031 C   0  0  0  0  0  0  0  0  0  0  0  0
   15.3410   -5.6796    6.0783 N   0  0  0  0  0  0  0  0  0  0  0  0
  2  1  1  6  0  0  0
  2  3  1  0  0  0  0
  2  5  1  0  0  0  0
  3  4  1  0  0  0  0
  3 17  1  0  0  0  0
  5  6  1  0  0  0  0
  7  6  1  1  0  0  0
  7  8  1  0  0  0  0
  7  9  1  0  0  0  0
 10  9  1  1  0  0  0
 10 11  1  0  0  0  0
 10 12  1  0  0  0  0
 11 16  1  0  0  0  0
 12 13  1  6  0  0  0
 12 14  1  0  0  0  0
 14 15  1  6  0  0  0
 14 16  1  0  0  0  0
 16 27  1  1  0  0  0
 18 19  2  0  0  0  0
 18 23  1  0  0  0  0
 19 20  1  0  0  0  0
 20 21  2  0  0  0  0
 21 22  1  0  0  0  0
 21 27  1  0  0  0  0
 22 23  2  0  0  0  0
 22 25  1  0  0  0  0
 23 24  1  0  0  0  0
 25 26  2  0  0  0  0
 26 27  1  0  0  0  0
M  END
>  <CHROM.1>
61.17508126,-52.85229375,-43.87802791,-69.03313506,-80.66243828,-48.96637779
141.17944918,14.16630665,-6.60822644,7.62879185,-2.48203898,1.30786731,-0.81242108

>  <Name>
ligand

>  <RI>
0

>  <Rbt.Current_Directory>
/home/itssahil/PROJECTS/Mol_Feturizer/New_Systems/rnas/3GX5

>  <Rbt.Executable>
rbdock ($Id: //depot/dev/client3/rdock/2013.1/src/exe/rbdock.cxx#4 $)

>  <Rbt.Library>
libRbt.so (2013.1, Build901 2013/11/27)

>  <Rbt.Parameter_File>
/export/apps/rDock/src/rDock_2013.1_src/data/scripts/dock_solv.prm

>  <Rbt.Receptor>
prm/pocket_docking_2.prm

>  <SCORE>
-3.15538

>  <SCORE.INTER>
-8.26626

>  <SCORE.INTER.CONST>
1

>  <SCORE.INTER.POLAR>
0

>  <SCORE.INTER.ROT>
7

>  <SCORE.INTER.SOLV>
16.3194

>  <SCORE.INTER.VDW>
-19.2173

>  <SCORE.INTER.norm>
-0.306158

>  <SCORE.INTRA>
2.61064

>  <SCORE.INTRA.DIHEDRAL>
1.12998

>  <SCORE.INTRA.DIHEDRAL.0>
4.28829

>  <SCORE.INTRA.POLAR>
0

>  <SCORE.INTRA.POLAR.0>
0

>  <SCORE.INTRA.REPUL>
0

>  <SCORE.INTRA.REPUL.0>
0

>  <SCORE.INTRA.SOLV>
2.82026

>  <SCORE.INTRA.SOLV.lig_0>
-48.6018

>  <SCORE.INTRA.VDW>
0.635517

>  <SCORE.INTRA.VDW.0>
-2.1506

>  <SCORE.INTRA.norm>
0.0966903

>  <SCORE.RESTR>
2.50024

>  <SCORE.RESTR.CAVITY>
2.50024

>  <SCORE.RESTR.norm>
0.0926016

>  <SCORE.SYSTEM>
0

>  <SCORE.SYSTEM.CONST>
0

>  <SCORE.SYSTEM.DIHEDRAL>
0

>  <SCORE.SYSTEM.SOLV>
0

>  <SCORE.SYSTEM.norm>
0

>  <SCORE.heavy>
27

>  <SCORE.norm>
-0.116866

>  <RMSD>
5.105

$$$$
ligand
 OpenBabel11021811483D
libRbt.so/2013.1/901 2013/11/27
 27 29  0  0  0  0  0  0  0  0999 V2000
   17.0338   -8.8546   10.3904 N   0  0  0  0  0  0  0  0  0  0  0  0
   15.8856   -9.3587   11.1463 C   0  0  2  0  0  0  0  0  0  0  0  0
   16.2197  -10.2326   12.3576 C   0  0  0  0  0  0  0  0  0  0  0  0
   17.3929  -10.5450   12.5572 O   0  0  0  0  0  0  0  0  0  0  0  0
   14.9018  -10.0683   10.2312 C   0  0  0  0  0  0  0  0  0  0  0  0
   14.2194   -9.0966    9.2838 C   0  0  0  0  0  0  0  0  0  0  0  0
   13.2102   -7.9179   10.1989 S   0  0  2  0  0  0  0  0  0  0  0  0
   11.7449   -8.9284   10.5006 C   0  0  0  0  0  0  0  0  0  0  0  0
   12.5940   -6.8905    8.8448 C   0  0  0  0  0  0  0  0  0  0  0  0
   13.6399   -5.8791    8.4134 C   0  0  1  0  0  0  0  0  0  0  0  0
   14.8239   -6.5297    8.0121 O   0  0  0  0  0  0  0  0  0  0  0  0
   13.2084   -5.0661    7.2087 C   0  0  1  0  0  0  0  0  0  0  0  0
   12.5987   -3.8854    7.6661 O   0  0  0  0  0  0  0  0  0  0  0  0
   14.5125   -4.7659    6.4979 C   0  0  1  0  0  0  0  0  0  0  0  0
   14.8881   -3.4520    6.8454 O   0  0  0  0  0  0  0  0  0  0  0  0
   15.5250   -5.7789    7.0365 C   0  0  2  0  0  0  0  0  0  0  0  0
   15.3631  -10.6453   13.1441 O   0  0  0  0  0  0  0  0  0  0  0  0
   13.8424   -8.7263    3.0491 N   0  0  0  0  0  0  0  0  0  0  0  0
   13.1042   -7.8857    3.8462 C   0  0  0  0  0  0  0  0  0  0  0  0
   13.7330   -7.1897    4.8551 N   0  0  0  0  0  0  0  0  0  0  0  0
   15.0614   -7.3182    5.0705 C   0  0  0  0  0  0  0  0  0  0  0  0
   15.8226   -8.1526    4.2649 C   0  0  0  0  0  0  0  0  0  0  0  0
   15.1992   -8.8711    3.2469 C   0  0  0  0  0  0  0  0  0  0  0  0
   15.8952   -9.6881    2.4559 N   0  0  0  0  0  0  0  0  0  0  0  0
   17.1097   -8.0852    4.6925 N   0  0  0  0  0  0  0  0  0  0  0  0
   17.1661   -7.2187    5.7301 C   0  0  0  0  0  0  0  0  0  0  0  0
   15.9064   -6.7290    5.9726 N   0  0  0  0  0  0  0  0  0  0  0  0
  2  1  1  6  0  0  0
  2  3  1  0  0  0  0
  2  5  1  0  0  0  0
  3  4  1  0  0  0  0
  3 17  1  0  0  0  0
  5  6  1  0  0  0  0
  7  6  1  6  0  0  0
  7  8  1  0  0  0  0
  7  9  1  0  0  0  0
 10  9  1  6  0  0  0
 10 11  1  0  0  0  0
 10 12  1  0  0  0  0
 11 16  1  0  0  0  0
 12 13  1  1  0  0  0
 12 14  1  0  0  0  0
 14 15  1  1  0  0  0
 14 16  1  0  0  0  0
 16 27  1  6  0  0  0
 18 19  2  0  0  0  0
 18 23  1  0  0  0  0
 19 20  1  0  0  0  0
 20 21  2  0  0  0  0
 21 22  1  0  0  0  0
 21 27  1  0  0  0  0
 22 23  2  0  0  0  0
 22 25  1  0  0  0  0
 23 24  1  0  0  0  0
 25 26  2  0  0  0  0
 26 27  1  0  0  0  0
M  END
>  <CHROM.1>
-5.82213011,-68.27512606,-64.19309826,-80.06467858,-79.99951939,58.16876884
71.33233988,14.74352099,-7.69242433,7.77083203,-1.47915055,0.98520865,-1.31559055

>  <Name>
ligand

>  <RI>
0

>  <Rbt.Current_Directory>
/home/itssahil/PROJECTS/Mol_Feturizer/New_Systems/rnas/3GX5

>  <Rbt.Executable>
rbdock ($Id: //depot/dev/client3/rdock/2013.1/src/exe/rbdock.cxx#4 $)

>  <Rbt.Library>
libRbt.so (2013.1, Build901 2013/11/27)

>  <Rbt.Parameter_File>
/export/apps/rDock/src/rDock_2013.1_src/data/scripts/dock_solv.prm

>  <Rbt.Receptor>
prm/pocket_docking_7.prm

>  <SCORE>
-13.4342

>  <SCORE.INTER>
-12.8496

>  <SCORE.INTER.CONST>
1

>  <SCORE.INTER.POLAR>
0

>  <SCORE.INTER.ROT>
7

>  <SCORE.INTER.SOLV>
13.239

>  <SCORE.INTER.VDW>
-21.246

>  <SCORE.INTER.norm>
-0.475909

>  <SCORE.INTRA>
-0.584647

>  <SCORE.INTRA.DIHEDRAL>
0.171213

>  <SCORE.INTRA.DIHEDRAL.0>
4.28829

>  <SCORE.INTRA.POLAR>
0

>  <SCORE.INTRA.POLAR.0>
0

>  <SCORE.INTRA.REPUL>
0

>  <SCORE.INTRA.REPUL.0>
0

>  <SCORE.INTRA.SOLV>
0.292771

>  <SCORE.INTRA.SOLV.lig_0>
-48.6018

>  <SCORE.INTRA.VDW>
-0.816639

>  <SCORE.INTRA.VDW.0>
-2.1506

>  <SCORE.INTRA.norm>
-0.0216536

>  <SCORE.RESTR>
0

>  <SCORE.RESTR.CAVITY>
0

>  <SCORE.RESTR.norm>
0

>  <SCORE.SYSTEM>
0

>  <SCORE.SYSTEM.CONST>
0

>  <SCORE.SYSTEM.DIHEDRAL>
0

>  <SCORE.SYSTEM.SOLV>
0

>  <SCORE.SYSTEM.norm>
0

>  <SCORE.heavy>
27

>  <SCORE.norm>
-0.497563

>  <RMSD>
5.105

$$$$
ligand
 OpenBabel11021811483D
libRbt.so/2013.1/901 2013/11/27
 27 29  0  0  0  0  0  0  0  0999 V2000
   16.3787   -7.0543   11.5655 N   0  0  0  0  0  0  0  0  0  0  0  0
   16.3923   -5.5906   11.5287 C   0  0  2  0  0  0  0  0  0  0  0  0
   15.5787   -4.8912   12.6204 C   0  0  0  0  0  0  0  0  0  0  0  0
   15.5145   -3.6626   12.6161 O   0  0  0  0  0  0  0  0  0  0  0  0
   15.9939   -5.0779   10.1550 C   0  0  0  0  0  0  0  0  0  0  0  0
   16.6749   -3.7590    9.8320 C   0  0  0  0  0  0  0  0  0  0  0  0
   16.7504   -3.5010    8.0507 S   0  0  2  0  0  0  0  0  0  0  0  0
   16.8717   -1.7005    8.0001 C   0  0  0  0  0  0  0  0  0  0  0  0
   15.0069   -3.6979    7.6149 C   0  0  0  0  0  0  0  0  0  0  0  0
   14.8391   -4.7117    6.4982 C   0  0  1  0  0  0  0  0  0  0  0  0
   15.5331   -5.9009    6.7988 O   0  0  0  0  0  0  0  0  0  0  0  0
   13.3967   -5.1352    6.3019 C   0  0  1  0  0  0  0  0  0  0  0  0
   12.8228   -4.3113    5.3186 O   0  0  0  0  0  0  0  0  0  0  0  0
   13.5102   -6.5659    5.8157 C   0  0  1  0  0  0  0  0  0  0  0  0
   13.3575   -6.5472    4.4141 O   0  0  0  0  0  0  0  0  0  0  0  0
   14.9172   -7.0280    6.2010 C   0  0  2  0  0  0  0  0  0  0  0  0
   14.9859   -5.5044   13.5123 O   0  0  0  0  0  0  0  0  0  0  0  0
   12.4712   -8.6353   10.5429 N   0  0  0  0  0  0  0  0  0  0  0  0
   12.1978   -7.5234    9.7838 C   0  0  0  0  0  0  0  0  0  0  0  0
   12.9617   -7.2662    8.6667 N   0  0  0  0  0  0  0  0  0  0  0  0
   13.9710   -8.0896    8.3051 C   0  0  0  0  0  0  0  0  0  0  0  0
   14.2501   -9.2237    9.0538 C   0  0  0  0  0  0  0  0  0  0  0  0
   13.4930   -9.4919   10.1923 C   0  0  0  0  0  0  0  0  0  0  0  0
   13.7348  -10.5680   10.9414 N   0  0  0  0  0  0  0  0  0  0  0  0
   15.2933   -9.8651    8.4668 N   0  0  0  0  0  0  0  0  0  0  0  0
   15.6548   -9.1659    7.3663 C   0  0  0  0  0  0  0  0  0  0  0  0
   14.8406   -8.0666    7.2477 N   0  0  0  0  0  0  0  0  0  0  0  0
  2  1  1  6  0  0  0
  2  3  1  0  0  0  0
  2  5  1  0  0  0  0
  3  4  1  0  0  0  0
  3 17  1  0  0  0  0
  5  6  1  0  0  0  0
  7  6  1  1  0  0  0
  7  8  1  0  0  0  0
  7  9  1  0  0  0  0
 10  9  1  1  0  0  0
 10 11  1  0  0  0  0
 10 12  1  0  0  0  0
 11 16  1  0  0  0  0
 12 13  1  6  0  0  0
 12 14  1  0  0  0  0
 14 15  1  6  0  0  0
 14 16  1  0  0  0  0
 16 27  1  1  0  0  0
 18 19  2  0  0  0  0
 18 23  1  0  0  0  0
 19 20  1  0  0  0  0
 20 21  2  0  0  0  0
 21 22  1  0  0  0  0
 21 27  1  0  0  0  0
 22 23  2  0  0  0  0
 22 25  1  0  0  0  0
 23 24  1  0  0  0  0
 25 26  2  0  0  0  0
 26 27  1  0  0  0  0
M  END
>  <CHROM.1>
-177.60679583,-149.19603785,157.09932234,155.86147005,-127.74185657,50.15788617
74.70148880,14.82858772,-6.16916784,8.74592180,-0.07001415,1.13752576,2.03741820

>  <Name>
ligand

>  <RI>
0

>  <Rbt.Current_Directory>
/home/itssahil/PROJECTS/Mol_Feturizer/New_Systems/rnas/3GX5

>  <Rbt.Executable>
rbdock ($Id: //depot/dev/client3/rdock/2013.1/src/exe/rbdock.cxx#4 $)

>  <Rbt.Library>
libRbt.so (2013.1, Build901 2013/11/27)

>  <Rbt.Parameter_File>
/export/apps/rDock/src/rDock_2013.1_src/data/scripts/dock_solv.prm

>  <Rbt.Receptor>
prm/pocket_docking_3.prm

>  <SCORE>
-11.7066

>  <SCORE.INTER>
-14.7457

>  <SCORE.INTER.CONST>
1

>  <SCORE.INTER.POLAR>
0

>  <SCORE.INTER.ROT>
7

>  <SCORE.INTER.SOLV>
14.5537

>  <SCORE.INTER.VDW>
-22.9484

>  <SCORE.INTER.norm>
-0.546136

>  <SCORE.INTRA>
3.03911

>  <SCORE.INTRA.DIHEDRAL>
8.806

>  <SCORE.INTRA.DIHEDRAL.0>
4.28829

>  <SCORE.INTRA.POLAR>
0

>  <SCORE.INTRA.POLAR.0>
0

>  <SCORE.INTRA.REPUL>
0

>  <SCORE.INTRA.REPUL.0>
0

>  <SCORE.INTRA.SOLV>
-1.07308

>  <SCORE.INTRA.SOLV.lig_0>
-48.6018

>  <SCORE.INTRA.VDW>
-0.827349

>  <SCORE.INTRA.VDW.0>
-2.1506

>  <SCORE.INTRA.norm>
0.11256

>  <SCORE.RESTR>
0

>  <SCORE.RESTR.CAVITY>
0

>  <SCORE.RESTR.norm>
0

>  <SCORE.SYSTEM>
0

>  <SCORE.SYSTEM.CONST>
0

>  <SCORE.SYSTEM.DIHEDRAL>
0

>  <SCORE.SYSTEM.SOLV>
0

>  <SCORE.SYSTEM.norm>
0

>  <SCORE.heavy>
27

>  <SCORE.norm>
-0.433576

>  <RMSD>
5.118

$$$$
ligand
 OpenBabel11021811483D
libRbt.so/2013.1/901 2013/11/27
 27 29  0  0  0  0  0  0  0  0999 V2000
   11.8046   -9.8414   12.1471 N   0  0  0  0  0  0  0  0  0  0  0  0
   12.0537   -8.4697   12.5946 C   0  0  2  0  0  0  0  0  0  0  0  0
   10.8331   -7.5463   12.6167 C   0  0  0  0  0  0  0  0  0  0  0  0
   10.6199   -6.8228   11.6448 O   0  0  0  0  0  0  0  0  0  0  0  0
   13.1870   -7.8375   11.8042 C   0  0  0  0  0  0  0  0  0  0  0  0
   13.7145   -6.5872   12.4867 C   0  0  0  0  0  0  0  0  0  0  0  0
   15.0368   -5.8420   11.5165 S   0  0  2  0  0  0  0  0  0  0  0  0
   15.4370   -4.4288   12.5661 C   0  0  0  0  0  0  0  0  0  0  0  0
   14.0741   -5.0035   10.2363 C   0  0  0  0  0  0  0  0  0  0  0  0
   14.9472   -4.0535    9.4374 C   0  0  1  0  0  0  0  0  0  0  0  0
   16.1018   -4.7136    8.9711 O   0  0  0  0  0  0  0  0  0  0  0  0
   14.2596   -3.5327    8.1907 C   0  0  1  0  0  0  0  0  0  0  0  0
   13.6337   -2.3145    8.5058 O   0  0  0  0  0  0  0  0  0  0  0  0
   15.4017   -3.3227    7.2173 C   0  0  1  0  0  0  0  0  0  0  0  0
   15.7157   -1.9482    7.2274 O   0  0  0  0  0  0  0  0  0  0  0  0
   16.5701   -4.1490    7.7591 C   0  0  2  0  0  0  0  0  0  0  0  0
   10.0522   -7.4891   13.5705 O   0  0  0  0  0  0  0  0  0  0  0  0
   14.5258   -7.8139    4.6273 N   0  0  0  0  0  0  0  0  0  0  0  0
   13.8598   -6.8441    5.3366 C   0  0  0  0  0  0  0  0  0  0  0  0
   14.5802   -5.9638    6.1137 N   0  0  0  0  0  0  0  0  0  0  0  0
   15.9281   -6.0371    6.1867 C   0  0  0  0  0  0  0  0  0  0  0  0
   16.6157   -7.0022    5.4652 C   0  0  0  0  0  0  0  0  0  0  0  0
   15.9003   -7.9063    4.6828 C   0  0  0  0  0  0  0  0  0  0  0  0
   16.5244   -8.8520    3.9802 N   0  0  0  0  0  0  0  0  0  0  0  0
   17.9413   -6.8434    5.7134 N   0  0  0  0  0  0  0  0  0  0  0  0
   18.0915   -5.7955    6.5560 C   0  0  0  0  0  0  0  0  0  0  0  0
   16.8540   -5.2801    6.8534 N   0  0  0  0  0  0  0  0  0  0  0  0
  2  1  1  6  0  0  0
  2  3  1  0  0  0  0
  2  5  1  0  0  0  0
  3  4  1  0  0  0  0
  3 17  1  0  0  0  0
  5  6  1  0  0  0  0
  7  6  1  1  0  0  0
  7  8  1  0  0  0  0
  7  9  1  0  0  0  0
 10  9  1  6  0  0  0
 10 11  1  0  0  0  0
 10 12  1  0  0  0  0
 11 16  1  0  0  0  0
 12 13  1  1  0  0  0
 12 14  1  0  0  0  0
 14 15  1  1  0  0  0
 14 16  1  0  0  0  0
 16 27  1  6  0  0  0
 18 19  2  0  0  0  0
 18 23  1  0  0  0  0
 19 20  1  0  0  0  0
 20 21  2  0  0  0  0
 21 22  1  0  0  0  0
 21 27  1  0  0  0  0
 22 23  2  0  0  0  0
 22 25  1  0  0  0  0
 23 24  1  0  0  0  0
 25 26  2  0  0  0  0
 26 27  1  0  0  0  0
M  END
>  <CHROM.1>
-95.16393181,-164.29039435,-179.03355212,-179.83935809,168.38706736,51.44538829
75.39348108,14.57030016,-5.95314624,8.89537502,2.73719919,0.96856309,0.66238308

>  <Name>
ligand

>  <RI>
0

>  <Rbt.Current_Directory>
/home/itssahil/PROJECTS/Mol_Feturizer/New_Systems/rnas/3GX5

>  <Rbt.Executable>
rbdock ($Id: //depot/dev/client3/rdock/2013.1/src/exe/rbdock.cxx#4 $)

>  <Rbt.Library>
libRbt.so (2013.1, Build901 2013/11/27)

>  <Rbt.Parameter_File>
/export/apps/rDock/src/rDock_2013.1_src/data/scripts/dock_solv.prm

>  <Rbt.Receptor>
prm/pocket_docking_7.prm

>  <SCORE>
-13.1886

>  <SCORE.INTER>
-13.1221

>  <SCORE.INTER.CONST>
1

>  <SCORE.INTER.POLAR>
0

>  <SCORE.INTER.ROT>
7

>  <SCORE.INTER.SOLV>
13.4219

>  <SCORE.INTER.VDW>
-21.4887

>  <SCORE.INTER.norm>
-0.486005

>  <SCORE.INTRA>
-0.0664389

>  <SCORE.INTRA.DIHEDRAL>
0.433345

>  <SCORE.INTRA.DIHEDRAL.0>
4.28829

>  <SCORE.INTRA.POLAR>
0

>  <SCORE.INTRA.POLAR.0>
0

>  <SCORE.INTRA.REPUL>
0

>  <SCORE.INTRA.REPUL.0>
0

>  <SCORE.INTRA.SOLV>
-1.24061

>  <SCORE.INTRA.SOLV.lig_0>
-48.6018

>  <SCORE.INTRA.VDW>
0.337194

>  <SCORE.INTRA.VDW.0>
-2.1506

>  <SCORE.INTRA.norm>
-0.0024607

>  <SCORE.RESTR>
0

>  <SCORE.RESTR.CAVITY>
0

>  <SCORE.RESTR.norm>
0

>  <SCORE.SYSTEM>
0

>  <SCORE.SYSTEM.CONST>
0

>  <SCORE.SYSTEM.DIHEDRAL>
0

>  <SCORE.SYSTEM.SOLV>
0

>  <SCORE.SYSTEM.norm>
0

>  <SCORE.heavy>
27

>  <SCORE.norm>
-0.488466

>  <RMSD>
5.120

$$$$
ligand
 OpenBabel11021811483D
libRbt.so/2013.1/901 2013/11/27
 27 29  0  0  0  0  0  0  0  0999 V2000
   12.5348   -5.4492    6.1483 N   0  0  0  0  0  0  0  0  0  0  0  0
   13.5891   -6.0135    5.3034 C   0  0  2  0  0  0  0  0  0  0  0  0
   13.1764   -7.2011    4.4305 C   0  0  0  0  0  0  0  0  0  0  0  0
   13.5353   -7.2246    3.2539 O   0  0  0  0  0  0  0  0  0  0  0  0
   14.8190   -6.3581    6.1266 C   0  0  0  0  0  0  0  0  0  0  0  0
   14.4861   -7.3240    7.2507 C   0  0  0  0  0  0  0  0  0  0  0  0
   15.9767   -7.7998    8.1435 S   0  0  2  0  0  0  0  0  0  0  0  0
   16.5535   -9.1497    7.0927 C   0  0  0  0  0  0  0  0  0  0  0  0
   15.2581   -8.7581    9.4977 C   0  0  0  0  0  0  0  0  0  0  0  0
   14.7303   -7.8435   10.5876 C   0  0  1  0  0  0  0  0  0  0  0  0
   15.6761   -6.8467   10.9005 O   0  0  0  0  0  0  0  0  0  0  0  0
   13.4848   -7.0881   10.1677 C   0  0  1  0  0  0  0  0  0  0  0  0
   12.3603   -7.8273   10.5729 O   0  0  0  0  0  0  0  0  0  0  0  0
   13.5852   -5.7848   10.9341 C   0  0  1  0  0  0  0  0  0  0  0  0
   12.7468   -5.8946   12.0624 O   0  0  0  0  0  0  0  0  0  0  0  0
   15.0502   -5.6610   11.3581 C   0  0  2  0  0  0  0  0  0  0  0  0
   12.4925   -8.1379    4.8518 O   0  0  0  0  0  0  0  0  0  0  0  0
   14.5979   -2.1671    7.4843 N   0  0  0  0  0  0  0  0  0  0  0  0
   13.6774   -3.1044    7.8859 C   0  0  0  0  0  0  0  0  0  0  0  0
   13.9841   -3.9433    8.9347 N   0  0  0  0  0  0  0  0  0  0  0  0
   15.1717   -3.8570    9.5747 C   0  0  0  0  0  0  0  0  0  0  0  0
   16.1059   -2.9064    9.1896 C   0  0  0  0  0  0  0  0  0  0  0  0
   15.8144   -2.0575    8.1239 C   0  0  0  0  0  0  0  0  0  0  0  0
   16.6887   -1.1356    7.7198 N   0  0  0  0  0  0  0  0  0  0  0  0
   17.1899   -3.0351    9.9974 N   0  0  0  0  0  0  0  0  0  0  0  0
   16.9430   -4.0289   10.8816 C   0  0  0  0  0  0  0  0  0  0  0  0
   15.6937   -4.5441   10.6379 N   0  0  0  0  0  0  0  0  0  0  0  0
  2  1  1  1  0  0  0
  2  3  1  0  0  0  0
  2  5  1  0  0  0  0
  3  4  1  0  0  0  0
  3 17  1  0  0  0  0
  5  6  1  0  0  0  0
  7  6  1  6  0  0  0
  7  8  1  0  0  0  0
  7  9  1  0  0  0  0
 10  9  1  6  0  0  0
 10 11  1  0  0  0  0
 10 12  1  0  0  0  0
 11 16  1  0  0  0  0
 12 13  1  1  0  0  0
 12 14  1  0  0  0  0
 14 15  1  1  0  0  0
 14 16  1  0  0  0  0
 16 27  1  6  0  0  0
 18 19  2  0  0  0  0
 18 23  1  0  0  0  0
 19 20  1  0  0  0  0
 20 21  2  0  0  0  0
 21 22  1  0  0  0  0
 21 27  1  0  0  0  0
 22 23  2  0  0  0  0
 22 25  1  0  0  0  0
 23 24  1  0  0  0  0
 25 26  2  0  0  0  0
 26 27  1  0  0  0  0
M  END
>  <CHROM.1>
135.20259717,57.13720449,176.30900918,-84.60996379,-80.21885284,-46.56848414
102.70089899,14.68870072,-5.79205295,8.45123606,-2.83623790,1.27416308,2.15767625

>  <Name>
ligand

>  <RI>
0

>  <Rbt.Current_Directory>
/home/itssahil/PROJECTS/Mol_Feturizer/New_Systems/rnas/3GX5

>  <Rbt.Executable>
rbdock ($Id: //depot/dev/client3/rdock/2013.1/src/exe/rbdock.cxx#4 $)

>  <Rbt.Library>
libRbt.so (2013.1, Build901 2013/11/27)

>  <Rbt.Parameter_File>
/export/apps/rDock/src/rDock_2013.1_src/data/scripts/dock_solv.prm

>  <Rbt.Receptor>
prm/pocket_docking_3.prm

>  <SCORE>
-8.89483

>  <SCORE.INTER>
-8.52231

>  <SCORE.INTER.CONST>
1

>  <SCORE.INTER.POLAR>
0

>  <SCORE.INTER.ROT>
7

>  <SCORE.INTER.SOLV>
21.1449

>  <SCORE.INTER.VDW>
-20.9965

>  <SCORE.INTER.norm>
-0.315641

>  <SCORE.INTRA>
-0.372526

>  <SCORE.INTRA.DIHEDRAL>
0.877395

>  <SCORE.INTRA.DIHEDRAL.0>
4.28829

>  <SCORE.INTRA.POLAR>
0

>  <SCORE.INTRA.POLAR.0>
0

>  <SCORE.INTRA.REPUL>
0

>  <SCORE.INTRA.REPUL.0>
0

>  <SCORE.INTRA.SOLV>
0.622165

>  <SCORE.INTRA.SOLV.lig_0>
-48.6018

>  <SCORE.INTRA.VDW>
-1.12231

>  <SCORE.INTRA.VDW.0>
-2.1506

>  <SCORE.INTRA.norm>
-0.0137973

>  <SCORE.RESTR>
0

>  <SCORE.RESTR.CAVITY>
0

>  <SCORE.RESTR.norm>
0

>  <SCORE.SYSTEM>
0

>  <SCORE.SYSTEM.CONST>
0

>  <SCORE.SYSTEM.DIHEDRAL>
0

>  <SCORE.SYSTEM.SOLV>
0

>  <SCORE.SYSTEM.norm>
0

>  <SCORE.heavy>
27

>  <SCORE.norm>
-0.329438

>  <RMSD>
5.123

$$$$
ligand
 OpenBabel11021811483D
libRbt.so/2013.1/901 2013/11/27
 27 29  0  0  0  0  0  0  0  0999 V2000
   11.9202   -9.2379   12.7161 N   0  0  0  0  0  0  0  0  0  0  0  0
   11.5185   -9.0540   11.3202 C   0  0  2  0  0  0  0  0  0  0  0  0
   12.4308   -9.7016   10.2756 C   0  0  0  0  0  0  0  0  0  0  0  0
   13.4316  -10.3071   10.6570 O   0  0  0  0  0  0  0  0  0  0  0  0
   11.3065   -7.5828   11.0050 C   0  0  0  0  0  0  0  0  0  0  0  0
   12.5392   -6.7580   11.3329 C   0  0  0  0  0  0  0  0  0  0  0  0
   13.1991   -5.9814    9.8474 S   0  0  2  0  0  0  0  0  0  0  0  0
   14.5008   -7.1604    9.4296 C   0  0  0  0  0  0  0  0  0  0  0  0
   14.2046   -4.6696   10.5801 C   0  0  0  0  0  0  0  0  0  0  0  0
   14.9479   -3.8943    9.5080 C   0  0  1  0  0  0  0  0  0  0  0  0
   15.9737   -4.6813    8.9472 O   0  0  0  0  0  0  0  0  0  0  0  0
   14.0610   -3.5108    8.3398 C   0  0  1  0  0  0  0  0  0  0  0  0
   13.5460   -2.2251    8.5776 O   0  0  0  0  0  0  0  0  0  0  0  0
   15.0112   -3.5074    7.1594 C   0  0  1  0  0  0  0  0  0  0  0  0
   15.3686   -2.1664    6.9110 O   0  0  0  0  0  0  0  0  0  0  0  0
   16.2302   -4.3198    7.6017 C   0  0  2  0  0  0  0  0  0  0  0  0
   12.2117   -9.6400    9.0628 O   0  0  0  0  0  0  0  0  0  0  0  0
   13.6355   -7.7063    4.5657 N   0  0  0  0  0  0  0  0  0  0  0  0
   13.1724   -6.5300    5.1032 C   0  0  0  0  0  0  0  0  0  0  0  0
   14.0139   -5.7695    5.8851 N   0  0  0  0  0  0  0  0  0  0  0  0
   15.2851   -6.1599    6.1285 C   0  0  0  0  0  0  0  0  0  0  0  0
   15.7713   -7.3383    5.5812 C   0  0  0  0  0  0  0  0  0  0  0  0
   14.9291   -8.1235    4.7967 C   0  0  0  0  0  0  0  0  0  0  0  0
   15.3573   -9.2657    4.2586 N   0  0  0  0  0  0  0  0  0  0  0  0
   17.0631   -7.4799    5.9755 N   0  0  0  0  0  0  0  0  0  0  0  0
   17.3922   -6.4118    6.7380 C   0  0  0  0  0  0  0  0  0  0  0  0
   16.3037   -5.5806    6.8369 N   0  0  0  0  0  0  0  0  0  0  0  0
  2  1  1  1  0  0  0
  2  3  1  0  0  0  0
  2  5  1  0  0  0  0
  3  4  1  0  0  0  0
  3 17  1  0  0  0  0
  5  6  1  0  0  0  0
  7  6  1  1  0  0  0
  7  8  1  0  0  0  0
  7  9  1  0  0  0  0
 10  9  1  1  0  0  0
 10 11  1  0  0  0  0
 10 12  1  0  0  0  0
 11 16  1  0  0  0  0
 12 13  1  1  0  0  0
 12 14  1  0  0  0  0
 14 15  1  1  0  0  0
 14 16  1  0  0  0  0
 16 27  1  6  0  0  0
 18 19  2  0  0  0  0
 18 23  1  0  0  0  0
 19 20  1  0  0  0  0
 20 21  2  0  0  0  0
 21 22  1  0  0  0  0
 21 27  1  0  0  0  0
 22 23  2  0  0  0  0
 22 25  1  0  0  0  0
 23 24  1  0  0  0  0
 25 26  2  0  0  0  0
 26 27  1  0  0  0  0
M  END
>  <CHROM.1>
-0.96236808,55.50900602,117.92633419,-97.44272536,176.87407695,-70.81508039
96.02389267,14.19967964,-6.42739740,8.26156683,2.99432384,-1.06328027,-2.66815550

>  <Name>
ligand

>  <RI>
0

>  <Rbt.Current_Directory>
/home/itssahil/PROJECTS/Mol_Feturizer/New_Systems/rnas/3GX5

>  <Rbt.Executable>
rbdock ($Id: //depot/dev/client3/rdock/2013.1/src/exe/rbdock.cxx#4 $)

>  <Rbt.Library>
libRbt.so (2013.1, Build901 2013/11/27)

>  <Rbt.Parameter_File>
/export/apps/rDock/src/rDock_2013.1_src/data/scripts/dock_solv.prm

>  <Rbt.Receptor>
prm/pocket_docking_3.prm

>  <SCORE>
-8.11046

>  <SCORE.INTER>
-11.0563

>  <SCORE.INTER.CONST>
1

>  <SCORE.INTER.POLAR>
0

>  <SCORE.INTER.ROT>
7

>  <SCORE.INTER.SOLV>
12.3624

>  <SCORE.INTER.VDW>
-19.7583

>  <SCORE.INTER.norm>
-0.409491

>  <SCORE.INTRA>
2.94322

>  <SCORE.INTRA.DIHEDRAL>
7.14531

>  <SCORE.INTRA.DIHEDRAL.0>
4.28829

>  <SCORE.INTRA.POLAR>
0

>  <SCORE.INTRA.POLAR.0>
0

>  <SCORE.INTRA.REPUL>
0

>  <SCORE.INTRA.REPUL.0>
0

>  <SCORE.INTRA.SOLV>
-0.0620011

>  <SCORE.INTRA.SOLV.lig_0>
-48.6018

>  <SCORE.INTRA.VDW>
-0.598433

>  <SCORE.INTRA.VDW.0>
-2.1506

>  <SCORE.INTRA.norm>
0.109008

>  <SCORE.RESTR>
0.00258558

>  <SCORE.RESTR.CAVITY>
0.00258558

>  <SCORE.RESTR.norm>
9.5762e-05

>  <SCORE.SYSTEM>
0

>  <SCORE.SYSTEM.CONST>
0

>  <SCORE.SYSTEM.DIHEDRAL>
0

>  <SCORE.SYSTEM.SOLV>
0

>  <SCORE.SYSTEM.norm>
0

>  <SCORE.heavy>
27

>  <SCORE.norm>
-0.300387

>  <RMSD>
5.124

$$$$
ligand
 OpenBabel11021811483D
libRbt.so/2013.1/901 2013/11/27
 27 29  0  0  0  0  0  0  0  0999 V2000
   12.8049   -8.9622   11.4806 N   0  0  0  0  0  0  0  0  0  0  0  0
   13.7384   -8.4426   12.4818 C   0  0  2  0  0  0  0  0  0  0  0  0
   14.1065   -9.4080   13.6110 C   0  0  0  0  0  0  0  0  0  0  0  0
   15.2653   -9.4220   14.0243 O   0  0  0  0  0  0  0  0  0  0  0  0
   13.2474   -7.1209   13.0483 C   0  0  0  0  0  0  0  0  0  0  0  0
   13.1979   -6.0400   11.9822 C   0  0  0  0  0  0  0  0  0  0  0  0
   14.8477   -5.6994   11.3440 S   0  0  2  0  0  0  0  0  0  0  0  0
   15.5027   -4.6921   12.6913 C   0  0  0  0  0  0  0  0  0  0  0  0
   14.4757   -4.3965   10.1470 C   0  0  0  0  0  0  0  0  0  0  0  0
   15.7422   -3.9047    9.4709 C   0  0  1  0  0  0  0  0  0  0  0  0
   16.4986   -4.9896    8.9843 O   0  0  0  0  0  0  0  0  0  0  0  0
   15.4619   -3.0422    8.2560 C   0  0  1  0  0  0  0  0  0  0  0  0
   15.4402   -1.6972    8.6628 O   0  0  0  0  0  0  0  0  0  0  0  0
   16.6419   -3.3174    7.3460 C   0  0  1  0  0  0  0  0  0  0  0  0
   17.5472   -2.2469    7.4959 O   0  0  0  0  0  0  0  0  0  0  0  0
   17.2606   -4.6241    7.8472 C   0  0  2  0  0  0  0  0  0  0  0  0
   13.2932  -10.1806   14.1251 O   0  0  0  0  0  0  0  0  0  0  0  0
   13.7872   -7.2512    4.9401 N   0  0  0  0  0  0  0  0  0  0  0  0
   13.5478   -6.2100    5.8035 C   0  0  0  0  0  0  0  0  0  0  0  0
   14.6026   -5.6449    6.4860 N   0  0  0  0  0  0  0  0  0  0  0  0
   15.8660   -6.0955    6.3178 C   0  0  0  0  0  0  0  0  0  0  0  0
   16.1253   -7.1370    5.4388 C   0  0  0  0  0  0  0  0  0  0  0  0
   15.0675   -7.7257    4.7490 C   0  0  0  0  0  0  0  0  0  0  0  0
   15.2754   -8.7331    3.9007 N   0  0  0  0  0  0  0  0  0  0  0  0
   17.4618   -7.3769    5.4585 N   0  0  0  0  0  0  0  0  0  0  0  0
   18.0365   -6.5002    6.3139 C   0  0  0  0  0  0  0  0  0  0  0  0
   17.0623   -5.6942    6.8495 N   0  0  0  0  0  0  0  0  0  0  0  0
  2  1  1  1  0  0  0
  2  3  1  0  0  0  0
  2  5  1  0  0  0  0
  3  4  1  0  0  0  0
  3 17  1  0  0  0  0
  5  6  1  0  0  0  0
  7  6  1  1  0  0  0
  7  8  1  0  0  0  0
  7  9  1  0  0  0  0
 10  9  1  6  0  0  0
 10 11  1  0  0  0  0
 10 12  1  0  0  0  0
 11 16  1  0  0  0  0
 12 13  1  1  0  0  0
 12 14  1  0  0  0  0
 14 15  1  1  0  0  0
 14 16  1  0  0  0  0
 16 27  1  6  0  0  0
 18 19  2  0  0  0  0
 18 23  1  0  0  0  0
 19 20  1  0  0  0  0
 20 21  2  0  0  0  0
 21 22  1  0  0  0  0
 21 27  1  0  0  0  0
 22 23  2  0  0  0  0
 22 25  1  0  0  0  0
 23 24  1  0  0  0  0
 25 26  2  0  0  0  0
 26 27  1  0  0  0  0
M  END
>  <CHROM.1>
141.40733112,-64.07797838,-63.10385174,-77.47103548,178.91593859,49.97452404
58.70169807,15.23356924,-6.11930481,9.08569913,2.51438998,1.22185601,1.01067348

>  <Name>
ligand

>  <RI>
0

>  <Rbt.Current_Directory>
/home/itssahil/PROJECTS/Mol_Feturizer/New_Systems/rnas/3GX5

>  <Rbt.Executable>
rbdock ($Id: //depot/dev/client3/rdock/2013.1/src/exe/rbdock.cxx#4 $)

>  <Rbt.Library>
libRbt.so (2013.1, Build901 2013/11/27)

>  <Rbt.Parameter_File>
/export/apps/rDock/src/rDock_2013.1_src/data/scripts/dock_solv.prm

>  <Rbt.Receptor>
prm/pocket_docking_4.prm

>  <SCORE>
-12.0446

>  <SCORE.INTER>
-11.2979

>  <SCORE.INTER.CONST>
1

>  <SCORE.INTER.POLAR>
0

>  <SCORE.INTER.ROT>
7

>  <SCORE.INTER.SOLV>
11.9287

>  <SCORE.INTER.VDW>
-19.7748

>  <SCORE.INTER.norm>
-0.41844

>  <SCORE.INTRA>
-0.764941

>  <SCORE.INTRA.DIHEDRAL>
0.0147778

>  <SCORE.INTRA.DIHEDRAL.0>
4.28829

>  <SCORE.INTRA.POLAR>
0

>  <SCORE.INTRA.POLAR.0>
0

>  <SCORE.INTRA.REPUL>
0

>  <SCORE.INTRA.REPUL.0>
0

>  <SCORE.INTRA.SOLV>
0.0513742

>  <SCORE.INTRA.SOLV.lig_0>
-48.6018

>  <SCORE.INTRA.VDW>
-0.798017

>  <SCORE.INTRA.VDW.0>
-2.1506

>  <SCORE.INTRA.norm>
-0.0283311

>  <SCORE.RESTR>
0.0182266

>  <SCORE.RESTR.CAVITY>
0.0182266

>  <SCORE.RESTR.norm>
0.000675059

>  <SCORE.SYSTEM>
0

>  <SCORE.SYSTEM.CONST>
0

>  <SCORE.SYSTEM.DIHEDRAL>
0

>  <SCORE.SYSTEM.SOLV>
0

>  <SCORE.SYSTEM.norm>
0

>  <SCORE.heavy>
27

>  <SCORE.norm>
-0.446096

>  <RMSD>
5.129

$$$$
ligand
 OpenBabel11021811483D
libRbt.so/2013.1/901 2013/11/27
 27 29  0  0  0  0  0  0  0  0999 V2000
   11.9874   -8.6880   14.0807 N   0  0  0  0  0  0  0  0  0  0  0  0
   11.4743   -8.3211   12.7594 C   0  0  2  0  0  0  0  0  0  0  0  0
   10.5859   -9.3651   12.0785 C   0  0  0  0  0  0  0  0  0  0  0  0
   10.3075  -10.3957   12.6901 O   0  0  0  0  0  0  0  0  0  0  0  0
   12.6043   -7.8979   11.8360 C   0  0  0  0  0  0  0  0  0  0  0  0
   13.2194   -6.5797   12.2736 C   0  0  0  0  0  0  0  0  0  0  0  0
   14.3944   -5.9860   11.0439 S   0  0  2  0  0  0  0  0  0  0  0  0
   14.6222   -4.2909   11.6215 C   0  0  0  0  0  0  0  0  0  0  0  0
   13.2858   -5.6824    9.6484 C   0  0  0  0  0  0  0  0  0  0  0  0
   13.8319   -4.5867    8.7516 C   0  0  1  0  0  0  0  0  0  0  0  0
   15.1670   -4.8590    8.3917 O   0  0  0  0  0  0  0  0  0  0  0  0
   13.0835   -4.4762    7.4378 C   0  0  1  0  0  0  0  0  0  0  0  0
   12.0653   -3.5191    7.5868 O   0  0  0  0  0  0  0  0  0  0  0  0
   14.1427   -3.9981    6.4654 C   0  0  1  0  0  0  0  0  0  0  0  0
   13.9725   -2.6073    6.3083 O   0  0  0  0  0  0  0  0  0  0  0  0
   15.4875   -4.3078    7.1266 C   0  0  2  0  0  0  0  0  0  0  0  0
   10.1382   -9.2236   10.9373 O   0  0  0  0  0  0  0  0  0  0  0  0
   14.9998   -8.8137    4.5042 N   0  0  0  0  0  0  0  0  0  0  0  0
   14.0053   -8.0634    5.0831 C   0  0  0  0  0  0  0  0  0  0  0  0
   14.3359   -6.8968    5.7370 N   0  0  0  0  0  0  0  0  0  0  0  0
   15.6191   -6.4785    5.8151 C   0  0  0  0  0  0  0  0  0  0  0  0
   16.6326   -7.2183    5.2234 C   0  0  0  0  0  0  0  0  0  0  0  0
   16.3153   -8.4058    4.5673 C   0  0  0  0  0  0  0  0  0  0  0  0
   17.2618   -9.1479    3.9920 N   0  0  0  0  0  0  0  0  0  0  0  0
   17.8057   -6.5713    5.4451 N   0  0  0  0  0  0  0  0  0  0  0  0
   17.5413   -5.4431    6.1437 C   0  0  0  0  0  0  0  0  0  0  0  0
   16.1899   -5.3670    6.3750 N   0  0  0  0  0  0  0  0  0  0  0  0
  2  1  1  1  0  0  0
  2  3  1  0  0  0  0
  2  5  1  0  0  0  0
  3  4  1  0  0  0  0
  3 17  1  0  0  0  0
  5  6  1  0  0  0  0
  7  6  1  1  0  0  0
  7  8  1  0  0  0  0
  7  9  1  0  0  0  0
 10  9  1  1  0  0  0
 10 11  1  0  0  0  0
 10 12  1  0  0  0  0
 11 16  1  0  0  0  0
 12 13  1  1  0  0  0
 12 14  1  0  0  0  0
 14 15  1  1  0  0  0
 14 16  1  0  0  0  0
 16 27  1  6  0  0  0
 18 19  2  0  0  0  0
 18 23  1  0  0  0  0
 19 20  1  0  0  0  0
 20 21  2  0  0  0  0
 21 22  1  0  0  0  0
 21 27  1  0  0  0  0
 22 23  2  0  0  0  0
 22 25  1  0  0  0  0
 23 24  1  0  0  0  0
 25 26  2  0  0  0  0
 26 27  1  0  0  0  0
M  END
>  <CHROM.1>
3.44552251,-68.66210344,-172.13980809,166.76744011,151.99738168,51.69733508
74.03026021,14.05824012,-6.50812276,8.50533284,3.12807198,1.03662409,0.28168466

>  <Name>
ligand

>  <RI>
0

>  <Rbt.Current_Directory>
/home/itssahil/PROJECTS/Mol_Feturizer/New_Systems/rnas/3GX5

>  <Rbt.Executable>
rbdock ($Id: //depot/dev/client3/rdock/2013.1/src/exe/rbdock.cxx#4 $)

>  <Rbt.Library>
libRbt.so (2013.1, Build901 2013/11/27)

>  <Rbt.Parameter_File>
/export/apps/rDock/src/rDock_2013.1_src/data/scripts/dock_solv.prm

>  <Rbt.Receptor>
prm/pocket_docking_6.prm

>  <SCORE>
-13.2696

>  <SCORE.INTER>
-14.306

>  <SCORE.INTER.CONST>
1

>  <SCORE.INTER.POLAR>
0

>  <SCORE.INTER.ROT>
7

>  <SCORE.INTER.SOLV>
13.0326

>  <SCORE.INTER.VDW>
-22.1482

>  <SCORE.INTER.norm>
-0.529852

>  <SCORE.INTRA>
0.994124

>  <SCORE.INTRA.DIHEDRAL>
0.924902

>  <SCORE.INTRA.DIHEDRAL.0>
4.28829

>  <SCORE.INTRA.POLAR>
0

>  <SCORE.INTRA.POLAR.0>
0

>  <SCORE.INTRA.REPUL>
0

>  <SCORE.INTRA.REPUL.0>
0

>  <SCORE.INTRA.SOLV>
-0.546203

>  <SCORE.INTRA.SOLV.lig_0>
-48.6018

>  <SCORE.INTRA.VDW>
0.804774

>  <SCORE.INTRA.VDW.0>
-2.1506

>  <SCORE.INTRA.norm>
0.0368194

>  <SCORE.RESTR>
0.0422719

>  <SCORE.RESTR.CAVITY>
0.0422719

>  <SCORE.RESTR.norm>
0.00156562

>  <SCORE.SYSTEM>
0

>  <SCORE.SYSTEM.CONST>
0

>  <SCORE.SYSTEM.DIHEDRAL>
0

>  <SCORE.SYSTEM.SOLV>
0

>  <SCORE.SYSTEM.norm>
0

>  <SCORE.heavy>
27

>  <SCORE.norm>
-0.491467

>  <RMSD>
5.133

$$$$
ligand
 OpenBabel11021811483D
libRbt.so/2013.1/901 2013/11/27
 27 29  0  0  0  0  0  0  0  0999 V2000
   14.4245   -8.5628   11.3989 N   0  0  0  0  0  0  0  0  0  0  0  0
   13.0667   -8.3959   11.9208 C   0  0  2  0  0  0  0  0  0  0  0  0
   11.9449   -8.4422   10.8804 C   0  0  0  0  0  0  0  0  0  0  0  0
   10.7931   -8.6491   11.2599 O   0  0  0  0  0  0  0  0  0  0  0  0
   12.9600   -7.1372   12.7652 C   0  0  0  0  0  0  0  0  0  0  0  0
   13.0577   -5.8832   11.9134 C   0  0  0  0  0  0  0  0  0  0  0  0
   14.7615   -5.5878   11.4085 S   0  0  2  0  0  0  0  0  0  0  0  0
   15.4097   -4.8383   12.9176 C   0  0  0  0  0  0  0  0  0  0  0  0
   14.5535   -4.1021   10.3995 C   0  0  0  0  0  0  0  0  0  0  0  0
   15.8168   -3.7991    9.6151 C   0  0  1  0  0  0  0  0  0  0  0  0
   16.3550   -4.9799    9.0652 O   0  0  0  0  0  0  0  0  0  0  0  0
   15.5667   -2.8894    8.4284 C   0  0  1  0  0  0  0  0  0  0  0  0
   15.7845   -1.5616    8.8343 O   0  0  0  0  0  0  0  0  0  0  0  0
   16.6082   -3.3285    7.4192 C   0  0  1  0  0  0  0  0  0  0  0  0
   17.6750   -2.4091    7.4885 O   0  0  0  0  0  0  0  0  0  0  0  0
   17.0625   -4.7198    7.8657 C   0  0  2  0  0  0  0  0  0  0  0  0
   12.1433   -8.2864    9.6724 O   0  0  0  0  0  0  0  0  0  0  0  0
   13.0937   -6.4713    4.9333 N   0  0  0  0  0  0  0  0  0  0  0  0
   13.1094   -5.3771    5.7638 C   0  0  0  0  0  0  0  0  0  0  0  0
   14.2595   -5.0765    6.4599 N   0  0  0  0  0  0  0  0  0  0  0  0
   15.3703   -5.8371    6.3368 C   0  0  0  0  0  0  0  0  0  0  0  0
   15.3741   -6.9370    5.4914 C   0  0  0  0  0  0  0  0  0  0  0  0
   14.2152   -7.2600    4.7885 C   0  0  0  0  0  0  0  0  0  0  0  0
   14.1772   -8.3129    3.9715 N   0  0  0  0  0  0  0  0  0  0  0  0
   16.6053   -7.5066    5.5528 N   0  0  0  0  0  0  0  0  0  0  0  0
   17.3668   -6.7777    6.4011 C   0  0  0  0  0  0  0  0  0  0  0  0
   16.6187   -5.7353    6.8901 N   0  0  0  0  0  0  0  0  0  0  0  0
  2  1  1  6  0  0  0
  2  3  1  0  0  0  0
  2  5  1  0  0  0  0
  3  4  1  0  0  0  0
  3 17  1  0  0  0  0
  5  6  1  0  0  0  0
  7  6  1  1  0  0  0
  7  8  1  0  0  0  0
  7  9  1  0  0  0  0
 10  9  1  6  0  0  0
 10 11  1  0  0  0  0
 10 12  1  0  0  0  0
 11 16  1  0  0  0  0
 12 13  1  1  0  0  0
 12 14  1  0  0  0  0
 14 15  1  1  0  0  0
 14 16  1  0  0  0  0
 16 27  1  6  0  0  0
 18 19  2  0  0  0  0
 18 23  1  0  0  0  0
 19 20  1  0  0  0  0
 20 21  2  0  0  0  0
 21 22  1  0  0  0  0
 21 27  1  0  0  0  0
 22 23  2  0  0  0  0
 22 25  1  0  0  0  0
 23 24  1  0  0  0  0
 25 26  2  0  0  0  0
 26 27  1  0  0  0  0
M  END
>  <CHROM.1>
161.78219559,70.00621373,-75.60197665,-79.73833101,-168.43558288,42.90660448
67.60569681,14.73891285,-5.83800721,8.72942155,2.31498364,0.91189614,1.26683212

>  <Name>
ligand

>  <RI>
0

>  <Rbt.Current_Directory>
/home/itssahil/PROJECTS/Mol_Feturizer/New_Systems/rnas/3GX5

>  <Rbt.Executable>
rbdock ($Id: //depot/dev/client3/rdock/2013.1/src/exe/rbdock.cxx#4 $)

>  <Rbt.Library>
libRbt.so (2013.1, Build901 2013/11/27)

>  <Rbt.Parameter_File>
/export/apps/rDock/src/rDock_2013.1_src/data/scripts/dock_solv.prm

>  <Rbt.Receptor>
prm/pocket_docking_3.prm

>  <SCORE>
-12.2687

>  <SCORE.INTER>
-13.718

>  <SCORE.INTER.CONST>
1

>  <SCORE.INTER.POLAR>
0

>  <SCORE.INTER.ROT>
7

>  <SCORE.INTER.SOLV>
13.2806

>  <SCORE.INTER.VDW>
-21.8389

>  <SCORE.INTER.norm>
-0.508075

>  <SCORE.INTRA>
1.44928

>  <SCORE.INTRA.DIHEDRAL>
2.74022

>  <SCORE.INTRA.DIHEDRAL.0>
4.28829

>  <SCORE.INTRA.POLAR>
0

>  <SCORE.INTRA.POLAR.0>
0

>  <SCORE.INTRA.REPUL>
0

>  <SCORE.INTRA.REPUL.0>
0

>  <SCORE.INTRA.SOLV>
1.16525

>  <SCORE.INTRA.SOLV.lig_0>
-48.6018

>  <SCORE.INTRA.VDW>
-0.50346

>  <SCORE.INTRA.VDW.0>
-2.1506

>  <SCORE.INTRA.norm>
0.0536769

>  <SCORE.RESTR>
0

>  <SCORE.RESTR.CAVITY>
0

>  <SCORE.RESTR.norm>
0

>  <SCORE.SYSTEM>
0

>  <SCORE.SYSTEM.CONST>
0

>  <SCORE.SYSTEM.DIHEDRAL>
0

>  <SCORE.SYSTEM.SOLV>
0

>  <SCORE.SYSTEM.norm>
0

>  <SCORE.heavy>
27

>  <SCORE.norm>
-0.454398

>  <RMSD>
5.136

$$$$
ligand
 OpenBabel11021811483D
libRbt.so/2013.1/901 2013/11/27
 27 29  0  0  0  0  0  0  0  0999 V2000
   11.6708   -8.9008   14.8368 N   0  0  0  0  0  0  0  0  0  0  0  0
   11.3438   -8.4669   13.4772 C   0  0  2  0  0  0  0  0  0  0  0  0
   10.8442   -9.5627   12.5324 C   0  0  0  0  0  0  0  0  0  0  0  0
   11.1914  -10.7251   12.7372 O   0  0  0  0  0  0  0  0  0  0  0  0
   12.5061   -7.7131   12.8530 C   0  0  0  0  0  0  0  0  0  0  0  0
   12.1378   -7.1452   11.4932 C   0  0  0  0  0  0  0  0  0  0  0  0
   13.6047   -6.5513   10.6327 S   0  0  2  0  0  0  0  0  0  0  0  0
   13.8922   -5.0115   11.5302 C   0  0  0  0  0  0  0  0  0  0  0  0
   12.8572   -5.8870    9.1265 C   0  0  0  0  0  0  0  0  0  0  0  0
   13.6957   -4.7567    8.5589 C   0  0  1  0  0  0  0  0  0  0  0  0
   15.0248   -5.1786    8.3548 O   0  0  0  0  0  0  0  0  0  0  0  0
   13.2144   -4.2954    7.1973 C   0  0  1  0  0  0  0  0  0  0  0  0
   12.3235   -3.2243    7.3817 O   0  0  0  0  0  0  0  0  0  0  0  0
   14.4839   -3.8360    6.5093 C   0  0  1  0  0  0  0  0  0  0  0  0
   14.5322   -2.4305    6.6104 O   0  0  0  0  0  0  0  0  0  0  0  0
   15.6360   -4.4748    7.2879 C   0  0  2  0  0  0  0  0  0  0  0  0
   10.1105   -9.3332   11.5671 O   0  0  0  0  0  0  0  0  0  0  0  0
   15.0940   -8.9180    4.5708 N   0  0  0  0  0  0  0  0  0  0  0  0
   14.1233   -8.2194    5.2466 C   0  0  0  0  0  0  0  0  0  0  0  0
   14.4652   -7.0613    5.9096 N   0  0  0  0  0  0  0  0  0  0  0  0
   15.7364   -6.6013    5.9032 C   0  0  0  0  0  0  0  0  0  0  0  0
   16.7248   -7.2883    5.2136 C   0  0  0  0  0  0  0  0  0  0  0  0
   16.3966   -8.4669    4.5468 C   0  0  0  0  0  0  0  0  0  0  0  0
   17.3197   -9.1590    3.8785 N   0  0  0  0  0  0  0  0  0  0  0  0
   17.8900   -6.6077    5.3657 N   0  0  0  0  0  0  0  0  0  0  0  0
   17.6437   -5.5099    6.1172 C   0  0  0  0  0  0  0  0  0  0  0  0
   16.3124   -5.4871    6.4526 N   0  0  0  0  0  0  0  0  0  0  0  0
  2  1  1  1  0  0  0
  2  3  1  0  0  0  0
  2  5  1  0  0  0  0
  3  4  1  0  0  0  0
  3 17  1  0  0  0  0
  5  6  1  0  0  0  0
  7  6  1  1  0  0  0
  7  8  1  0  0  0  0
  7  9  1  0  0  0  0
 10  9  1  6  0  0  0
 10 11  1  0  0  0  0
 10 12  1  0  0  0  0
 11 16  1  0  0  0  0
 12 13  1  1  0  0  0
 12 14  1  0  0  0  0
 14 15  1  1  0  0  0
 14 16  1  0  0  0  0
 16 27  1  6  0  0  0
 18 19  2  0  0  0  0
 18 23  1  0  0  0  0
 19 20  1  0  0  0  0
 20 21  2  0  0  0  0
 21 22  1  0  0  0  0
 21 27  1  0  0  0  0
 22 23  2  0  0  0  0
 22 25  1  0  0  0  0
 23 24  1  0  0  0  0
 25 26  2  0  0  0  0
 26 27  1  0  0  0  0
M  END
>  <CHROM.1>
-26.52523883,-174.71610672,-168.59121359,-75.79659539,151.74946470,54.72004594
54.28681964,14.01191425,-6.66378982,8.55586352,-2.87128452,1.01811514,-0.01653292

>  <Name>
ligand

>  <RI>
0

>  <Rbt.Current_Directory>
/home/itssahil/PROJECTS/Mol_Feturizer/New_Systems/rnas/3GX5

>  <Rbt.Executable>
rbdock ($Id: //depot/dev/client3/rdock/2013.1/src/exe/rbdock.cxx#4 $)

>  <Rbt.Library>
libRbt.so (2013.1, Build901 2013/11/27)

>  <Rbt.Parameter_File>
/export/apps/rDock/src/rDock_2013.1_src/data/scripts/dock_solv.prm

>  <Rbt.Receptor>
prm/pocket_docking_5.prm

>  <SCORE>
-13.3936

>  <SCORE.INTER>
-13.9803

>  <SCORE.INTER.CONST>
1

>  <SCORE.INTER.POLAR>
0

>  <SCORE.INTER.ROT>
7

>  <SCORE.INTER.SOLV>
12.3332

>  <SCORE.INTER.VDW>
-21.6979

>  <SCORE.INTER.norm>
-0.517789

>  <SCORE.INTRA>
0.586702

>  <SCORE.INTRA.DIHEDRAL>
0.954242

>  <SCORE.INTRA.DIHEDRAL.0>
4.28829

>  <SCORE.INTRA.POLAR>
0

>  <SCORE.INTRA.POLAR.0>
0

>  <SCORE.INTRA.REPUL>
0

>  <SCORE.INTRA.REPUL.0>
0

>  <SCORE.INTRA.SOLV>
-1.19004

>  <SCORE.INTRA.SOLV.lig_0>
-48.6018

>  <SCORE.INTRA.VDW>
0.704599

>  <SCORE.INTRA.VDW.0>
-2.1506

>  <SCORE.INTRA.norm>
0.0217297

>  <SCORE.RESTR>
0

>  <SCORE.RESTR.CAVITY>
0

>  <SCORE.RESTR.norm>
0

>  <SCORE.SYSTEM>
0

>  <SCORE.SYSTEM.CONST>
0

>  <SCORE.SYSTEM.DIHEDRAL>
0

>  <SCORE.SYSTEM.SOLV>
0

>  <SCORE.SYSTEM.norm>
0

>  <SCORE.heavy>
27

>  <SCORE.norm>
-0.496059

>  <RMSD>
5.138

$$$$
ligand
 OpenBabel11021811483D
libRbt.so/2013.1/901 2013/11/27
 27 29  0  0  0  0  0  0  0  0999 V2000
   14.3609   -8.5553   11.2266 N   0  0  0  0  0  0  0  0  0  0  0  0
   13.0188   -8.3875   11.7874 C   0  0  2  0  0  0  0  0  0  0  0  0
   11.8710   -8.3879   10.7748 C   0  0  0  0  0  0  0  0  0  0  0  0
   10.7368   -8.6618   11.1650 O   0  0  0  0  0  0  0  0  0  0  0  0
   12.9498   -7.1540   12.6720 C   0  0  0  0  0  0  0  0  0  0  0  0
   13.0362   -5.8758   11.8558 C   0  0  0  0  0  0  0  0  0  0  0  0
   14.7208   -5.6010   11.2796 S   0  0  2  0  0  0  0  0  0  0  0  0
   15.4464   -4.8791   12.7667 C   0  0  0  0  0  0  0  0  0  0  0  0
   14.4925   -4.1007   10.2969 C   0  0  0  0  0  0  0  0  0  0  0  0
   15.7693   -3.7349    9.5627 C   0  0  1  0  0  0  0  0  0  0  0  0
   16.3706   -4.8834    9.0100 O   0  0  0  0  0  0  0  0  0  0  0  0
   15.5252   -2.8115    8.3854 C   0  0  1  0  0  0  0  0  0  0  0  0
   15.6782   -1.4850    8.8233 O   0  0  0  0  0  0  0  0  0  0  0  0
   16.6165   -3.1910    7.4050 C   0  0  1  0  0  0  0  0  0  0  0  0
   17.6444   -2.2338    7.5286 O   0  0  0  0  0  0  0  0  0  0  0  0
   17.1082   -4.5729    7.8409 C   0  0  2  0  0  0  0  0  0  0  0  0
   12.0314   -8.1305    9.5786 O   0  0  0  0  0  0  0  0  0  0  0  0
   13.1797   -6.9156    5.2920 N   0  0  0  0  0  0  0  0  0  0  0  0
   13.0988   -5.9088    6.2231 C   0  0  0  0  0  0  0  0  0  0  0  0
   14.2559   -5.4199    6.7886 N   0  0  0  0  0  0  0  0  0  0  0  0
   15.4661   -5.9117    6.4407 C   0  0  0  0  0  0  0  0  0  0  0  0
   15.5648   -6.9188    5.4916 C   0  0  0  0  0  0  0  0  0  0  0  0
   14.4027   -7.4307    4.9182 C   0  0  0  0  0  0  0  0  0  0  0  0
   14.4557   -8.4032    4.0076 N   0  0  0  0  0  0  0  0  0  0  0  0
   16.8807   -7.2123    5.3297 N   0  0  0  0  0  0  0  0  0  0  0  0
   17.5981   -6.4017    6.1414 C   0  0  0  0  0  0  0  0  0  0  0  0
   16.7370   -5.5846    6.8316 N   0  0  0  0  0  0  0  0  0  0  0  0
  2  1  1  6  0  0  0
  2  3  1  0  0  0  0
  2  5  1  0  0  0  0
  3  4  1  0  0  0  0
  3 17  1  0  0  0  0
  5  6  1  0  0  0  0
  7  6  1  1  0  0  0
  7  8  1  0  0  0  0
  7  9  1  0  0  0  0
 10  9  1  6  0  0  0
 10 11  1  0  0  0  0
 10 12  1  0  0  0  0
 11 16  1  0  0  0  0
 12 13  1  1  0  0  0
 12 14  1  0  0  0  0
 14 15  1  1  0  0  0
 14 16  1  0  0  0  0
 16 27  1  6  0  0  0
 18 19  2  0  0  0  0
 18 23  1  0  0  0  0
 19 20  1  0  0  0  0
 20 21  2  0  0  0  0
 21 22  1  0  0  0  0
 21 27  1  0  0  0  0
 22 23  2  0  0  0  0
 22 25  1  0  0  0  0
 23 24  1  0  0  0  0
 25 26  2  0  0  0  0
 26 27  1  0  0  0  0
M  END
>  <CHROM.1>
157.97464997,70.28205324,-74.34308629,-80.97554641,-173.81822250,42.69128936
52.77335888,14.76290989,-5.83167532,8.70594923,2.48285910,0.90147032,1.17182350

>  <Name>
ligand

>  <RI>
0

>  <Rbt.Current_Directory>
/home/itssahil/PROJECTS/Mol_Feturizer/New_Systems/rnas/3GX5

>  <Rbt.Executable>
rbdock ($Id: //depot/dev/client3/rdock/2013.1/src/exe/rbdock.cxx#4 $)

>  <Rbt.Library>
libRbt.so (2013.1, Build901 2013/11/27)

>  <Rbt.Parameter_File>
/export/apps/rDock/src/rDock_2013.1_src/data/scripts/dock_solv.prm

>  <Rbt.Receptor>
prm/pocket_docking_4.prm

>  <SCORE>
-12.8752

>  <SCORE.INTER>
-13.865

>  <SCORE.INTER.CONST>
1

>  <SCORE.INTER.POLAR>
0

>  <SCORE.INTER.ROT>
7

>  <SCORE.INTER.SOLV>
12.9107

>  <SCORE.INTER.VDW>
-21.8136

>  <SCORE.INTER.norm>
-0.513519

>  <SCORE.INTRA>
0.989852

>  <SCORE.INTRA.DIHEDRAL>
2.29863

>  <SCORE.INTRA.DIHEDRAL.0>
4.28829

>  <SCORE.INTRA.POLAR>
0

>  <SCORE.INTRA.POLAR.0>
0

>  <SCORE.INTRA.REPUL>
0

>  <SCORE.INTRA.REPUL.0>
0

>  <SCORE.INTRA.SOLV>
1.21272

>  <SCORE.INTRA.SOLV.lig_0>
-48.6018

>  <SCORE.INTRA.VDW>
-0.765827

>  <SCORE.INTRA.VDW.0>
-2.1506

>  <SCORE.INTRA.norm>
0.0366612

>  <SCORE.RESTR>
0

>  <SCORE.RESTR.CAVITY>
0

>  <SCORE.RESTR.norm>
0

>  <SCORE.SYSTEM>
0

>  <SCORE.SYSTEM.CONST>
0

>  <SCORE.SYSTEM.DIHEDRAL>
0

>  <SCORE.SYSTEM.SOLV>
0

>  <SCORE.SYSTEM.norm>
0

>  <SCORE.heavy>
27

>  <SCORE.norm>
-0.476858

>  <RMSD>
5.149

$$$$
ligand
 OpenBabel11021811483D
libRbt.so/2013.1/901 2013/11/27
 27 29  0  0  0  0  0  0  0  0999 V2000
   15.9808   -0.9392    8.9219 N   0  0  0  0  0  0  0  0  0  0  0  0
   15.9975   -1.9676    7.8798 C   0  0  2  0  0  0  0  0  0  0  0  0
   14.6629   -2.6699    7.6183 C   0  0  0  0  0  0  0  0  0  0  0  0
   14.1663   -3.3511    8.5144 O   0  0  0  0  0  0  0  0  0  0  0  0
   17.0949   -2.9862    8.1391 C   0  0  0  0  0  0  0  0  0  0  0  0
   17.1698   -4.0211    7.0298 C   0  0  0  0  0  0  0  0  0  0  0  0
   16.7988   -5.6649    7.6666 S   0  0  2  0  0  0  0  0  0  0  0  0
   18.4632   -6.2180    8.0941 C   0  0  0  0  0  0  0  0  0  0  0  0
   16.5674   -6.5729    6.1204 C   0  0  0  0  0  0  0  0  0  0  0  0
   15.1060   -6.9257    5.9132 C   0  0  1  0  0  0  0  0  0  0  0  0
   14.7767   -8.1064    6.6087 O   0  0  0  0  0  0  0  0  0  0  0  0
   14.1644   -5.8703    6.4591 C   0  0  1  0  0  0  0  0  0  0  0  0
   13.8503   -4.9768    5.4208 O   0  0  0  0  0  0  0  0  0  0  0  0
   12.9457   -6.6661    6.8806 C   0  0  1  0  0  0  0  0  0  0  0  0
   11.9833   -6.5343    5.8587 O   0  0  0  0  0  0  0  0  0  0  0  0
   13.4148   -8.1178    6.9987 C   0  0  2  0  0  0  0  0  0  0  0  0
   14.0615   -2.5891    6.5438 O   0  0  0  0  0  0  0  0  0  0  0  0
   15.1893   -7.2032   11.8395 N   0  0  0  0  0  0  0  0  0  0  0  0
   15.4574   -6.4923   10.6950 C   0  0  0  0  0  0  0  0  0  0  0  0
   14.8921   -6.8939    9.5047 N   0  0  0  0  0  0  0  0  0  0  0  0
   14.0779   -7.9715    9.4458 C   0  0  0  0  0  0  0  0  0  0  0  0
   13.7867   -8.6911   10.5956 C   0  0  0  0  0  0  0  0  0  0  0  0
   14.3591   -8.3034   11.8053 C   0  0  0  0  0  0  0  0  0  0  0  0
   14.1089   -8.9732   12.9306 N   0  0  0  0  0  0  0  0  0  0  0  0
   12.9487   -9.7035   10.2534 N   0  0  0  0  0  0  0  0  0  0  0  0
   12.7017   -9.6180    8.9259 C   0  0  0  0  0  0  0  0  0  0  0  0
   13.3883   -8.5457    8.4116 N   0  0  0  0  0  0  0  0  0  0  0  0
  2  1  1  1  0  0  0
  2  3  1  0  0  0  0
  2  5  1  0  0  0  0
  3  4  1  0  0  0  0
  3 17  1  0  0  0  0
  5  6  1  0  0  0  0
  7  6  1  6  0  0  0
  7  8  1  0  0  0  0
  7  9  1  0  0  0  0
 10  9  1  1  0  0  0
 10 11  1  0  0  0  0
 10 12  1  0  0  0  0
 11 16  1  0  0  0  0
 12 13  1  6  0  0  0
 12 14  1  0  0  0  0
 14 15  1  6  0  0  0
 14 16  1  0  0  0  0
 16 27  1  1  0  0  0
 18 19  2  0  0  0  0
 18 23  1  0  0  0  0
 19 20  1  0  0  0  0
 20 21  2  0  0  0  0
 21 22  1  0  0  0  0
 21 27  1  0  0  0  0
 22 23  2  0  0  0  0
 22 25  1  0  0  0  0
 23 24  1  0  0  0  0
 25 26  2  0  0  0  0
 26 27  1  0  0  0  0
M  END
>  <CHROM.1>
-64.24930332,-177.17657503,-116.87837756,-91.24442975,-108.87226463,-83.62615326
54.63691423,14.84795152,-6.08780502,8.23248597,-0.99487843,0.97466176,2.16968916

>  <Name>
ligand

>  <RI>
0

>  <Rbt.Current_Directory>
/home/itssahil/PROJECTS/Mol_Feturizer/New_Systems/rnas/3GX5

>  <Rbt.Executable>
rbdock ($Id: //depot/dev/client3/rdock/2013.1/src/exe/rbdock.cxx#4 $)

>  <Rbt.Library>
libRbt.so (2013.1, Build901 2013/11/27)

>  <Rbt.Parameter_File>
/export/apps/rDock/src/rDock_2013.1_src/data/scripts/dock_solv.prm

>  <Rbt.Receptor>
prm/pocket_docking_2.prm

>  <SCORE>
-0.850164

>  <SCORE.INTER>
-4.63865

>  <SCORE.INTER.CONST>
1

>  <SCORE.INTER.POLAR>
0

>  <SCORE.INTER.ROT>
7

>  <SCORE.INTER.SOLV>
15.7862

>  <SCORE.INTER.VDW>
-16.6212

>  <SCORE.INTER.norm>
-0.171802

>  <SCORE.INTRA>
3.13306

>  <SCORE.INTRA.DIHEDRAL>
10.9172

>  <SCORE.INTRA.DIHEDRAL.0>
4.28829

>  <SCORE.INTRA.POLAR>
0

>  <SCORE.INTRA.POLAR.0>
0

>  <SCORE.INTRA.REPUL>
0

>  <SCORE.INTRA.REPUL.0>
0

>  <SCORE.INTRA.SOLV>
-0.574569

>  <SCORE.INTRA.SOLV.lig_0>
-48.6018

>  <SCORE.INTRA.VDW>
-2.03824

>  <SCORE.INTRA.VDW.0>
-2.1506

>  <SCORE.INTRA.norm>
0.116039

>  <SCORE.RESTR>
0.655426

>  <SCORE.RESTR.CAVITY>
0.655426

>  <SCORE.RESTR.norm>
0.024275

>  <SCORE.SYSTEM>
0

>  <SCORE.SYSTEM.CONST>
0

>  <SCORE.SYSTEM.DIHEDRAL>
0

>  <SCORE.SYSTEM.SOLV>
0

>  <SCORE.SYSTEM.norm>
0

>  <SCORE.heavy>
27

>  <SCORE.norm>
-0.0314875

>  <RMSD>
5.155

$$$$
ligand
 OpenBabel11021811483D
libRbt.so/2013.1/901 2013/11/27
 27 29  0  0  0  0  0  0  0  0999 V2000
   17.7209   -8.3934   10.5185 N   0  0  0  0  0  0  0  0  0  0  0  0
   16.6754   -8.4350   11.5427 C   0  0  2  0  0  0  0  0  0  0  0  0
   16.8116   -9.5464   12.5863 C   0  0  0  0  0  0  0  0  0  0  0  0
   17.5828  -10.4784   12.3619 O   0  0  0  0  0  0  0  0  0  0  0  0
   15.2947   -8.4642   10.9089 C   0  0  0  0  0  0  0  0  0  0  0  0
   15.0117   -7.1927   10.1274 C   0  0  0  0  0  0  0  0  0  0  0  0
   14.8631   -5.7824   11.2384 S   0  0  2  0  0  0  0  0  0  0  0  0
   13.2002   -6.0648   11.8819 C   0  0  0  0  0  0  0  0  0  0  0  0
   14.5076   -4.4648   10.0526 C   0  0  0  0  0  0  0  0  0  0  0  0
   15.7881   -3.9262    9.4417 C   0  0  1  0  0  0  0  0  0  0  0  0
   16.6229   -4.9831    9.0266 O   0  0  0  0  0  0  0  0  0  0  0  0
   15.5416   -3.1038    8.1922 C   0  0  1  0  0  0  0  0  0  0  0  0
   15.4319   -1.7532    8.5651 O   0  0  0  0  0  0  0  0  0  0  0  0
   16.7861   -3.3402    7.3607 C   0  0  1  0  0  0  0  0  0  0  0  0
   17.6292   -2.2242    7.5388 O   0  0  0  0  0  0  0  0  0  0  0  0
   17.4343   -4.6047    7.9286 C   0  0  2  0  0  0  0  0  0  0  0  0
   16.1771   -9.5545   13.6446 O   0  0  0  0  0  0  0  0  0  0  0  0
   14.2917   -7.3664    4.7797 N   0  0  0  0  0  0  0  0  0  0  0  0
   13.9559   -6.3074    5.5878 C   0  0  0  0  0  0  0  0  0  0  0  0
   14.9328   -5.7065    6.3510 N   0  0  0  0  0  0  0  0  0  0  0  0
   16.2130   -6.1393    6.3153 C   0  0  0  0  0  0  0  0  0  0  0  0
   16.5699   -7.1987    5.4937 C   0  0  0  0  0  0  0  0  0  0  0  0
   15.5912   -7.8233    4.7235 C   0  0  0  0  0  0  0  0  0  0  0  0
   15.8935   -8.8486    3.9266 N   0  0  0  0  0  0  0  0  0  0  0  0
   17.9019   -7.4147    5.6461 N   0  0  0  0  0  0  0  0  0  0  0  0
   18.3798   -6.5062    6.5275 C   0  0  0  0  0  0  0  0  0  0  0  0
   17.3473   -5.7037    6.9464 N   0  0  0  0  0  0  0  0  0  0  0  0
  2  1  1  6  0  0  0
  2  3  1  0  0  0  0
  2  5  1  0  0  0  0
  3  4  1  0  0  0  0
  3 17  1  0  0  0  0
  5  6  1  0  0  0  0
  7  6  1  6  0  0  0
  7  8  1  0  0  0  0
  7  9  1  0  0  0  0
 10  9  1  6  0  0  0
 10 11  1  0  0  0  0
 10 12  1  0  0  0  0
 11 16  1  0  0  0  0
 12 13  1  1  0  0  0
 12 14  1  0  0  0  0
 14 15  1  1  0  0  0
 14 16  1  0  0  0  0
 16 27  1  6  0  0  0
 18 19  2  0  0  0  0
 18 23  1  0  0  0  0
 19 20  1  0  0  0  0
 20 21  2  0  0  0  0
 21 22  1  0  0  0  0
 21 27  1  0  0  0  0
 22 23  2  0  0  0  0
 22 25  1  0  0  0  0
 23 24  1  0  0  0  0
 25 26  2  0  0  0  0
 26 27  1  0  0  0  0
M  END
>  <CHROM.1>
-15.02546005,-63.89733871,-67.90024420,-77.20751901,-83.42642833,47.06343047
61.40913792,16.02142644,-6.29795069,8.71463574,-1.65978910,1.41027534,-1.01390696

>  <Name>
ligand

>  <RI>
0

>  <Rbt.Current_Directory>
/home/itssahil/PROJECTS/Mol_Feturizer/New_Systems/rnas/3GX5

>  <Rbt.Executable>
rbdock ($Id: //depot/dev/client3/rdock/2013.1/src/exe/rbdock.cxx#4 $)

>  <Rbt.Library>
libRbt.so (2013.1, Build901 2013/11/27)

>  <Rbt.Parameter_File>
/export/apps/rDock/src/rDock_2013.1_src/data/scripts/dock_solv.prm

>  <Rbt.Receptor>
prm/pocket_docking_6.prm

>  <SCORE>
-10.1556

>  <SCORE.INTER>
-9.49934

>  <SCORE.INTER.CONST>
1

>  <SCORE.INTER.POLAR>
0

>  <SCORE.INTER.ROT>
7

>  <SCORE.INTER.SOLV>
13.0225

>  <SCORE.INTER.VDW>
-18.9404

>  <SCORE.INTER.norm>
-0.351827

>  <SCORE.INTRA>
-0.65627

>  <SCORE.INTRA.DIHEDRAL>
0.798381

>  <SCORE.INTRA.DIHEDRAL.0>
4.28829

>  <SCORE.INTRA.POLAR>
0

>  <SCORE.INTRA.POLAR.0>
0

>  <SCORE.INTRA.REPUL>
0

>  <SCORE.INTRA.REPUL.0>
0

>  <SCORE.INTRA.SOLV>
0.433283

>  <SCORE.INTRA.SOLV.lig_0>
-48.6018

>  <SCORE.INTRA.VDW>
-1.2721

>  <SCORE.INTRA.VDW.0>
-2.1506

>  <SCORE.INTRA.norm>
-0.0243063

>  <SCORE.RESTR>
0

>  <SCORE.RESTR.CAVITY>
0

>  <SCORE.RESTR.norm>
0

>  <SCORE.SYSTEM>
0

>  <SCORE.SYSTEM.CONST>
0

>  <SCORE.SYSTEM.DIHEDRAL>
0

>  <SCORE.SYSTEM.SOLV>
0

>  <SCORE.SYSTEM.norm>
0

>  <SCORE.heavy>
27

>  <SCORE.norm>
-0.376134

>  <RMSD>
5.160

$$$$
ligand
 OpenBabel11021811483D
libRbt.so/2013.1/901 2013/11/27
 27 29  0  0  0  0  0  0  0  0999 V2000
   13.0779  -10.9699   10.9267 N   0  0  0  0  0  0  0  0  0  0  0  0
   13.4205   -9.9588   11.9287 C   0  0  2  0  0  0  0  0  0  0  0  0
   13.9499  -10.4962   13.2606 C   0  0  0  0  0  0  0  0  0  0  0  0
   14.6831   -9.7785   13.9396 O   0  0  0  0  0  0  0  0  0  0  0  0
   12.2581   -9.0081   12.1609 C   0  0  0  0  0  0  0  0  0  0  0  0
   11.9614   -8.1763   10.9250 C   0  0  0  0  0  0  0  0  0  0  0  0
   13.3858   -7.1675   10.4795 S   0  0  2  0  0  0  0  0  0  0  0  0
   13.2582   -5.8747   11.7332 C   0  0  0  0  0  0  0  0  0  0  0  0
   12.7234   -6.2724    9.0552 C   0  0  0  0  0  0  0  0  0  0  0  0
   13.7436   -5.2894    8.5113 C   0  0  1  0  0  0  0  0  0  0  0  0
   14.9405   -5.9522    8.1731 O   0  0  0  0  0  0  0  0  0  0  0  0
   13.2878   -4.6193    7.2300 C   0  0  1  0  0  0  0  0  0  0  0  0
   12.6530   -3.4107    7.5635 O   0  0  0  0  0  0  0  0  0  0  0  0
   14.5813   -4.3672    6.4821 C   0  0  1  0  0  0  0  0  0  0  0  0
   14.9280   -3.0157    6.6851 O   0  0  0  0  0  0  0  0  0  0  0  0
   15.6195   -5.2940    7.1182 C   0  0  2  0  0  0  0  0  0  0  0  0
   13.6791  -11.6229   13.6847 O   0  0  0  0  0  0  0  0  0  0  0  0
   14.0090   -8.5867    3.3788 N   0  0  0  0  0  0  0  0  0  0  0  0
   13.2598   -7.6682    4.0732 C   0  0  0  0  0  0  0  0  0  0  0  0
   13.8697   -6.8865    5.0296 N   0  0  0  0  0  0  0  0  0  0  0  0
   15.1903   -7.0065    5.2927 C   0  0  0  0  0  0  0  0  0  0  0  0
   15.9627   -7.9197    4.5899 C   0  0  0  0  0  0  0  0  0  0  0  0
   15.3582   -8.7248    3.6267 C   0  0  0  0  0  0  0  0  0  0  0  0
   16.0654   -9.6188    2.9351 N   0  0  0  0  0  0  0  0  0  0  0  0
   17.2387   -7.8245    5.0448 N   0  0  0  0  0  0  0  0  0  0  0  0
   17.2777   -6.8651    5.9980 C   0  0  0  0  0  0  0  0  0  0  0  0
   16.0178   -6.3432    6.1587 N   0  0  0  0  0  0  0  0  0  0  0  0
  2  1  1  6  0  0  0
  2  3  1  0  0  0  0
  2  5  1  0  0  0  0
  3  4  1  0  0  0  0
  3 17  1  0  0  0  0
  5  6  1  0  0  0  0
  7  6  1  1  0  0  0
  7  8  1  0  0  0  0
  7  9  1  0  0  0  0
 10  9  1  6  0  0  0
 10 11  1  0  0  0  0
 10 12  1  0  0  0  0
 11 16  1  0  0  0  0
 12 13  1  1  0  0  0
 12 14  1  0  0  0  0
 14 15  1  1  0  0  0
 14 16  1  0  0  0  0
 16 27  1  6  0  0  0
 18 19  2  0  0  0  0
 18 23  1  0  0  0  0
 19 20  1  0  0  0  0
 20 21  2  0  0  0  0
 21 22  1  0  0  0  0
 21 27  1  0  0  0  0
 22 23  2  0  0  0  0
 22 25  1  0  0  0  0
 23 24  1  0  0  0  0
 25 26  2  0  0  0  0
 26 27  1  0  0  0  0
M  END
>  <CHROM.1>
154.21856276,-65.81036223,-60.95959232,-76.16404704,177.87534072,56.64972028
74.12506126,14.23788469,-7.32704428,8.22950835,-2.29610256,1.23767116,-0.52834922

>  <Name>
ligand

>  <RI>
0

>  <Rbt.Current_Directory>
/home/itssahil/PROJECTS/Mol_Feturizer/New_Systems/rnas/3GX5

>  <Rbt.Executable>
rbdock ($Id: //depot/dev/client3/rdock/2013.1/src/exe/rbdock.cxx#4 $)

>  <Rbt.Library>
libRbt.so (2013.1, Build901 2013/11/27)

>  <Rbt.Parameter_File>
/export/apps/rDock/src/rDock_2013.1_src/data/scripts/dock_solv.prm

>  <Rbt.Receptor>
prm/pocket_docking_5.prm

>  <SCORE>
-11.7446

>  <SCORE.INTER>
-11.1369

>  <SCORE.INTER.CONST>
1

>  <SCORE.INTER.POLAR>
0

>  <SCORE.INTER.ROT>
7

>  <SCORE.INTER.SOLV>
16.6154

>  <SCORE.INTER.VDW>
-21.2297

>  <SCORE.INTER.norm>
-0.412477

>  <SCORE.INTRA>
-0.607676

>  <SCORE.INTRA.DIHEDRAL>
-0.404547

>  <SCORE.INTRA.DIHEDRAL.0>
4.28829

>  <SCORE.INTRA.POLAR>
0

>  <SCORE.INTRA.POLAR.0>
0

>  <SCORE.INTRA.REPUL>
0

>  <SCORE.INTRA.REPUL.0>
0

>  <SCORE.INTRA.SOLV>
0.0229392

>  <SCORE.INTRA.SOLV.lig_0>
-48.6018

>  <SCORE.INTRA.VDW>
-0.416872

>  <SCORE.INTRA.VDW.0>
-2.1506

>  <SCORE.INTRA.norm>
-0.0225065

>  <SCORE.RESTR>
0

>  <SCORE.RESTR.CAVITY>
0

>  <SCORE.RESTR.norm>
0

>  <SCORE.SYSTEM>
0

>  <SCORE.SYSTEM.CONST>
0

>  <SCORE.SYSTEM.DIHEDRAL>
0

>  <SCORE.SYSTEM.SOLV>
0

>  <SCORE.SYSTEM.norm>
0

>  <SCORE.heavy>
27

>  <SCORE.norm>
-0.434984

>  <RMSD>
5.165

$$$$
ligand
 OpenBabel11021811483D
libRbt.so/2013.1/901 2013/11/27
 27 29  0  0  0  0  0  0  0  0999 V2000
   16.7872   -3.2112    8.3872 N   0  0  0  0  0  0  0  0  0  0  0  0
   15.7861   -3.7538    7.4668 C   0  0  2  0  0  0  0  0  0  0  0  0
   14.3827   -3.1542    7.5831 C   0  0  0  0  0  0  0  0  0  0  0  0
   13.5174   -3.5124    6.7852 O   0  0  0  0  0  0  0  0  0  0  0  0
   15.7283   -5.2694    7.5587 C   0  0  0  0  0  0  0  0  0  0  0  0
   15.1300   -5.8827    6.3044 C   0  0  0  0  0  0  0  0  0  0  0  0
   15.1078   -7.6801    6.4228 S   0  0  2  0  0  0  0  0  0  0  0  0
   14.5722   -8.0974    4.7500 C   0  0  0  0  0  0  0  0  0  0  0  0
   13.5524   -7.9329    7.3090 C   0  0  0  0  0  0  0  0  0  0  0  0
   13.7211   -8.9552    8.4179 C   0  0  1  0  0  0  0  0  0  0  0  0
   14.8570   -8.6591    9.1977 O   0  0  0  0  0  0  0  0  0  0  0  0
   12.5616   -8.9584    9.3945 C   0  0  1  0  0  0  0  0  0  0  0  0
   11.6291   -9.9214    8.9724 O   0  0  0  0  0  0  0  0  0  0  0  0
   13.2042   -9.3606   10.7066 C   0  0  1  0  0  0  0  0  0  0  0  0
   12.9478  -10.7339   10.8969 O   0  0  0  0  0  0  0  0  0  0  0  0
   14.7034   -9.1086   10.5324 C   0  0  2  0  0  0  0  0  0  0  0  0
   14.0782   -2.3202    8.4401 O   0  0  0  0  0  0  0  0  0  0  0  0
   14.3309   -3.9775   11.5080 N   0  0  0  0  0  0  0  0  0  0  0  0
   13.6891   -4.6985   10.5305 C   0  0  0  0  0  0  0  0  0  0  0  0
   13.9204   -6.0529   10.4313 N   0  0  0  0  0  0  0  0  0  0  0  0
   14.7639   -6.6823   11.2798 C   0  0  0  0  0  0  0  0  0  0  0  0
   15.4085   -5.9700   12.2808 C   0  0  0  0  0  0  0  0  0  0  0  0
   15.1928   -4.5977   12.3874 C   0  0  0  0  0  0  0  0  0  0  0  0
   15.7988   -3.8775   13.3318 N   0  0  0  0  0  0  0  0  0  0  0  0
   16.1784   -6.8407   12.9831 N   0  0  0  0  0  0  0  0  0  0  0  0
   16.0134   -8.0744   12.4526 C   0  0  0  0  0  0  0  0  0  0  0  0
   15.1344   -7.9949   11.4007 N   0  0  0  0  0  0  0  0  0  0  0  0
  2  1  1  1  0  0  0
  2  3  1  0  0  0  0
  2  5  1  0  0  0  0
  3  4  1  0  0  0  0
  3 17  1  0  0  0  0
  5  6  1  0  0  0  0
  7  6  1  6  0  0  0
  7  8  1  0  0  0  0
  7  9  1  0  0  0  0
 10  9  1  6  0  0  0
 10 11  1  0  0  0  0
 10 12  1  0  0  0  0
 11 16  1  0  0  0  0
 12 13  1  6  0  0  0
 12 14  1  0  0  0  0
 14 15  1  6  0  0  0
 14 16  1  0  0  0  0
 16 27  1  1  0  0  0
 18 19  2  0  0  0  0
 18 23  1  0  0  0  0
 19 20  1  0  0  0  0
 20 21  2  0  0  0  0
 21 22  1  0  0  0  0
 21 27  1  0  0  0  0
 22 23  2  0  0  0  0
 22 25  1  0  0  0  0
 23 24  1  0  0  0  0
 25 26  2  0  0  0  0
 26 27  1  0  0  0  0
M  END
>  <CHROM.1>
175.80791798,-158.23952908,178.69134418,-172.78958303,-135.37518004,48.68110748
47.14643658,14.53722679,-6.57474292,9.32574996,0.52802929,-1.29688677,-1.23720838

>  <Name>
ligand

>  <RI>
0

>  <Rbt.Current_Directory>
/home/itssahil/PROJECTS/Mol_Feturizer/New_Systems/rnas/3GX5

>  <Rbt.Executable>
rbdock ($Id: //depot/dev/client3/rdock/2013.1/src/exe/rbdock.cxx#4 $)

>  <Rbt.Library>
libRbt.so (2013.1, Build901 2013/11/27)

>  <Rbt.Parameter_File>
/export/apps/rDock/src/rDock_2013.1_src/data/scripts/dock_solv.prm

>  <Rbt.Receptor>
prm/pocket_docking_2.prm

>  <SCORE>
-4.59229

>  <SCORE.INTER>
-6.55887

>  <SCORE.INTER.CONST>
1

>  <SCORE.INTER.POLAR>
0

>  <SCORE.INTER.ROT>
7

>  <SCORE.INTER.SOLV>
21.3055

>  <SCORE.INTER.VDW>
-19.7411

>  <SCORE.INTER.norm>
-0.242921

>  <SCORE.INTRA>
0.189168

>  <SCORE.INTRA.DIHEDRAL>
6.01789

>  <SCORE.INTRA.DIHEDRAL.0>
4.28829

>  <SCORE.INTRA.POLAR>
0

>  <SCORE.INTRA.POLAR.0>
0

>  <SCORE.INTRA.REPUL>
0

>  <SCORE.INTRA.REPUL.0>
0

>  <SCORE.INTRA.SOLV>
-1.16079

>  <SCORE.INTRA.SOLV.lig_0>
-48.6018

>  <SCORE.INTRA.VDW>
-2.23938

>  <SCORE.INTRA.VDW.0>
-2.1506

>  <SCORE.INTRA.norm>
0.00700621

>  <SCORE.RESTR>
1.77741

>  <SCORE.RESTR.CAVITY>
1.77741

>  <SCORE.RESTR.norm>
0.06583

>  <SCORE.SYSTEM>
0

>  <SCORE.SYSTEM.CONST>
0

>  <SCORE.SYSTEM.DIHEDRAL>
0

>  <SCORE.SYSTEM.SOLV>
0

>  <SCORE.SYSTEM.norm>
0

>  <SCORE.heavy>
27

>  <SCORE.norm>
-0.170085

>  <RMSD>
5.174

$$$$
ligand
 OpenBabel11021811483D
libRbt.so/2013.1/901 2013/11/27
 27 29  0  0  0  0  0  0  0  0999 V2000
   11.3610   -6.9638   11.7524 N   0  0  0  0  0  0  0  0  0  0  0  0
   11.9394   -7.6220   10.5794 C   0  0  2  0  0  0  0  0  0  0  0  0
   11.5589   -9.0922   10.3876 C   0  0  0  0  0  0  0  0  0  0  0  0
   11.4666   -9.5359    9.2438 O   0  0  0  0  0  0  0  0  0  0  0  0
   13.4493   -7.4535   10.5511 C   0  0  0  0  0  0  0  0  0  0  0  0
   13.8467   -5.9885   10.4927 C   0  0  0  0  0  0  0  0  0  0  0  0
   15.6398   -5.8157   10.4723 S   0  0  2  0  0  0  0  0  0  0  0  0
   16.0076   -6.1639   12.2051 C   0  0  0  0  0  0  0  0  0  0  0  0
   15.7976   -4.0147   10.4867 C   0  0  0  0  0  0  0  0  0  0  0  0
   15.6969   -3.4511    9.0813 C   0  0  1  0  0  0  0  0  0  0  0  0
   16.5726   -4.1298    8.2103 O   0  0  0  0  0  0  0  0  0  0  0  0
   14.3192   -3.6302    8.4745 C   0  0  1  0  0  0  0  0  0  0  0  0
   13.5655   -2.4734    8.7369 O   0  0  0  0  0  0  0  0  0  0  0  0
   14.6003   -3.7728    6.9923 C   0  0  1  0  0  0  0  0  0  0  0  0
   14.3474   -2.5215    6.3939 O   0  0  0  0  0  0  0  0  0  0  0  0
   16.0824   -4.1367    6.8811 C   0  0  2  0  0  0  0  0  0  0  0  0
   11.3337   -9.8555   11.3307 O   0  0  0  0  0  0  0  0  0  0  0  0
   13.7439   -8.1467    4.4586 N   0  0  0  0  0  0  0  0  0  0  0  0
   13.2232   -6.9039    4.7260 C   0  0  0  0  0  0  0  0  0  0  0  0
   14.0012   -5.9746    5.3809 N   0  0  0  0  0  0  0  0  0  0  0  0
   15.2658   -6.2644    5.7607 C   0  0  0  0  0  0  0  0  0  0  0  0
   15.8101   -7.5104    5.4853 C   0  0  0  0  0  0  0  0  0  0  0  0
   15.0322   -8.4645    4.8327 C   0  0  0  0  0  0  0  0  0  0  0  0
   15.5172   -9.6753    4.5562 N   0  0  0  0  0  0  0  0  0  0  0  0
   17.0809   -7.5259    5.9639 N   0  0  0  0  0  0  0  0  0  0  0  0
   17.3410   -6.3169    6.5127 C   0  0  0  0  0  0  0  0  0  0  0  0
   16.2289   -5.5209    6.3888 N   0  0  0  0  0  0  0  0  0  0  0  0
  2  1  1  1  0  0  0
  2  3  1  0  0  0  0
  2  5  1  0  0  0  0
  3  4  1  0  0  0  0
  3 17  1  0  0  0  0
  5  6  1  0  0  0  0
  7  6  1  1  0  0  0
  7  8  1  0  0  0  0
  7  9  1  0  0  0  0
 10  9  1  1  0  0  0
 10 11  1  0  0  0  0
 10 12  1  0  0  0  0
 11 16  1  0  0  0  0
 12 13  1  6  0  0  0
 12 14  1  0  0  0  0
 14 15  1  6  0  0  0
 14 16  1  0  0  0  0
 16 27  1  1  0  0  0
 18 19  2  0  0  0  0
 18 23  1  0  0  0  0
 19 20  1  0  0  0  0
 20 21  2  0  0  0  0
 21 22  1  0  0  0  0
 21 27  1  0  0  0  0
 22 23  2  0  0  0  0
 22 25  1  0  0  0  0
 23 24  1  0  0  0  0
 25 26  2  0  0  0  0
 26 27  1  0  0  0  0
M  END
>  <CHROM.1>
147.82695610,-60.25064989,179.58402570,-75.49182626,-84.69373075,-50.50196024
131.16923712,14.49931511,-6.20773699,8.20545171,-2.60377731,-0.99349412,-2.16810323

>  <Name>
ligand

>  <RI>
0

>  <Rbt.Current_Directory>
/home/itssahil/PROJECTS/Mol_Feturizer/New_Systems/rnas/3GX5

>  <Rbt.Executable>
rbdock ($Id: //depot/dev/client3/rdock/2013.1/src/exe/rbdock.cxx#4 $)

>  <Rbt.Library>
libRbt.so (2013.1, Build901 2013/11/27)

>  <Rbt.Parameter_File>
/export/apps/rDock/src/rDock_2013.1_src/data/scripts/dock_solv.prm

>  <Rbt.Receptor>
prm/pocket_docking_3.prm

>  <SCORE>
-9.43206

>  <SCORE.INTER>
-9.62132

>  <SCORE.INTER.CONST>
1

>  <SCORE.INTER.POLAR>
0

>  <SCORE.INTER.ROT>
7

>  <SCORE.INTER.SOLV>
17.3387

>  <SCORE.INTER.VDW>
-20.4605

>  <SCORE.INTER.norm>
-0.356345

>  <SCORE.INTRA>
0.153884

>  <SCORE.INTRA.DIHEDRAL>
0.349754

>  <SCORE.INTRA.DIHEDRAL.0>
4.28829

>  <SCORE.INTRA.POLAR>
0

>  <SCORE.INTRA.POLAR.0>
0

>  <SCORE.INTRA.REPUL>
0

>  <SCORE.INTRA.REPUL.0>
0

>  <SCORE.INTRA.SOLV>
-0.240827

>  <SCORE.INTRA.SOLV.lig_0>
-48.6018

>  <SCORE.INTRA.VDW>
0.0994203

>  <SCORE.INTRA.VDW.0>
-2.1506

>  <SCORE.INTRA.norm>
0.00569942

>  <SCORE.RESTR>
0.0353803

>  <SCORE.RESTR.CAVITY>
0.0353803

>  <SCORE.RESTR.norm>
0.00131038

>  <SCORE.SYSTEM>
0

>  <SCORE.SYSTEM.CONST>
0

>  <SCORE.SYSTEM.DIHEDRAL>
0

>  <SCORE.SYSTEM.SOLV>
0

>  <SCORE.SYSTEM.norm>
0

>  <SCORE.heavy>
27

>  <SCORE.norm>
-0.349335

>  <RMSD>
5.186

$$$$
ligand
 OpenBabel11021811483D
libRbt.so/2013.1/901 2013/11/27
 27 29  0  0  0  0  0  0  0  0999 V2000
   10.4725   -9.3070   13.0501 N   0  0  0  0  0  0  0  0  0  0  0  0
   11.5969  -10.0247   12.4466 C   0  0  2  0  0  0  0  0  0  0  0  0
   12.1999  -11.1477   13.2941 C   0  0  0  0  0  0  0  0  0  0  0  0
   11.4446  -11.8756   13.9370 O   0  0  0  0  0  0  0  0  0  0  0  0
   12.6784   -9.0582   11.9938 C   0  0  0  0  0  0  0  0  0  0  0  0
   12.2045   -8.1899   10.8410 C   0  0  0  0  0  0  0  0  0  0  0  0
   13.5077   -7.0626   10.3155 S   0  0  2  0  0  0  0  0  0  0  0  0
   13.3164   -5.7636   11.5544 C   0  0  0  0  0  0  0  0  0  0  0  0
   12.7022   -6.2597    8.9101 C   0  0  0  0  0  0  0  0  0  0  0  0
   13.5298   -5.0914    8.4068 C   0  0  1  0  0  0  0  0  0  0  0  0
   14.8727   -5.4771    8.2227 O   0  0  0  0  0  0  0  0  0  0  0  0
   13.0736   -4.5902    7.0507 C   0  0  1  0  0  0  0  0  0  0  0  0
   12.1546   -3.5459    7.2503 O   0  0  0  0  0  0  0  0  0  0  0  0
   14.3499   -4.0787    6.4139 C   0  0  1  0  0  0  0  0  0  0  0  0
   14.3642   -2.6772    6.5676 O   0  0  0  0  0  0  0  0  0  0  0  0
   15.4954   -4.7214    7.1989 C   0  0  2  0  0  0  0  0  0  0  0  0
   13.4142  -11.3548   13.3676 O   0  0  0  0  0  0  0  0  0  0  0  0
   15.1838   -9.2027    4.5084 N   0  0  0  0  0  0  0  0  0  0  0  0
   14.1874   -8.5709    5.2121 C   0  0  0  0  0  0  0  0  0  0  0  0
   14.4674   -7.3890    5.8620 N   0  0  0  0  0  0  0  0  0  0  0  0
   15.7025   -6.8413    5.8160 C   0  0  0  0  0  0  0  0  0  0  0  0
   16.7153   -7.4604    5.0980 C   0  0  0  0  0  0  0  0  0  0  0  0
   16.4503   -8.6617    4.4438 C   0  0  0  0  0  0  0  0  0  0  0  0
   17.3989   -9.2904    3.7491 N   0  0  0  0  0  0  0  0  0  0  0  0
   17.8340   -6.6994    5.2132 N   0  0  0  0  0  0  0  0  0  0  0  0
   17.5343   -5.6183    5.9696 C   0  0  0  0  0  0  0  0  0  0  0  0
   16.2154   -5.6874    6.3454 N   0  0  0  0  0  0  0  0  0  0  0  0
  2  1  1  1  0  0  0
  2  3  1  0  0  0  0
  2  5  1  0  0  0  0
  3  4  1  0  0  0  0
  3 17  1  0  0  0  0
  5  6  1  0  0  0  0
  7  6  1  1  0  0  0
  7  8  1  0  0  0  0
  7  9  1  0  0  0  0
 10  9  1  6  0  0  0
 10 11  1  0  0  0  0
 10 12  1  0  0  0  0
 11 16  1  0  0  0  0
 12 13  1  1  0  0  0
 12 14  1  0  0  0  0
 14 15  1  1  0  0  0
 14 16  1  0  0  0  0
 16 27  1  6  0  0  0
 18 19  2  0  0  0  0
 18 23  1  0  0  0  0
 19 20  1  0  0  0  0
 20 21  2  0  0  0  0
 21 22  1  0  0  0  0
 21 27  1  0  0  0  0
 22 23  2  0  0  0  0
 22 25  1  0  0  0  0
 23 24  1  0  0  0  0
 25 26  2  0  0  0  0
 26 27  1  0  0  0  0
M  END
>  <CHROM.1>
39.89429978,-67.06002947,-179.57944510,-81.40618938,171.27762617,49.28635049
49.45091015,14.09786918,-7.22214652,8.45500781,2.41110873,-0.97658451,2.79132977

>  <Name>
ligand

>  <RI>
0

>  <Rbt.Current_Directory>
/home/itssahil/PROJECTS/Mol_Feturizer/New_Systems/rnas/3GX5

>  <Rbt.Executable>
rbdock ($Id: //depot/dev/client3/rdock/2013.1/src/exe/rbdock.cxx#4 $)

>  <Rbt.Library>
libRbt.so (2013.1, Build901 2013/11/27)

>  <Rbt.Parameter_File>
/export/apps/rDock/src/rDock_2013.1_src/data/scripts/dock_solv.prm

>  <Rbt.Receptor>
prm/pocket_docking_5.prm

>  <SCORE>
-13.1067

>  <SCORE.INTER>
-12.8865

>  <SCORE.INTER.CONST>
1

>  <SCORE.INTER.POLAR>
0

>  <SCORE.INTER.ROT>
7

>  <SCORE.INTER.SOLV>
14.9128

>  <SCORE.INTER.VDW>
-21.8286

>  <SCORE.INTER.norm>
-0.477278

>  <SCORE.INTRA>
-0.22021

>  <SCORE.INTRA.DIHEDRAL>
0.239701

>  <SCORE.INTRA.DIHEDRAL.0>
4.28829

>  <SCORE.INTRA.POLAR>
0

>  <SCORE.INTRA.POLAR.0>
0

>  <SCORE.INTRA.REPUL>
0

>  <SCORE.INTRA.REPUL.0>
0

>  <SCORE.INTRA.SOLV>
-0.55696

>  <SCORE.INTRA.SOLV.lig_0>
-48.6018

>  <SCORE.INTRA.VDW>
-0.0615798

>  <SCORE.INTRA.VDW.0>
-2.1506

>  <SCORE.INTRA.norm>
-0.00815592

>  <SCORE.RESTR>
0

>  <SCORE.RESTR.CAVITY>
0

>  <SCORE.RESTR.norm>
0

>  <SCORE.SYSTEM>
0

>  <SCORE.SYSTEM.CONST>
0

>  <SCORE.SYSTEM.DIHEDRAL>
0

>  <SCORE.SYSTEM.SOLV>
0

>  <SCORE.SYSTEM.norm>
0

>  <SCORE.heavy>
27

>  <SCORE.norm>
-0.485434

>  <RMSD>
5.188

$$$$
ligand
 OpenBabel11021811483D
libRbt.so/2013.1/901 2013/11/27
 27 29  0  0  0  0  0  0  0  0999 V2000
   12.3019   -8.5995   14.0051 N   0  0  0  0  0  0  0  0  0  0  0  0
   11.5659   -8.3101   12.7728 C   0  0  2  0  0  0  0  0  0  0  0  0
   10.7136   -9.4566   12.2235 C   0  0  0  0  0  0  0  0  0  0  0  0
   10.0322   -9.2593   11.2182 O   0  0  0  0  0  0  0  0  0  0  0  0
   12.4960   -7.7737   11.6976 C   0  0  0  0  0  0  0  0  0  0  0  0
   11.7285   -7.0450   10.6079 C   0  0  0  0  0  0  0  0  0  0  0  0
   12.8326   -6.5516    9.2727 S   0  0  2  0  0  0  0  0  0  0  0  0
   13.5742   -8.1485    8.8736 C   0  0  0  0  0  0  0  0  0  0  0  0
   14.1874   -5.8185   10.2192 C   0  0  0  0  0  0  0  0  0  0  0  0
   15.2175   -5.1947    9.2957 C   0  0  1  0  0  0  0  0  0  0  0  0
   15.7666   -6.1668    8.4356 O   0  0  0  0  0  0  0  0  0  0  0  0
   14.6231   -4.1453    8.3771 C   0  0  1  0  0  0  0  0  0  0  0  0
   14.7615   -2.8889    8.9913 O   0  0  0  0  0  0  0  0  0  0  0  0
   15.4791   -4.2396    7.1303 C   0  0  1  0  0  0  0  0  0  0  0  0
   16.4211   -3.1920    7.1866 O   0  0  0  0  0  0  0  0  0  0  0  0
   16.1764   -5.5996    7.2038 C   0  0  2  0  0  0  0  0  0  0  0  0
   10.6731  -10.5732   12.7471 O   0  0  0  0  0  0  0  0  0  0  0  0
   17.3627   -9.3371    3.7336 N   0  0  0  0  0  0  0  0  0  0  0  0
   18.1988   -8.7334    4.6413 C   0  0  0  0  0  0  0  0  0  0  0  0
   17.6957   -7.7604    5.4767 N   0  0  0  0  0  0  0  0  0  0  0  0
   16.3959   -7.3934    5.4196 C   0  0  0  0  0  0  0  0  0  0  0  0
   15.5363   -8.0038    4.5178 C   0  0  0  0  0  0  0  0  0  0  0  0
   16.0325   -8.9824    3.6591 C   0  0  0  0  0  0  0  0  0  0  0  0
   15.2396   -9.5873    2.7742 N   0  0  0  0  0  0  0  0  0  0  0  0
   14.3041   -7.4565    4.6797 N   0  0  0  0  0  0  0  0  0  0  0  0
   14.3765   -6.5361    5.6688 C   0  0  0  0  0  0  0  0  0  0  0  0
   15.6644   -6.4898    6.1429 N   0  0  0  0  0  0  0  0  0  0  0  0
  2  1  1  1  0  0  0
  2  3  1  0  0  0  0
  2  5  1  0  0  0  0
  3  4  1  0  0  0  0
  3 17  1  0  0  0  0
  5  6  1  0  0  0  0
  7  6  1  1  0  0  0
  7  8  1  0  0  0  0
  7  9  1  0  0  0  0
 10  9  1  1  0  0  0
 10 11  1  0  0  0  0
 10 12  1  0  0  0  0
 11 16  1  0  0  0  0
 12 13  1  1  0  0  0
 12 14  1  0  0  0  0
 14 15  1  1  0  0  0
 14 16  1  0  0  0  0
 16 27  1  6  0  0  0
 18 19  2  0  0  0  0
 18 23  1  0  0  0  0
 19 20  1  0  0  0  0
 20 21  2  0  0  0  0
 21 22  1  0  0  0  0
 21 27  1  0  0  0  0
 22 23  2  0  0  0  0
 22 25  1  0  0  0  0
 23 24  1  0  0  0  0
 25 26  2  0  0  0  0
 26 27  1  0  0  0  0
M  END
>  <CHROM.1>
177.31210392,-160.97468372,-174.80279340,54.53644708,-174.67673358,-60.31908248
-103.62709320,14.29540493,-7.10228124,8.18885359,2.79310535,0.93794716,0.56491589

>  <Name>
ligand

>  <RI>
0

>  <Rbt.Current_Directory>
/home/itssahil/PROJECTS/Mol_Feturizer/New_Systems/rnas/3GX5

>  <Rbt.Executable>
rbdock ($Id: //depot/dev/client3/rdock/2013.1/src/exe/rbdock.cxx#4 $)

>  <Rbt.Library>
libRbt.so (2013.1, Build901 2013/11/27)

>  <Rbt.Parameter_File>
/export/apps/rDock/src/rDock_2013.1_src/data/scripts/dock_solv.prm

>  <Rbt.Receptor>
prm/pocket_docking_5.prm

>  <SCORE>
-7.21058

>  <SCORE.INTER>
-9.42174

>  <SCORE.INTER.CONST>
1

>  <SCORE.INTER.POLAR>
0

>  <SCORE.INTER.ROT>
7

>  <SCORE.INTER.SOLV>
12.3055

>  <SCORE.INTER.VDW>
-18.6497

>  <SCORE.INTER.norm>
-0.348953

>  <SCORE.INTRA>
2.21117

>  <SCORE.INTRA.DIHEDRAL>
1.07313

>  <SCORE.INTRA.DIHEDRAL.0>
4.28829

>  <SCORE.INTRA.POLAR>
0

>  <SCORE.INTRA.POLAR.0>
0

>  <SCORE.INTRA.REPUL>
0

>  <SCORE.INTRA.REPUL.0>
0

>  <SCORE.INTRA.SOLV>
-1.04315

>  <SCORE.INTRA.SOLV.lig_0>
-48.6018

>  <SCORE.INTRA.VDW>
2.19618

>  <SCORE.INTRA.VDW.0>
-2.1506

>  <SCORE.INTRA.norm>
0.081895

>  <SCORE.RESTR>
0

>  <SCORE.RESTR.CAVITY>
0

>  <SCORE.RESTR.norm>
0

>  <SCORE.SYSTEM>
0

>  <SCORE.SYSTEM.CONST>
0

>  <SCORE.SYSTEM.DIHEDRAL>
0

>  <SCORE.SYSTEM.SOLV>
0

>  <SCORE.SYSTEM.norm>
0

>  <SCORE.heavy>
27

>  <SCORE.norm>
-0.267058

>  <RMSD>
5.196

$$$$
ligand
 OpenBabel11021811483D
libRbt.so/2013.1/901 2013/11/27
 27 29  0  0  0  0  0  0  0  0999 V2000
   16.2309   -8.6496    9.8609 N   0  0  0  0  0  0  0  0  0  0  0  0
   15.9908   -8.8937   11.2845 C   0  0  2  0  0  0  0  0  0  0  0  0
   15.0967  -10.0923   11.6114 C   0  0  0  0  0  0  0  0  0  0  0  0
   14.4056  -10.5774   10.7165 O   0  0  0  0  0  0  0  0  0  0  0  0
   15.4752   -7.6402   11.9714 C   0  0  0  0  0  0  0  0  0  0  0  0
   16.5843   -6.6248   12.1865 C   0  0  0  0  0  0  0  0  0  0  0  0
   17.0481   -5.8489   10.6283 S   0  0  2  0  0  0  0  0  0  0  0  0
   18.7991   -5.5406   10.9411 C   0  0  0  0  0  0  0  0  0  0  0  0
   16.3981   -4.1813   10.8840 C   0  0  0  0  0  0  0  0  0  0  0  0
   15.8026   -3.6297    9.6018 C   0  0  1  0  0  0  0  0  0  0  0  0
   16.6916   -3.8107    8.5234 O   0  0  0  0  0  0  0  0  0  0  0  0
   14.5313   -4.3455    9.1898 C   0  0  1  0  0  0  0  0  0  0  0  0
   13.4355   -3.6436    9.7206 O   0  0  0  0  0  0  0  0  0  0  0  0
   14.5512   -4.2613    7.6770 C   0  0  1  0  0  0  0  0  0  0  0  0
   13.6946   -3.2057    7.3031 O   0  0  0  0  0  0  0  0  0  0  0  0
   15.9989   -3.9452    7.2949 C   0  0  2  0  0  0  0  0  0  0  0  0
   15.0320  -10.5939   12.7370 O   0  0  0  0  0  0  0  0  0  0  0  0
   15.0972   -8.2671    4.4795 N   0  0  0  0  0  0  0  0  0  0  0  0
   14.1776   -7.3658    4.9584 C   0  0  0  0  0  0  0  0  0  0  0  0
   14.6140   -6.2814    5.6873 N   0  0  0  0  0  0  0  0  0  0  0  0
   15.9289   -6.0891    5.9356 C   0  0  0  0  0  0  0  0  0  0  0  0
   16.8704   -6.9831    5.4467 C   0  0  0  0  0  0  0  0  0  0  0  0
   16.4438   -8.0904    4.7165 C   0  0  0  0  0  0  0  0  0  0  0  0
   17.3175   -8.9754    4.2356 N   0  0  0  0  0  0  0  0  0  0  0  0
   18.0980   -6.5485    5.8318 N   0  0  0  0  0  0  0  0  0  0  0  0
   17.9405   -5.4011    6.5312 C   0  0  0  0  0  0  0  0  0  0  0  0
   16.6028   -5.0987    6.5987 N   0  0  0  0  0  0  0  0  0  0  0  0
  2  1  1  6  0  0  0
  2  3  1  0  0  0  0
  2  5  1  0  0  0  0
  3  4  1  0  0  0  0
  3 17  1  0  0  0  0
  5  6  1  0  0  0  0
  7  6  1  1  0  0  0
  7  8  1  0  0  0  0
  7  9  1  0  0  0  0
 10  9  1  1  0  0  0
 10 11  1  0  0  0  0
 10 12  1  0  0  0  0
 11 16  1  0  0  0  0
 12 13  1  1  0  0  0
 12 14  1  0  0  0  0
 14 15  1  1  0  0  0
 14 16  1  0  0  0  0
 16 27  1  6  0  0  0
 18 19  2  0  0  0  0
 18 23  1  0  0  0  0
 19 20  1  0  0  0  0
 20 21  2  0  0  0  0
 21 22  1  0  0  0  0
 21 27  1  0  0  0  0
 22 23  2  0  0  0  0
 22 25  1  0  0  0  0
 23 24  1  0  0  0  0
 25 26  2  0  0  0  0
 26 27  1  0  0  0  0
M  END
>  <CHROM.1>
-16.19050842,-74.98720766,73.09344278,-148.50943056,-141.74713296,-48.51160705
136.61132320,15.91425073,-6.42418100,8.58668662,-2.50938889,1.54360456,-0.29619871

>  <Name>
ligand

>  <RI>
0

>  <Rbt.Current_Directory>
/home/itssahil/PROJECTS/Mol_Feturizer/New_Systems/rnas/3GX5

>  <Rbt.Executable>
rbdock ($Id: //depot/dev/client3/rdock/2013.1/src/exe/rbdock.cxx#4 $)

>  <Rbt.Library>
libRbt.so (2013.1, Build901 2013/11/27)

>  <Rbt.Parameter_File>
/export/apps/rDock/src/rDock_2013.1_src/data/scripts/dock_solv.prm

>  <Rbt.Receptor>
prm/pocket_docking_5.prm

>  <SCORE>
-8.39762

>  <SCORE.INTER>
-12.3575

>  <SCORE.INTER.CONST>
1

>  <SCORE.INTER.POLAR>
0

>  <SCORE.INTER.ROT>
7

>  <SCORE.INTER.SOLV>
12.5117

>  <SCORE.INTER.VDW>
-20.6756

>  <SCORE.INTER.norm>
-0.457685

>  <SCORE.INTRA>
3.95989

>  <SCORE.INTRA.DIHEDRAL>
8.22035

>  <SCORE.INTRA.DIHEDRAL.0>
4.28829

>  <SCORE.INTRA.POLAR>
0

>  <SCORE.INTRA.POLAR.0>
0

>  <SCORE.INTRA.REPUL>
0

>  <SCORE.INTRA.REPUL.0>
0

>  <SCORE.INTRA.SOLV>
1.25248

>  <SCORE.INTRA.SOLV.lig_0>
-48.6018

>  <SCORE.INTRA.VDW>
-0.776524

>  <SCORE.INTRA.VDW.0>
-2.1506

>  <SCORE.INTRA.norm>
0.146662

>  <SCORE.RESTR>
0

>  <SCORE.RESTR.CAVITY>
0

>  <SCORE.RESTR.norm>
0

>  <SCORE.SYSTEM>
0

>  <SCORE.SYSTEM.CONST>
0

>  <SCORE.SYSTEM.DIHEDRAL>
0

>  <SCORE.SYSTEM.SOLV>
0

>  <SCORE.SYSTEM.norm>
0

>  <SCORE.heavy>
27

>  <SCORE.norm>
-0.311023

>  <RMSD>
5.196

$$$$
ligand
 OpenBabel11021811483D
libRbt.so/2013.1/901 2013/11/27
 27 29  0  0  0  0  0  0  0  0999 V2000
   16.5094   -8.8318   11.5479 N   0  0  0  0  0  0  0  0  0  0  0  0
   15.2154   -9.4456   11.8520 C   0  0  2  0  0  0  0  0  0  0  0  0
   15.1809  -10.3432   13.0914 C   0  0  0  0  0  0  0  0  0  0  0  0
   14.2154  -11.0877   13.2570 O   0  0  0  0  0  0  0  0  0  0  0  0
   14.6666  -10.1841   10.6427 C   0  0  0  0  0  0  0  0  0  0  0  0
   14.2268   -9.2217    9.5528 C   0  0  0  0  0  0  0  0  0  0  0  0
   12.9763   -8.0839   10.1748 S   0  0  2  0  0  0  0  0  0  0  0  0
   11.5476   -9.1863   10.2258 C   0  0  0  0  0  0  0  0  0  0  0  0
   12.5914   -7.1615    8.6682 C   0  0  0  0  0  0  0  0  0  0  0  0
   13.7202   -6.2119    8.3115 C   0  0  1  0  0  0  0  0  0  0  0  0
   14.8637   -6.9295    7.9073 O   0  0  0  0  0  0  0  0  0  0  0  0
   13.3826   -5.3135    7.1380 C   0  0  1  0  0  0  0  0  0  0  0  0
   12.8489   -4.1133    7.6377 O   0  0  0  0  0  0  0  0  0  0  0  0
   14.7241   -5.0785    6.4738 C   0  0  1  0  0  0  0  0  0  0  0  0
   15.1855   -3.8140    6.8936 O   0  0  0  0  0  0  0  0  0  0  0  0
   15.6444   -6.1883    6.9863 C   0  0  2  0  0  0  0  0  0  0  0  0
   16.0775  -10.3513   13.9392 O   0  0  0  0  0  0  0  0  0  0  0  0
   13.8821   -8.7387    2.7664 N   0  0  0  0  0  0  0  0  0  0  0  0
   13.1902   -7.8729    3.5781 C   0  0  0  0  0  0  0  0  0  0  0  0
   13.8333   -7.2971    4.6517 N   0  0  0  0  0  0  0  0  0  0  0  0
   15.1311   -7.5674    4.9166 C   0  0  0  0  0  0  0  0  0  0  0  0
   15.8468   -8.4287    4.0977 C   0  0  0  0  0  0  0  0  0  0  0  0
   15.2074   -9.0270    3.0140 C   0  0  0  0  0  0  0  0  0  0  0  0
   15.8593   -9.8654    2.2079 N   0  0  0  0  0  0  0  0  0  0  0  0
   17.1121   -8.5117    4.5837 N   0  0  0  0  0  0  0  0  0  0  0  0
   17.2011   -7.7115    5.6711 C   0  0  0  0  0  0  0  0  0  0  0  0
   15.9840   -7.1134    5.8868 N   0  0  0  0  0  0  0  0  0  0  0  0
  2  1  1  6  0  0  0
  2  3  1  0  0  0  0
  2  5  1  0  0  0  0
  3  4  1  0  0  0  0
  3 17  1  0  0  0  0
  5  6  1  0  0  0  0
  7  6  1  6  0  0  0
  7  8  1  0  0  0  0
  7  9  1  0  0  0  0
 10  9  1  6  0  0  0
 10 11  1  0  0  0  0
 10 12  1  0  0  0  0
 11 16  1  0  0  0  0
 12 13  1  1  0  0  0
 12 14  1  0  0  0  0
 14 15  1  1  0  0  0
 14 16  1  0  0  0  0
 16 27  1  6  0  0  0
 18 19  2  0  0  0  0
 18 23  1  0  0  0  0
 19 20  1  0  0  0  0
 20 21  2  0  0  0  0
 21 22  1  0  0  0  0
 21 27  1  0  0  0  0
 22 23  2  0  0  0  0
 22 25  1  0  0  0  0
 23 24  1  0  0  0  0
 25 26  2  0  0  0  0
 26 27  1  0  0  0  0
M  END
>  <CHROM.1>
-166.00870691,-70.47479167,-58.00157337,-74.94415864,-73.08476923,68.58393002
73.17556421,14.59142160,-7.90953497,7.85314230,-1.69758660,1.11808768,-1.19001270

>  <Name>
ligand

>  <RI>
0

>  <Rbt.Current_Directory>
/home/itssahil/PROJECTS/Mol_Feturizer/New_Systems/rnas/3GX5

>  <Rbt.Executable>
rbdock ($Id: //depot/dev/client3/rdock/2013.1/src/exe/rbdock.cxx#4 $)

>  <Rbt.Library>
libRbt.so (2013.1, Build901 2013/11/27)

>  <Rbt.Parameter_File>
/export/apps/rDock/src/rDock_2013.1_src/data/scripts/dock_solv.prm

>  <Rbt.Receptor>
prm/pocket_docking_4.prm

>  <SCORE>
-12.3

>  <SCORE.INTER>
-12.2892

>  <SCORE.INTER.CONST>
1

>  <SCORE.INTER.POLAR>
0

>  <SCORE.INTER.ROT>
7

>  <SCORE.INTER.SOLV>
12.4886

>  <SCORE.INTER.VDW>
-20.6223

>  <SCORE.INTER.norm>
-0.455155

>  <SCORE.INTRA>
-0.0107892

>  <SCORE.INTRA.DIHEDRAL>
-0.0192689

>  <SCORE.INTRA.DIHEDRAL.0>
4.28829

>  <SCORE.INTRA.POLAR>
0

>  <SCORE.INTRA.POLAR.0>
0

>  <SCORE.INTRA.REPUL>
0

>  <SCORE.INTRA.REPUL.0>
0

>  <SCORE.INTRA.SOLV>
0.0559604

>  <SCORE.INTRA.SOLV.lig_0>
-48.6018

>  <SCORE.INTRA.VDW>
-0.029135

>  <SCORE.INTRA.VDW.0>
-2.1506

>  <SCORE.INTRA.norm>
-0.000399602

>  <SCORE.RESTR>
0

>  <SCORE.RESTR.CAVITY>
0

>  <SCORE.RESTR.norm>
0

>  <SCORE.SYSTEM>
0

>  <SCORE.SYSTEM.CONST>
0

>  <SCORE.SYSTEM.DIHEDRAL>
0

>  <SCORE.SYSTEM.SOLV>
0

>  <SCORE.SYSTEM.norm>
0

>  <SCORE.heavy>
27

>  <SCORE.norm>
-0.455555

>  <RMSD>
5.197

$$$$
ligand
 OpenBabel11021811483D
libRbt.so/2013.1/901 2013/11/27
 27 29  0  0  0  0  0  0  0  0999 V2000
    9.8315   -6.9988   12.1525 N   0  0  0  0  0  0  0  0  0  0  0  0
   10.6796   -8.0942   11.6787 C   0  0  2  0  0  0  0  0  0  0  0  0
   11.0412   -9.1535   12.7226 C   0  0  0  0  0  0  0  0  0  0  0  0
   11.1425  -10.3266   12.3658 O   0  0  0  0  0  0  0  0  0  0  0  0
   11.9321   -7.5594   11.0049 C   0  0  0  0  0  0  0  0  0  0  0  0
   12.6956   -6.6133   11.9156 C   0  0  0  0  0  0  0  0  0  0  0  0
   14.2917   -6.1875   11.1971 S   0  0  2  0  0  0  0  0  0  0  0  0
   14.9363   -5.1018   12.4874 C   0  0  0  0  0  0  0  0  0  0  0  0
   13.7863   -4.9462    9.9836 C   0  0  0  0  0  0  0  0  0  0  0  0
   14.9950   -4.3327    9.3011 C   0  0  1  0  0  0  0  0  0  0  0  0
   15.8288   -5.3374    8.7705 O   0  0  0  0  0  0  0  0  0  0  0  0
   14.6217   -3.4631    8.1167 C   0  0  1  0  0  0  0  0  0  0  0  0
   14.4971   -2.1363    8.5628 O   0  0  0  0  0  0  0  0  0  0  0  0
   15.8028   -3.6143    7.1795 C   0  0  1  0  0  0  0  0  0  0  0  0
   16.6196   -2.4771    7.3454 O   0  0  0  0  0  0  0  0  0  0  0  0
   16.5363   -4.8787    7.6320 C   0  0  2  0  0  0  0  0  0  0  0  0
   11.2314   -8.8859   13.9122 O   0  0  0  0  0  0  0  0  0  0  0  0
   13.2408   -7.6482    4.6509 N   0  0  0  0  0  0  0  0  0  0  0  0
   12.9344   -6.6468    5.5399 C   0  0  0  0  0  0  0  0  0  0  0  0
   13.9502   -6.0328    6.2391 N   0  0  0  0  0  0  0  0  0  0  0  0
   15.2401   -6.3970    6.0624 C   0  0  0  0  0  0  0  0  0  0  0  0
   15.5663   -7.3970    5.1579 C   0  0  0  0  0  0  0  0  0  0  0  0
   14.5490   -8.0346    4.4508 C   0  0  0  0  0  0  0  0  0  0  0  0
   14.8217   -9.0046    3.5777 N   0  0  0  0  0  0  0  0  0  0  0  0
   16.9154   -7.5512    5.1747 N   0  0  0  0  0  0  0  0  0  0  0  0
   17.4321   -6.6615    6.0534 C   0  0  0  0  0  0  0  0  0  0  0  0
   16.4078   -5.9336    6.6070 N   0  0  0  0  0  0  0  0  0  0  0  0
  2  1  1  1  0  0  0
  2  3  1  0  0  0  0
  2  5  1  0  0  0  0
  3  4  1  0  0  0  0
  3 17  1  0  0  0  0
  5  6  1  0  0  0  0
  7  6  1  1  0  0  0
  7  8  1  0  0  0  0
  7  9  1  0  0  0  0
 10  9  1  6  0  0  0
 10 11  1  0  0  0  0
 10 12  1  0  0  0  0
 11 16  1  0  0  0  0
 12 13  1  1  0  0  0
 12 14  1  0  0  0  0
 14 15  1  1  0  0  0
 14 16  1  0  0  0  0
 16 27  1  6  0  0  0
 18 19  2  0  0  0  0
 18 23  1  0  0  0  0
 19 20  1  0  0  0  0
 20 21  2  0  0  0  0
 21 22  1  0  0  0  0
 21 27  1  0  0  0  0
 22 23  2  0  0  0  0
 22 25  1  0  0  0  0
 23 24  1  0  0  0  0
 25 26  2  0  0  0  0
 26 27  1  0  0  0  0
M  END
>  <CHROM.1>
144.88962602,54.81930536,171.54288901,-179.45385573,175.37957031,52.86654617
60.24617417,14.11806489,-6.31169386,8.74379538,2.57290380,0.93197563,0.96536454

>  <Name>
ligand

>  <RI>
0

>  <Rbt.Current_Directory>
/home/itssahil/PROJECTS/Mol_Feturizer/New_Systems/rnas/3GX5

>  <Rbt.Executable>
rbdock ($Id: //depot/dev/client3/rdock/2013.1/src/exe/rbdock.cxx#4 $)

>  <Rbt.Library>
libRbt.so (2013.1, Build901 2013/11/27)

>  <Rbt.Parameter_File>
/export/apps/rDock/src/rDock_2013.1_src/data/scripts/dock_solv.prm

>  <Rbt.Receptor>
prm/pocket_docking_6.prm

>  <SCORE>
-12.5454

>  <SCORE.INTER>
-11.6645

>  <SCORE.INTER.CONST>
1

>  <SCORE.INTER.POLAR>
0

>  <SCORE.INTER.ROT>
7

>  <SCORE.INTER.SOLV>
18.2661

>  <SCORE.INTER.VDW>
-22.1317

>  <SCORE.INTER.norm>
-0.43202

>  <SCORE.INTRA>
-0.880884

>  <SCORE.INTRA.DIHEDRAL>
0.0518298

>  <SCORE.INTRA.DIHEDRAL.0>
4.28829

>  <SCORE.INTRA.POLAR>
0

>  <SCORE.INTRA.POLAR.0>
0

>  <SCORE.INTRA.REPUL>
0

>  <SCORE.INTRA.REPUL.0>
0

>  <SCORE.INTRA.SOLV>
-0.50824

>  <SCORE.INTRA.SOLV.lig_0>
-48.6018

>  <SCORE.INTRA.VDW>
-0.652679

>  <SCORE.INTRA.VDW.0>
-2.1506

>  <SCORE.INTRA.norm>
-0.0326253

>  <SCORE.RESTR>
0

>  <SCORE.RESTR.CAVITY>
0

>  <SCORE.RESTR.norm>
0

>  <SCORE.SYSTEM>
0

>  <SCORE.SYSTEM.CONST>
0

>  <SCORE.SYSTEM.DIHEDRAL>
0

>  <SCORE.SYSTEM.SOLV>
0

>  <SCORE.SYSTEM.norm>
0

>  <SCORE.heavy>
27

>  <SCORE.norm>
-0.464646

>  <RMSD>
5.208

$$$$
ligand
 OpenBabel11021811483D
libRbt.so/2013.1/901 2013/11/27
 27 29  0  0  0  0  0  0  0  0999 V2000
   13.1711   -7.4051   13.3472 N   0  0  0  0  0  0  0  0  0  0  0  0
   13.9175   -7.0000   12.1545 C   0  0  2  0  0  0  0  0  0  0  0  0
   15.4221   -6.7979   12.3493 C   0  0  0  0  0  0  0  0  0  0  0  0
   16.1952   -7.2574   11.5098 O   0  0  0  0  0  0  0  0  0  0  0  0
   13.2926   -5.7723   11.5133 C   0  0  0  0  0  0  0  0  0  0  0  0
   13.7910   -5.5690   10.0929 C   0  0  0  0  0  0  0  0  0  0  0  0
   12.8031   -6.5249    8.9287 S   0  0  2  0  0  0  0  0  0  0  0  0
   13.5579   -8.1513    9.1391 C   0  0  0  0  0  0  0  0  0  0  0  0
   13.5706   -6.0365    7.3663 C   0  0  0  0  0  0  0  0  0  0  0  0
   15.0806   -6.1691    7.4400 C   0  0  1  0  0  0  0  0  0  0  0  0
   15.4915   -7.4329    6.9707 O   0  0  0  0  0  0  0  0  0  0  0  0
   15.8014   -5.1674    6.5595 C   0  0  1  0  0  0  0  0  0  0  0  0
   16.1011   -4.0327    7.3326 O   0  0  0  0  0  0  0  0  0  0  0  0
   17.0647   -5.8982    6.1518 C   0  0  1  0  0  0  0  0  0  0  0  0
   18.1060   -5.4325    6.9804 O   0  0  0  0  0  0  0  0  0  0  0  0
   16.7907   -7.3816    6.4082 C   0  0  2  0  0  0  0  0  0  0  0  0
   15.8988   -6.1976   13.3164 O   0  0  0  0  0  0  0  0  0  0  0  0
   13.8133   -8.6301    2.2858 N   0  0  0  0  0  0  0  0  0  0  0  0
   13.4839   -7.8286    3.3517 C   0  0  0  0  0  0  0  0  0  0  0  0
   14.4112   -7.6190    4.3486 N   0  0  0  0  0  0  0  0  0  0  0  0
   15.6375   -8.1855    4.2933 C   0  0  0  0  0  0  0  0  0  0  0  0
   15.9895   -8.9860    3.2163 C   0  0  0  0  0  0  0  0  0  0  0  0
   15.0588   -9.2158    2.2052 C   0  0  0  0  0  0  0  0  0  0  0  0
   15.3571   -9.9844    1.1574 N   0  0  0  0  0  0  0  0  0  0  0  0
   17.2644   -9.4112    3.4113 N   0  0  0  0  0  0  0  0  0  0  0  0
   17.7144   -8.8809    4.5719 C   0  0  0  0  0  0  0  0  0  0  0  0
   16.7208   -8.1130    5.1275 N   0  0  0  0  0  0  0  0  0  0  0  0
  2  1  1  1  0  0  0
  2  3  1  0  0  0  0
  2  5  1  0  0  0  0
  3  4  1  0  0  0  0
  3 17  1  0  0  0  0
  5  6  1  0  0  0  0
  7  6  1  1  0  0  0
  7  8  1  0  0  0  0
  7  9  1  0  0  0  0
 10  9  1  6  0  0  0
 10 11  1  0  0  0  0
 10 12  1  0  0  0  0
 11 16  1  0  0  0  0
 12 13  1  1  0  0  0
 12 14  1  0  0  0  0
 14 15  1  1  0  0  0
 14 16  1  0  0  0  0
 16 27  1  6  0  0  0
 18 19  2  0  0  0  0
 18 23  1  0  0  0  0
 19 20  1  0  0  0  0
 20 21  2  0  0  0  0
 21 22  1  0  0  0  0
 21 27  1  0  0  0  0
 22 23  2  0  0  0  0
 22 25  1  0  0  0  0
 23 24  1  0  0  0  0
 25 26  2  0  0  0  0
 26 27  1  0  0  0  0
M  END
>  <CHROM.1>
135.57402224,-163.94000891,86.01532046,-80.40056383,49.56508091,92.86058337
32.29875951,15.13638043,-7.14353379,7.29473768,1.71969465,0.26481170,1.28484438

>  <Name>
ligand

>  <RI>
0

>  <Rbt.Current_Directory>
/home/itssahil/PROJECTS/Mol_Feturizer/New_Systems/rnas/3GX5

>  <Rbt.Executable>
rbdock ($Id: //depot/dev/client3/rdock/2013.1/src/exe/rbdock.cxx#4 $)

>  <Rbt.Library>
libRbt.so (2013.1, Build901 2013/11/27)

>  <Rbt.Parameter_File>
/export/apps/rDock/src/rDock_2013.1_src/data/scripts/dock_solv.prm

>  <Rbt.Receptor>
prm/pocket_docking_8.prm

>  <SCORE>
-9.87569

>  <SCORE.INTER>
-12.5778

>  <SCORE.INTER.CONST>
1

>  <SCORE.INTER.POLAR>
0

>  <SCORE.INTER.ROT>
7

>  <SCORE.INTER.SOLV>
13.8803

>  <SCORE.INTER.VDW>
-21.2786

>  <SCORE.INTER.norm>
-0.465844

>  <SCORE.INTRA>
2.70209

>  <SCORE.INTRA.DIHEDRAL>
5.64973

>  <SCORE.INTRA.DIHEDRAL.0>
4.28829

>  <SCORE.INTRA.POLAR>
0

>  <SCORE.INTRA.POLAR.0>
0

>  <SCORE.INTRA.REPUL>
0

>  <SCORE.INTRA.REPUL.0>
0

>  <SCORE.INTRA.SOLV>
-0.554523

>  <SCORE.INTRA.SOLV.lig_0>
-48.6018

>  <SCORE.INTRA.VDW>
0.15449

>  <SCORE.INTRA.VDW.0>
-2.1506

>  <SCORE.INTRA.norm>
0.100078

>  <SCORE.RESTR>
0

>  <SCORE.RESTR.CAVITY>
0

>  <SCORE.RESTR.norm>
0

>  <SCORE.SYSTEM>
0

>  <SCORE.SYSTEM.CONST>
0

>  <SCORE.SYSTEM.DIHEDRAL>
0

>  <SCORE.SYSTEM.SOLV>
0

>  <SCORE.SYSTEM.norm>
0

>  <SCORE.heavy>
27

>  <SCORE.norm>
-0.365766

>  <RMSD>
5.208

$$$$
ligand
 OpenBabel11021811483D
libRbt.so/2013.1/901 2013/11/27
 27 29  0  0  0  0  0  0  0  0999 V2000
   10.3462   -8.6691   13.3886 N   0  0  0  0  0  0  0  0  0  0  0  0
   11.1584   -9.6529   12.6701 C   0  0  2  0  0  0  0  0  0  0  0  0
   11.5715  -10.8879   13.4746 C   0  0  0  0  0  0  0  0  0  0  0  0
   12.3917  -10.7566   14.3822 O   0  0  0  0  0  0  0  0  0  0  0  0
   12.3742   -8.9963   12.0381 C   0  0  0  0  0  0  0  0  0  0  0  0
   11.9873   -8.1262   10.8547 C   0  0  0  0  0  0  0  0  0  0  0  0
   13.3953   -7.1532   10.2926 S   0  0  2  0  0  0  0  0  0  0  0  0
   13.3404   -5.8028   11.4895 C   0  0  0  0  0  0  0  0  0  0  0  0
   12.6692   -6.3182    8.8628 C   0  0  0  0  0  0  0  0  0  0  0  0
   13.5366   -5.1555    8.4167 C   0  0  1  0  0  0  0  0  0  0  0  0
   14.8725   -5.5700    8.2446 O   0  0  0  0  0  0  0  0  0  0  0  0
   13.1204   -4.5954    7.0708 C   0  0  1  0  0  0  0  0  0  0  0  0
   12.2250   -3.5346    7.2899 O   0  0  0  0  0  0  0  0  0  0  0  0
   14.4219   -4.0961    6.4768 C   0  0  1  0  0  0  0  0  0  0  0  0
   14.4695   -2.7017    6.6802 O   0  0  0  0  0  0  0  0  0  0  0  0
   15.5346   -4.7959    7.2601 C   0  0  2  0  0  0  0  0  0  0  0  0
   11.1226  -12.0153   13.2510 O   0  0  0  0  0  0  0  0  0  0  0  0
   15.1630   -9.1759    4.4148 N   0  0  0  0  0  0  0  0  0  0  0  0
   14.1698   -8.5436    5.1225 C   0  0  0  0  0  0  0  0  0  0  0  0
   14.4666   -7.3913    5.8166 N   0  0  0  0  0  0  0  0  0  0  0  0
   15.7151   -6.8729    5.8100 C   0  0  0  0  0  0  0  0  0  0  0  0
   16.7253   -7.4925    5.0887 C   0  0  0  0  0  0  0  0  0  0  0  0
   16.4431   -8.6644    4.3899 C   0  0  0  0  0  0  0  0  0  0  0  0
   17.3884   -9.2928    3.6905 N   0  0  0  0  0  0  0  0  0  0  0  0
   17.8598   -6.7635    5.2485 N   0  0  0  0  0  0  0  0  0  0  0  0
   17.5729   -5.7013    6.0358 C   0  0  0  0  0  0  0  0  0  0  0  0
   16.2462   -5.7503    6.3867 N   0  0  0  0  0  0  0  0  0  0  0  0
  2  1  1  1  0  0  0
  2  3  1  0  0  0  0
  2  5  1  0  0  0  0
  3  4  1  0  0  0  0
  3 17  1  0  0  0  0
  5  6  1  0  0  0  0
  7  6  1  1  0  0  0
  7  8  1  0  0  0  0
  7  9  1  0  0  0  0
 10  9  1  6  0  0  0
 10 11  1  0  0  0  0
 10 12  1  0  0  0  0
 11 16  1  0  0  0  0
 12 13  1  1  0  0  0
 12 14  1  0  0  0  0
 14 15  1  1  0  0  0
 14 16  1  0  0  0  0
 16 27  1  6  0  0  0
 18 19  2  0  0  0  0
 18 23  1  0  0  0  0
 19 20  1  0  0  0  0
 20 21  2  0  0  0  0
 21 22  1  0  0  0  0
 21 27  1  0  0  0  0
 22 23  2  0  0  0  0
 22 25  1  0  0  0  0
 23 24  1  0  0  0  0
 25 26  2  0  0  0  0
 26 27  1  0  0  0  0
M  END
>  <CHROM.1>
-69.78795817,-71.50709975,170.76090182,-81.16173769,164.98504683,51.38863141
49.27052093,13.99072752,-7.18385322,8.49471416,2.56050709,-0.98759365,2.89370139

>  <Name>
ligand

>  <RI>
0

>  <Rbt.Current_Directory>
/home/itssahil/PROJECTS/Mol_Feturizer/New_Systems/rnas/3GX5

>  <Rbt.Executable>
rbdock ($Id: //depot/dev/client3/rdock/2013.1/src/exe/rbdock.cxx#4 $)

>  <Rbt.Library>
libRbt.so (2013.1, Build901 2013/11/27)

>  <Rbt.Parameter_File>
/export/apps/rDock/src/rDock_2013.1_src/data/scripts/dock_solv.prm

>  <Rbt.Receptor>
prm/pocket_docking_5.prm

>  <SCORE>
-12.5731

>  <SCORE.INTER>
-12.3179

>  <SCORE.INTER.CONST>
1

>  <SCORE.INTER.POLAR>
0

>  <SCORE.INTER.ROT>
7

>  <SCORE.INTER.SOLV>
14.4277

>  <SCORE.INTER.VDW>
-21.2879

>  <SCORE.INTER.norm>
-0.456219

>  <SCORE.INTRA>
-0.255191

>  <SCORE.INTRA.DIHEDRAL>
0.81324

>  <SCORE.INTRA.DIHEDRAL.0>
4.28829

>  <SCORE.INTRA.POLAR>
0

>  <SCORE.INTRA.POLAR.0>
0

>  <SCORE.INTRA.REPUL>
0

>  <SCORE.INTRA.REPUL.0>
0

>  <SCORE.INTRA.SOLV>
-0.445207

>  <SCORE.INTRA.SOLV.lig_0>
-48.6018

>  <SCORE.INTRA.VDW>
-0.439207

>  <SCORE.INTRA.VDW.0>
-2.1506

>  <SCORE.INTRA.norm>
-0.0094515

>  <SCORE.RESTR>
0

>  <SCORE.RESTR.CAVITY>
0

>  <SCORE.RESTR.norm>
0

>  <SCORE.SYSTEM>
0

>  <SCORE.SYSTEM.CONST>
0

>  <SCORE.SYSTEM.DIHEDRAL>
0

>  <SCORE.SYSTEM.SOLV>
0

>  <SCORE.SYSTEM.norm>
0

>  <SCORE.heavy>
27

>  <SCORE.norm>
-0.465671

>  <RMSD>
5.217

$$$$
ligand
 OpenBabel11021811483D
libRbt.so/2013.1/901 2013/11/27
 27 29  0  0  0  0  0  0  0  0999 V2000
   12.5929   -8.7735    8.9062 N   0  0  0  0  0  0  0  0  0  0  0  0
   12.8503   -8.2730   10.2579 C   0  0  2  0  0  0  0  0  0  0  0  0
   12.3799   -9.1755   11.4011 C   0  0  0  0  0  0  0  0  0  0  0  0
   13.2081   -9.5788   12.2167 O   0  0  0  0  0  0  0  0  0  0  0  0
   12.3038   -6.8656   10.4295 C   0  0  0  0  0  0  0  0  0  0  0  0
   12.9861   -6.1372   11.5747 C   0  0  0  0  0  0  0  0  0  0  0  0
   14.6769   -5.6996   11.1335 S   0  0  2  0  0  0  0  0  0  0  0  0
   15.1644   -4.7971   12.6191 C   0  0  0  0  0  0  0  0  0  0  0  0
   14.3771   -4.3072   10.0199 C   0  0  0  0  0  0  0  0  0  0  0  0
   15.6826   -3.7632    9.4696 C   0  0  1  0  0  0  0  0  0  0  0  0
   16.5257   -4.8156    9.0599 O   0  0  0  0  0  0  0  0  0  0  0  0
   15.4875   -2.9092    8.2323 C   0  0  1  0  0  0  0  0  0  0  0  0
   15.3725   -1.5672    8.6336 O   0  0  0  0  0  0  0  0  0  0  0  0
   16.7603   -3.1343    7.4416 C   0  0  1  0  0  0  0  0  0  0  0  0
   17.6032   -2.0289    7.6777 O   0  0  0  0  0  0  0  0  0  0  0  0
   17.3792   -4.4167    8.0020 C   0  0  2  0  0  0  0  0  0  0  0  0
   11.2044   -9.5239   11.5408 O   0  0  0  0  0  0  0  0  0  0  0  0
   14.2764   -7.5062    5.1305 N   0  0  0  0  0  0  0  0  0  0  0  0
   13.9023   -6.5257    6.0171 C   0  0  0  0  0  0  0  0  0  0  0  0
   14.8752   -5.8148    6.6848 N   0  0  0  0  0  0  0  0  0  0  0  0
   16.1880   -6.0639    6.4799 C   0  0  0  0  0  0  0  0  0  0  0  0
   16.5813   -7.0413    5.5774 C   0  0  0  0  0  0  0  0  0  0  0  0
   15.6090   -7.7760    4.9020 C   0  0  0  0  0  0  0  0  0  0  0  0
   15.9470   -8.7280    4.0319 N   0  0  0  0  0  0  0  0  0  0  0  0
   17.9388   -7.0736    5.5623 N   0  0  0  0  0  0  0  0  0  0  0  0
   18.3940   -6.1307    6.4192 C   0  0  0  0  0  0  0  0  0  0  0  0
   17.3218   -5.4910    6.9908 N   0  0  0  0  0  0  0  0  0  0  0  0
  2  1  1  6  0  0  0
  2  3  1  0  0  0  0
  2  5  1  0  0  0  0
  3  4  1  0  0  0  0
  3 17  1  0  0  0  0
  5  6  1  0  0  0  0
  7  6  1  1  0  0  0
  7  8  1  0  0  0  0
  7  9  1  0  0  0  0
 10  9  1  6  0  0  0
 10 11  1  0  0  0  0
 10 12  1  0  0  0  0
 11 16  1  0  0  0  0
 12 13  1  1  0  0  0
 12 14  1  0  0  0  0
 14 15  1  1  0  0  0
 14 16  1  0  0  0  0
 16 27  1  6  0  0  0
 18 19  2  0  0  0  0
 18 23  1  0  0  0  0
 19 20  1  0  0  0  0
 20 21  2  0  0  0  0
 21 22  1  0  0  0  0
 21 27  1  0  0  0  0
 22 23  2  0  0  0  0
 22 25  1  0  0  0  0
 23 24  1  0  0  0  0
 25 26  2  0  0  0  0
 26 27  1  0  0  0  0
M  END
>  <CHROM.1>
121.22262895,-158.38090285,71.90872497,177.07647562,-178.66596973,44.74920350
49.12647261,15.04895067,-6.02368704,8.60588536,2.93183004,0.93610524,0.82160990

>  <Name>
ligand

>  <RI>
0

>  <Rbt.Current_Directory>
/home/itssahil/PROJECTS/Mol_Feturizer/New_Systems/rnas/3GX5

>  <Rbt.Executable>
rbdock ($Id: //depot/dev/client3/rdock/2013.1/src/exe/rbdock.cxx#4 $)

>  <Rbt.Library>
libRbt.so (2013.1, Build901 2013/11/27)

>  <Rbt.Parameter_File>
/export/apps/rDock/src/rDock_2013.1_src/data/scripts/dock_solv.prm

>  <Rbt.Receptor>
prm/pocket_docking_5.prm

>  <SCORE>
-12.5127

>  <SCORE.INTER>
-11.8507

>  <SCORE.INTER.CONST>
1

>  <SCORE.INTER.POLAR>
0

>  <SCORE.INTER.ROT>
7

>  <SCORE.INTER.SOLV>
16.0277

>  <SCORE.INTER.VDW>
-21.5097

>  <SCORE.INTER.norm>
-0.438914

>  <SCORE.INTRA>
-0.662002

>  <SCORE.INTRA.DIHEDRAL>
2.36485

>  <SCORE.INTRA.DIHEDRAL.0>
4.28829

>  <SCORE.INTRA.POLAR>
0

>  <SCORE.INTRA.POLAR.0>
0

>  <SCORE.INTRA.REPUL>
0

>  <SCORE.INTRA.REPUL.0>
0

>  <SCORE.INTRA.SOLV>
-0.85682

>  <SCORE.INTRA.SOLV.lig_0>
-48.6018

>  <SCORE.INTRA.VDW>
-1.41602

>  <SCORE.INTRA.VDW.0>
-2.1506

>  <SCORE.INTRA.norm>
-0.0245186

>  <SCORE.RESTR>
0

>  <SCORE.RESTR.CAVITY>
0

>  <SCORE.RESTR.norm>
0

>  <SCORE.SYSTEM>
0

>  <SCORE.SYSTEM.CONST>
0

>  <SCORE.SYSTEM.DIHEDRAL>
0

>  <SCORE.SYSTEM.SOLV>
0

>  <SCORE.SYSTEM.norm>
0

>  <SCORE.heavy>
27

>  <SCORE.norm>
-0.463433

>  <RMSD>
5.220

$$$$
ligand
 OpenBabel11021811483D
libRbt.so/2013.1/901 2013/11/27
 27 29  0  0  0  0  0  0  0  0999 V2000
   16.3553   -6.3686   10.7411 N   0  0  0  0  0  0  0  0  0  0  0  0
   15.1954   -5.5392   10.4084 C   0  0  2  0  0  0  0  0  0  0  0  0
   14.5265   -4.8289   11.5877 C   0  0  0  0  0  0  0  0  0  0  0  0
   13.8448   -3.8286   11.3675 O   0  0  0  0  0  0  0  0  0  0  0  0
   14.1718   -6.3309    9.6119 C   0  0  0  0  0  0  0  0  0  0  0  0
   13.1676   -5.4181    8.9295 C   0  0  0  0  0  0  0  0  0  0  0  0
   13.8253   -4.8012    7.3700 S   0  0  2  0  0  0  0  0  0  0  0  0
   12.6699   -3.4501    7.0556 C   0  0  0  0  0  0  0  0  0  0  0  0
   13.1663   -6.0340    6.2235 C   0  0  0  0  0  0  0  0  0  0  0  0
   14.2080   -7.0917    5.9083 C   0  0  1  0  0  0  0  0  0  0  0  0
   14.9723   -7.3927    7.0535 O   0  0  0  0  0  0  0  0  0  0  0  0
   13.5945   -8.4118    5.4849 C   0  0  1  0  0  0  0  0  0  0  0  0
   13.4996   -8.4270    4.0828 O   0  0  0  0  0  0  0  0  0  0  0  0
   14.5937   -9.4404    5.9745 C   0  0  1  0  0  0  0  0  0  0  0  0
   15.3815   -9.8211    4.8689 O   0  0  0  0  0  0  0  0  0  0  0  0
   15.4458   -8.7276    7.0268 C   0  0  2  0  0  0  0  0  0  0  0  0
   14.6439   -5.2108   12.7552 O   0  0  0  0  0  0  0  0  0  0  0  0
   11.8202   -9.6826   10.6821 N   0  0  0  0  0  0  0  0  0  0  0  0
   11.6414   -9.1074    9.4475 C   0  0  0  0  0  0  0  0  0  0  0  0
   12.7294   -8.9374    8.6199 N   0  0  0  0  0  0  0  0  0  0  0  0
   13.9659   -9.3291    9.0010 C   0  0  0  0  0  0  0  0  0  0  0  0
   14.1598   -9.9241   10.2391 C   0  0  0  0  0  0  0  0  0  0  0  0
   13.0709  -10.0935   11.0917 C   0  0  0  0  0  0  0  0  0  0  0  0
   13.2178  -10.6551   12.2920 N   0  0  0  0  0  0  0  0  0  0  0  0
   15.4795  -10.2221   10.3570 N   0  0  0  0  0  0  0  0  0  0  0  0
   16.1025   -9.8418    9.2178 C   0  0  0  0  0  0  0  0  0  0  0  0
   15.1774   -9.2930    8.3641 N   0  0  0  0  0  0  0  0  0  0  0  0
  2  1  1  1  0  0  0
  2  3  1  0  0  0  0
  2  5  1  0  0  0  0
  3  4  1  0  0  0  0
  3 17  1  0  0  0  0
  5  6  1  0  0  0  0
  7  6  1  1  0  0  0
  7  8  1  0  0  0  0
  7  9  1  0  0  0  0
 10  9  1  1  0  0  0
 10 11  1  0  0  0  0
 10 12  1  0  0  0  0
 11 16  1  0  0  0  0
 12 13  1  6  0  0  0
 12 14  1  0  0  0  0
 14 15  1  6  0  0  0
 14 16  1  0  0  0  0
 16 27  1  1  0  0  0
 18 19  2  0  0  0  0
 18 23  1  0  0  0  0
 19 20  1  0  0  0  0
 20 21  2  0  0  0  0
 21 22  1  0  0  0  0
 21 27  1  0  0  0  0
 22 23  2  0  0  0  0
 22 25  1  0  0  0  0
 23 24  1  0  0  0  0
 25 26  2  0  0  0  0
 26 27  1  0  0  0  0
M  END
>  <CHROM.1>
157.80980962,-163.96801109,83.35851385,-164.96529012,-97.92608008,37.56607463
54.63816160,14.08959704,-7.50884667,8.62696136,1.89271437,-1.52893146,1.48287639

>  <Name>
ligand

>  <RI>
0

>  <Rbt.Current_Directory>
/home/itssahil/PROJECTS/Mol_Feturizer/New_Systems/rnas/3GX5

>  <Rbt.Executable>
rbdock ($Id: //depot/dev/client3/rdock/2013.1/src/exe/rbdock.cxx#4 $)

>  <Rbt.Library>
libRbt.so (2013.1, Build901 2013/11/27)

>  <Rbt.Parameter_File>
/export/apps/rDock/src/rDock_2013.1_src/data/scripts/dock_solv.prm

>  <Rbt.Receptor>
prm/pocket_docking_4.prm

>  <SCORE>
-13.5597

>  <SCORE.INTER>
-14.2963

>  <SCORE.INTER.CONST>
1

>  <SCORE.INTER.POLAR>
0

>  <SCORE.INTER.ROT>
7

>  <SCORE.INTER.SOLV>
9.89748

>  <SCORE.INTER.VDW>
-21.0967

>  <SCORE.INTER.norm>
-0.529491

>  <SCORE.INTRA>
0.736522

>  <SCORE.INTRA.DIHEDRAL>
6.94161

>  <SCORE.INTRA.DIHEDRAL.0>
4.28829

>  <SCORE.INTRA.POLAR>
0

>  <SCORE.INTRA.POLAR.0>
0

>  <SCORE.INTRA.REPUL>
0

>  <SCORE.INTRA.REPUL.0>
0

>  <SCORE.INTRA.SOLV>
-0.412679

>  <SCORE.INTRA.SOLV.lig_0>
-48.6018

>  <SCORE.INTRA.VDW>
-2.52794

>  <SCORE.INTRA.VDW.0>
-2.1506

>  <SCORE.INTRA.norm>
0.0272786

>  <SCORE.RESTR>
0

>  <SCORE.RESTR.CAVITY>
0

>  <SCORE.RESTR.norm>
0

>  <SCORE.SYSTEM>
0

>  <SCORE.SYSTEM.CONST>
0

>  <SCORE.SYSTEM.DIHEDRAL>
0

>  <SCORE.SYSTEM.SOLV>
0

>  <SCORE.SYSTEM.norm>
0

>  <SCORE.heavy>
27

>  <SCORE.norm>
-0.502213

>  <RMSD>
5.227

$$$$
ligand
 OpenBabel11021811483D
libRbt.so/2013.1/901 2013/11/27
 27 29  0  0  0  0  0  0  0  0999 V2000
   13.4988   -6.6450   10.8294 N   0  0  0  0  0  0  0  0  0  0  0  0
   14.8080   -6.0040   10.6914 C   0  0  2  0  0  0  0  0  0  0  0  0
   15.0314   -4.7578   11.5515 C   0  0  0  0  0  0  0  0  0  0  0  0
   16.0947   -4.6401   12.1591 O   0  0  0  0  0  0  0  0  0  0  0  0
   15.1175   -5.7087    9.2333 C   0  0  0  0  0  0  0  0  0  0  0  0
   14.0589   -4.8173    8.6071 C   0  0  0  0  0  0  0  0  0  0  0  0
   14.4026   -4.5528    6.8586 S   0  0  2  0  0  0  0  0  0  0  0  0
   13.2865   -3.1734    6.5254 C   0  0  0  0  0  0  0  0  0  0  0  0
   13.4438   -5.8996    6.1268 C   0  0  0  0  0  0  0  0  0  0  0  0
   14.3375   -7.0783    5.7877 C   0  0  1  0  0  0  0  0  0  0  0  0
   15.1661   -7.4037    6.8803 O   0  0  0  0  0  0  0  0  0  0  0  0
   13.5547   -8.3433    5.4954 C   0  0  1  0  0  0  0  0  0  0  0  0
   13.3333   -8.4172    4.1096 O   0  0  0  0  0  0  0  0  0  0  0  0
   14.4816   -9.4489    5.9588 C   0  0  1  0  0  0  0  0  0  0  0  0
   15.1231   -9.9670    4.8151 O   0  0  0  0  0  0  0  0  0  0  0  0
   15.4941   -8.7818    6.8922 C   0  0  2  0  0  0  0  0  0  0  0  0
   14.1889   -3.8639   11.6692 O   0  0  0  0  0  0  0  0  0  0  0  0
   11.9941   -9.8071   10.6495 N   0  0  0  0  0  0  0  0  0  0  0  0
   11.7531   -9.3734    9.3685 C   0  0  0  0  0  0  0  0  0  0  0  0
   12.8162   -9.1561    8.5199 N   0  0  0  0  0  0  0  0  0  0  0  0
   14.0888   -9.3650    8.9255 C   0  0  0  0  0  0  0  0  0  0  0  0
   14.3471   -9.8163   10.2117 C   0  0  0  0  0  0  0  0  0  0  0  0
   13.2830  -10.0308   11.0851 C   0  0  0  0  0  0  0  0  0  0  0  0
   13.4909  -10.4579   12.3309 N   0  0  0  0  0  0  0  0  0  0  0  0
   15.6921   -9.9472   10.3458 N   0  0  0  0  0  0  0  0  0  0  0  0
   16.2698   -9.6046    9.1713 C   0  0  0  0  0  0  0  0  0  0  0  0
   15.2896   -9.2481    8.2782 N   0  0  0  0  0  0  0  0  0  0  0  0
  2  1  1  6  0  0  0
  2  3  1  0  0  0  0
  2  5  1  0  0  0  0
  3  4  1  0  0  0  0
  3 17  1  0  0  0  0
  5  6  1  0  0  0  0
  7  6  1  1  0  0  0
  7  8  1  0  0  0  0
  7  9  1  0  0  0  0
 10  9  1  1  0  0  0
 10 11  1  0  0  0  0
 10 12  1  0  0  0  0
 11 16  1  0  0  0  0
 12 13  1  6  0  0  0
 12 14  1  0  0  0  0
 14 15  1  6  0  0  0
 14 16  1  0  0  0  0
 16 27  1  1  0  0  0
 18 19  2  0  0  0  0
 18 23  1  0  0  0  0
 19 20  1  0  0  0  0
 20 21  2  0  0  0  0
 21 22  1  0  0  0  0
 21 27  1  0  0  0  0
 22 23  2  0  0  0  0
 22 25  1  0  0  0  0
 23 24  1  0  0  0  0
 25 26  2  0  0  0  0
 26 27  1  0  0  0  0
M  END
>  <CHROM.1>
135.08084640,58.10534624,-177.04817594,-166.01608005,-99.40493854,48.50115740
68.46987347,14.25728064,-7.42621035,8.50433778,0.88057889,1.49486900,1.89249779

>  <Name>
ligand

>  <RI>
0

>  <Rbt.Current_Directory>
/home/itssahil/PROJECTS/Mol_Feturizer/New_Systems/rnas/3GX5

>  <Rbt.Executable>
rbdock ($Id: //depot/dev/client3/rdock/2013.1/src/exe/rbdock.cxx#4 $)

>  <Rbt.Library>
libRbt.so (2013.1, Build901 2013/11/27)

>  <Rbt.Parameter_File>
/export/apps/rDock/src/rDock_2013.1_src/data/scripts/dock_solv.prm

>  <Rbt.Receptor>
prm/pocket_docking_3.prm

>  <SCORE>
-14.1901

>  <SCORE.INTER>
-14.0399

>  <SCORE.INTER.CONST>
1

>  <SCORE.INTER.POLAR>
0

>  <SCORE.INTER.ROT>
7

>  <SCORE.INTER.SOLV>
9.63127

>  <SCORE.INTER.VDW>
-20.837

>  <SCORE.INTER.norm>
-0.519996

>  <SCORE.INTRA>
-0.150208

>  <SCORE.INTRA.DIHEDRAL>
3.21694

>  <SCORE.INTRA.DIHEDRAL.0>
4.28829

>  <SCORE.INTRA.POLAR>
0

>  <SCORE.INTRA.POLAR.0>
0

>  <SCORE.INTRA.REPUL>
0

>  <SCORE.INTRA.REPUL.0>
0

>  <SCORE.INTRA.SOLV>
2.05814

>  <SCORE.INTRA.SOLV.lig_0>
-48.6018

>  <SCORE.INTRA.VDW>
-2.78775

>  <SCORE.INTRA.VDW.0>
-2.1506

>  <SCORE.INTRA.norm>
-0.00556327

>  <SCORE.RESTR>
0

>  <SCORE.RESTR.CAVITY>
0

>  <SCORE.RESTR.norm>
0

>  <SCORE.SYSTEM>
0

>  <SCORE.SYSTEM.CONST>
0

>  <SCORE.SYSTEM.DIHEDRAL>
0

>  <SCORE.SYSTEM.SOLV>
0

>  <SCORE.SYSTEM.norm>
0

>  <SCORE.heavy>
27

>  <SCORE.norm>
-0.525559

>  <RMSD>
5.231

$$$$
ligand
 OpenBabel11021811483D
libRbt.so/2013.1/901 2013/11/27
 27 29  0  0  0  0  0  0  0  0999 V2000
   14.8681   -4.1304   12.0812 N   0  0  0  0  0  0  0  0  0  0  0  0
   14.0405   -4.6875   11.0095 C   0  0  2  0  0  0  0  0  0  0  0  0
   13.6871   -6.1705   11.1459 C   0  0  0  0  0  0  0  0  0  0  0  0
   14.5765   -6.9665   11.4441 O   0  0  0  0  0  0  0  0  0  0  0  0
   14.6544   -4.4081    9.6479 C   0  0  0  0  0  0  0  0  0  0  0  0
   13.8250   -5.0108    8.5270 C   0  0  0  0  0  0  0  0  0  0  0  0
   14.5146   -4.5765    6.9204 S   0  0  2  0  0  0  0  0  0  0  0  0
   13.6196   -3.0417    6.6003 C   0  0  0  0  0  0  0  0  0  0  0  0
   13.5846   -5.6968    5.8487 C   0  0  0  0  0  0  0  0  0  0  0  0
   14.1751   -7.0943    5.8839 C   0  0  1  0  0  0  0  0  0  0  0  0
   14.5045   -7.4611    7.2042 O   0  0  0  0  0  0  0  0  0  0  0  0
   13.2008   -8.1552    5.4109 C   0  0  1  0  0  0  0  0  0  0  0  0
   13.4031   -8.3612    4.0355 O   0  0  0  0  0  0  0  0  0  0  0  0
   13.5959   -9.3809    6.2094 C   0  0  1  0  0  0  0  0  0  0  0  0
   14.3866  -10.1926    5.3705 O   0  0  0  0  0  0  0  0  0  0  0  0
   14.4170   -8.8625    7.3920 C   0  0  2  0  0  0  0  0  0  0  0  0
   12.5476   -6.6081   10.9647 O   0  0  0  0  0  0  0  0  0  0  0  0
   14.7244  -10.3319   12.4084 N   0  0  0  0  0  0  0  0  0  0  0  0
   15.7437  -10.2446   11.4916 C   0  0  0  0  0  0  0  0  0  0  0  0
   15.4608   -9.8356   10.2070 N   0  0  0  0  0  0  0  0  0  0  0  0
   14.2004   -9.5171    9.8362 C   0  0  0  0  0  0  0  0  0  0  0  0
   13.1629   -9.5870   10.7546 C   0  0  0  0  0  0  0  0  0  0  0  0
   13.4315  -10.0089   12.0550 C   0  0  0  0  0  0  0  0  0  0  0  0
   12.4604  -10.0954   12.9645 N   0  0  0  0  0  0  0  0  0  0  0  0
   12.0212   -9.2085   10.1243 N   0  0  0  0  0  0  0  0  0  0  0  0
   12.3291   -8.8909    8.8456 C   0  0  0  0  0  0  0  0  0  0  0  0
   13.6769   -9.0698    8.6527 N   0  0  0  0  0  0  0  0  0  0  0  0
  2  1  1  1  0  0  0
  2  3  1  0  0  0  0
  2  5  1  0  0  0  0
  3  4  1  0  0  0  0
  3 17  1  0  0  0  0
  5  6  1  0  0  0  0
  7  6  1  1  0  0  0
  7  8  1  0  0  0  0
  7  9  1  0  0  0  0
 10  9  1  1  0  0  0
 10 11  1  0  0  0  0
 10 12  1  0  0  0  0
 11 16  1  0  0  0  0
 12 13  1  6  0  0  0
 12 14  1  0  0  0  0
 14 15  1  6  0  0  0
 14 16  1  0  0  0  0
 16 27  1  1  0  0  0
 18 19  2  0  0  0  0
 18 23  1  0  0  0  0
 19 20  1  0  0  0  0
 20 21  2  0  0  0  0
 21 22  1  0  0  0  0
 21 27  1  0  0  0  0
 22 23  2  0  0  0  0
 22 25  1  0  0  0  0
 23 24  1  0  0  0  0
 25 26  2  0  0  0  0
 26 27  1  0  0  0  0
M  END
>  <CHROM.1>
-45.97587084,178.55461543,176.35889111,-90.18398011,-80.04281935,42.94070511
-108.60159255,13.91429298,-7.49625749,8.83934037,-1.77097284,-1.50823710
-1.29047201

>  <Name>
ligand

>  <RI>
0

>  <Rbt.Current_Directory>
/home/itssahil/PROJECTS/Mol_Feturizer/New_Systems/rnas/3GX5

>  <Rbt.Executable>
rbdock ($Id: //depot/dev/client3/rdock/2013.1/src/exe/rbdock.cxx#4 $)

>  <Rbt.Library>
libRbt.so (2013.1, Build901 2013/11/27)

>  <Rbt.Parameter_File>
/export/apps/rDock/src/rDock_2013.1_src/data/scripts/dock_solv.prm

>  <Rbt.Receptor>
prm/pocket_docking_3.prm

>  <SCORE>
-13.4782

>  <SCORE.INTER>
-12.0702

>  <SCORE.INTER.CONST>
1

>  <SCORE.INTER.POLAR>
0

>  <SCORE.INTER.ROT>
7

>  <SCORE.INTER.SOLV>
13.4695

>  <SCORE.INTER.VDW>
-20.8033

>  <SCORE.INTER.norm>
-0.447045

>  <SCORE.INTRA>
-1.57565

>  <SCORE.INTRA.DIHEDRAL>
1.75343

>  <SCORE.INTRA.DIHEDRAL.0>
4.28829

>  <SCORE.INTRA.POLAR>
0

>  <SCORE.INTRA.POLAR.0>
0

>  <SCORE.INTRA.REPUL>
0

>  <SCORE.INTRA.REPUL.0>
0

>  <SCORE.INTRA.SOLV>
-1.16924

>  <SCORE.INTRA.SOLV.lig_0>
-48.6018

>  <SCORE.INTRA.VDW>
-1.86774

>  <SCORE.INTRA.VDW.0>
-2.1506

>  <SCORE.INTRA.norm>
-0.0583574

>  <SCORE.RESTR>
0.167688

>  <SCORE.RESTR.CAVITY>
0.167688

>  <SCORE.RESTR.norm>
0.00621068

>  <SCORE.SYSTEM>
0

>  <SCORE.SYSTEM.CONST>
0

>  <SCORE.SYSTEM.DIHEDRAL>
0

>  <SCORE.SYSTEM.SOLV>
0

>  <SCORE.SYSTEM.norm>
0

>  <SCORE.heavy>
27

>  <SCORE.norm>
-0.499192

>  <RMSD>
5.232

$$$$
ligand
 OpenBabel11021811483D
libRbt.so/2013.1/901 2013/11/27
 27 29  0  0  0  0  0  0  0  0999 V2000
   13.2758   -8.5514    8.4296 N   0  0  0  0  0  0  0  0  0  0  0  0
   14.7037   -8.8685    8.3638 C   0  0  2  0  0  0  0  0  0  0  0  0
   15.5735   -8.2458    9.4586 C   0  0  0  0  0  0  0  0  0  0  0  0
   16.2834   -8.9826   10.1419 O   0  0  0  0  0  0  0  0  0  0  0  0
   15.2679   -8.5518    6.9890 C   0  0  0  0  0  0  0  0  0  0  0  0
   15.1876   -7.0665    6.6809 C   0  0  0  0  0  0  0  0  0  0  0  0
   13.4825   -6.5704    6.3781 S   0  0  2  0  0  0  0  0  0  0  0  0
   13.1911   -7.3985    4.8005 C   0  0  0  0  0  0  0  0  0  0  0  0
   13.7308   -4.8792    5.7893 C   0  0  0  0  0  0  0  0  0  0  0  0
   14.0056   -3.9376    6.9473 C   0  0  1  0  0  0  0  0  0  0  0  0
   13.1373   -4.2081    8.0239 O   0  0  0  0  0  0  0  0  0  0  0  0
   15.4016   -4.0984    7.5160 C   0  0  1  0  0  0  0  0  0  0  0  0
   16.2495   -3.1780    6.8765 O   0  0  0  0  0  0  0  0  0  0  0  0
   15.2295   -3.7537    8.9815 C   0  0  1  0  0  0  0  0  0  0  0  0
   15.6617   -2.4228    9.1541 O   0  0  0  0  0  0  0  0  0  0  0  0
   13.7313   -3.8780    9.2670 C   0  0  2  0  0  0  0  0  0  0  0  0
   15.5921   -7.0344    9.6929 O   0  0  0  0  0  0  0  0  0  0  0  0
   14.8208   -6.0738   13.8940 N   0  0  0  0  0  0  0  0  0  0  0  0
   15.2846   -4.8799   13.3974 C   0  0  0  0  0  0  0  0  0  0  0  0
   14.8812   -4.4688   12.1460 N   0  0  0  0  0  0  0  0  0  0  0  0
   14.0366   -5.2181   11.4024 C   0  0  0  0  0  0  0  0  0  0  0  0
   13.5490   -6.4193   11.8961 C   0  0  0  0  0  0  0  0  0  0  0  0
   13.9558   -6.8536   13.1559 C   0  0  0  0  0  0  0  0  0  0  0  0
   13.5145   -8.0053   13.6622 N   0  0  0  0  0  0  0  0  0  0  0  0
   12.7251   -6.9527   10.9575 N   0  0  0  0  0  0  0  0  0  0  0  0
   12.6783   -6.1045    9.9044 C   0  0  0  0  0  0  0  0  0  0  0  0
   13.4799   -5.0210   10.1671 N   0  0  0  0  0  0  0  0  0  0  0  0
  2  1  1  6  0  0  0
  2  3  1  0  0  0  0
  2  5  1  0  0  0  0
  3  4  1  0  0  0  0
  3 17  1  0  0  0  0
  5  6  1  0  0  0  0
  7  6  1  6  0  0  0
  7  8  1  0  0  0  0
  7  9  1  0  0  0  0
 10  9  1  6  0  0  0
 10 11  1  0  0  0  0
 10 12  1  0  0  0  0
 11 16  1  0  0  0  0
 12 13  1  6  0  0  0
 12 14  1  0  0  0  0
 14 15  1  6  0  0  0
 14 16  1  0  0  0  0
 16 27  1  1  0  0  0
 18 19  2  0  0  0  0
 18 23  1  0  0  0  0
 19 20  1  0  0  0  0
 20 21  2  0  0  0  0
 21 22  1  0  0  0  0
 21 27  1  0  0  0  0
 22 23  2  0  0  0  0
 22 25  1  0  0  0  0
 23 24  1  0  0  0  0
 25 26  2  0  0  0  0
 26 27  1  0  0  0  0
M  END
>  <CHROM.1>
125.50052571,63.62686878,-71.78627287,-69.41154554,-77.81743903,-43.07233959
169.92874170,14.37755120,-6.00036967,9.19111073,1.75419354,-1.47617913,-1.30136935

>  <Name>
ligand

>  <RI>
0

>  <Rbt.Current_Directory>
/home/itssahil/PROJECTS/Mol_Feturizer/New_Systems/rnas/3GX5

>  <Rbt.Executable>
rbdock ($Id: //depot/dev/client3/rdock/2013.1/src/exe/rbdock.cxx#4 $)

>  <Rbt.Library>
libRbt.so (2013.1, Build901 2013/11/27)

>  <Rbt.Parameter_File>
/export/apps/rDock/src/rDock_2013.1_src/data/scripts/dock_solv.prm

>  <Rbt.Receptor>
prm/pocket_docking_3.prm

>  <SCORE>
-13.2984

>  <SCORE.INTER>
-12.7593

>  <SCORE.INTER.CONST>
1

>  <SCORE.INTER.POLAR>
0

>  <SCORE.INTER.ROT>
7

>  <SCORE.INTER.SOLV>
8.84816

>  <SCORE.INTER.VDW>
-19.7223

>  <SCORE.INTER.norm>
-0.472568

>  <SCORE.INTRA>
-0.605583

>  <SCORE.INTRA.DIHEDRAL>
0.941906

>  <SCORE.INTRA.DIHEDRAL.0>
4.28829

>  <SCORE.INTRA.POLAR>
0

>  <SCORE.INTRA.POLAR.0>
0

>  <SCORE.INTRA.REPUL>
0

>  <SCORE.INTRA.REPUL.0>
0

>  <SCORE.INTRA.SOLV>
2.87528

>  <SCORE.INTRA.SOLV.lig_0>
-48.6018

>  <SCORE.INTRA.VDW>
-2.51418

>  <SCORE.INTRA.VDW.0>
-2.1506

>  <SCORE.INTRA.norm>
-0.022429

>  <SCORE.RESTR>
0.0665321

>  <SCORE.RESTR.CAVITY>
0.0665321

>  <SCORE.RESTR.norm>
0.00246415

>  <SCORE.SYSTEM>
0

>  <SCORE.SYSTEM.CONST>
0

>  <SCORE.SYSTEM.DIHEDRAL>
0

>  <SCORE.SYSTEM.SOLV>
0

>  <SCORE.SYSTEM.norm>
0

>  <SCORE.heavy>
27

>  <SCORE.norm>
-0.492533

>  <RMSD>
5.237

$$$$
ligand
 OpenBabel11021811483D
libRbt.so/2013.1/901 2013/11/27
 27 29  0  0  0  0  0  0  0  0999 V2000
   15.0217   -4.0112   12.0800 N   0  0  0  0  0  0  0  0  0  0  0  0
   14.2800   -4.8626   11.1478 C   0  0  2  0  0  0  0  0  0  0  0  0
   14.5648   -6.3631   11.2484 C   0  0  0  0  0  0  0  0  0  0  0  0
   15.7223   -6.7569   11.1108 O   0  0  0  0  0  0  0  0  0  0  0  0
   14.4528   -4.3811    9.7170 C   0  0  0  0  0  0  0  0  0  0  0  0
   13.7075   -5.2688    8.7352 C   0  0  0  0  0  0  0  0  0  0  0  0
   13.8863   -4.6481    7.0535 S   0  0  2  0  0  0  0  0  0  0  0  0
   12.5371   -3.4491    7.0174 C   0  0  0  0  0  0  0  0  0  0  0  0
   13.1183   -5.9939    6.1220 C   0  0  0  0  0  0  0  0  0  0  0  0
   14.1336   -7.0729    5.7931 C   0  0  1  0  0  0  0  0  0  0  0  0
   14.9499   -7.3435    6.9096 O   0  0  0  0  0  0  0  0  0  0  0  0
   13.4880   -8.3997    5.4451 C   0  0  1  0  0  0  0  0  0  0  0  0
   13.3247   -8.4610    4.0506 O   0  0  0  0  0  0  0  0  0  0  0  0
   14.5002   -9.4221    5.9207 C   0  0  1  0  0  0  0  0  0  0  0  0
   15.2296   -9.8484    4.7919 O   0  0  0  0  0  0  0  0  0  0  0  0
   15.4091   -8.6837    6.9056 C   0  0  2  0  0  0  0  0  0  0  0  0
   13.6831   -7.2010   11.4564 O   0  0  0  0  0  0  0  0  0  0  0  0
   11.9054   -9.7818   10.6387 N   0  0  0  0  0  0  0  0  0  0  0  0
   11.6679   -9.2915    9.3776 C   0  0  0  0  0  0  0  0  0  0  0  0
   12.7315   -9.0638    8.5323 N   0  0  0  0  0  0  0  0  0  0  0  0
   14.0010   -9.3171    8.9219 C   0  0  0  0  0  0  0  0  0  0  0  0
   14.2555   -9.8254   10.1874 C   0  0  0  0  0  0  0  0  0  0  0  0
   13.1910  -10.0514   11.0575 C   0  0  0  0  0  0  0  0  0  0  0  0
   13.3954  -10.5328   12.2839 N   0  0  0  0  0  0  0  0  0  0  0  0
   15.5978   -9.9914   10.3084 N   0  0  0  0  0  0  0  0  0  0  0  0
   16.1773   -9.6146    9.1453 C   0  0  0  0  0  0  0  0  0  0  0  0
   15.2010   -9.2008    8.2728 N   0  0  0  0  0  0  0  0  0  0  0  0
  2  1  1  1  0  0  0
  2  3  1  0  0  0  0
  2  5  1  0  0  0  0
  3  4  1  0  0  0  0
  3 17  1  0  0  0  0
  5  6  1  0  0  0  0
  7  6  1  1  0  0  0
  7  8  1  0  0  0  0
  7  9  1  0  0  0  0
 10  9  1  1  0  0  0
 10 11  1  0  0  0  0
 10 12  1  0  0  0  0
 11 16  1  0  0  0  0
 12 13  1  6  0  0  0
 12 14  1  0  0  0  0
 14 15  1  6  0  0  0
 14 16  1  0  0  0  0
 16 27  1  1  0  0  0
 18 19  2  0  0  0  0
 18 23  1  0  0  0  0
 19 20  1  0  0  0  0
 20 21  2  0  0  0  0
 21 22  1  0  0  0  0
 21 27  1  0  0  0  0
 22 23  2  0  0  0  0
 22 25  1  0  0  0  0
 23 24  1  0  0  0  0
 25 26  2  0  0  0  0
 26 27  1  0  0  0  0
M  END
>  <CHROM.1>
-57.15947367,179.04402593,178.25278015,-85.65517599,-87.42112950,43.23597602
61.16713047,14.07837306,-7.54450438,8.55029989,0.71270559,-1.53635946,0.73687938

>  <Name>
ligand

>  <RI>
0

>  <Rbt.Current_Directory>
/home/itssahil/PROJECTS/Mol_Feturizer/New_Systems/rnas/3GX5

>  <Rbt.Executable>
rbdock ($Id: //depot/dev/client3/rdock/2013.1/src/exe/rbdock.cxx#4 $)

>  <Rbt.Library>
libRbt.so (2013.1, Build901 2013/11/27)

>  <Rbt.Parameter_File>
/export/apps/rDock/src/rDock_2013.1_src/data/scripts/dock_solv.prm

>  <Rbt.Receptor>
prm/pocket_docking_5.prm

>  <SCORE>
-13.9965

>  <SCORE.INTER>
-12.0326

>  <SCORE.INTER.CONST>
1

>  <SCORE.INTER.POLAR>
0

>  <SCORE.INTER.ROT>
7

>  <SCORE.INTER.SOLV>
15.1617

>  <SCORE.INTER.VDW>
-21.3423

>  <SCORE.INTER.norm>
-0.445652

>  <SCORE.INTRA>
-1.9639

>  <SCORE.INTRA.DIHEDRAL>
1.78896

>  <SCORE.INTRA.DIHEDRAL.0>
4.28829

>  <SCORE.INTRA.POLAR>
0

>  <SCORE.INTRA.POLAR.0>
0

>  <SCORE.INTRA.REPUL>
0

>  <SCORE.INTRA.REPUL.0>
0

>  <SCORE.INTRA.SOLV>
-0.627813

>  <SCORE.INTRA.SOLV.lig_0>
-48.6018

>  <SCORE.INTRA.VDW>
-2.54448

>  <SCORE.INTRA.VDW.0>
-2.1506

>  <SCORE.INTRA.norm>
-0.0727372

>  <SCORE.RESTR>
0

>  <SCORE.RESTR.CAVITY>
0

>  <SCORE.RESTR.norm>
0

>  <SCORE.SYSTEM>
0

>  <SCORE.SYSTEM.CONST>
0

>  <SCORE.SYSTEM.DIHEDRAL>
0

>  <SCORE.SYSTEM.SOLV>
0

>  <SCORE.SYSTEM.norm>
0

>  <SCORE.heavy>
27

>  <SCORE.norm>
-0.518389

>  <RMSD>
5.240

$$$$
ligand
 OpenBabel11021811483D
libRbt.so/2013.1/901 2013/11/27
 27 29  0  0  0  0  0  0  0  0999 V2000
   15.5874   -4.8136    8.9519 N   0  0  0  0  0  0  0  0  0  0  0  0
   15.8544   -3.9106    7.8307 C   0  0  2  0  0  0  0  0  0  0  0  0
   14.8079   -3.9113    6.7137 C   0  0  0  0  0  0  0  0  0  0  0  0
   14.6078   -4.9527    6.0899 O   0  0  0  0  0  0  0  0  0  0  0  0
   17.2431   -4.1472    7.2612 C   0  0  0  0  0  0  0  0  0  0  0  0
   17.3682   -5.5328    6.6514 C   0  0  0  0  0  0  0  0  0  0  0  0
   17.3826   -6.7951    7.9366 S   0  0  2  0  0  0  0  0  0  0  0  0
   19.0085   -6.4878    8.6587 C   0  0  0  0  0  0  0  0  0  0  0  0
   17.7627   -8.2633    6.9524 C   0  0  0  0  0  0  0  0  0  0  0  0
   16.5009   -8.8518    6.3486 C   0  0  1  0  0  0  0  0  0  0  0  0
   15.5661   -9.1620    7.3565 O   0  0  0  0  0  0  0  0  0  0  0  0
   15.7833   -7.8833    5.4291 C   0  0  1  0  0  0  0  0  0  0  0  0
   16.2308   -8.1051    4.1155 O   0  0  0  0  0  0  0  0  0  0  0  0
   14.3249   -8.2658    5.5798 C   0  0  1  0  0  0  0  0  0  0  0  0
   13.9836   -9.0676    4.4714 O   0  0  0  0  0  0  0  0  0  0  0  0
   14.2357   -9.0704    6.8782 C   0  0  2  0  0  0  0  0  0  0  0  0
   14.1562   -2.9102    6.4041 O   0  0  0  0  0  0  0  0  0  0  0  0
   11.8259   -9.2563   11.5233 N   0  0  0  0  0  0  0  0  0  0  0  0
   12.4954  -10.2687   10.8798 C   0  0  0  0  0  0  0  0  0  0  0  0
   13.0675  -10.0231    9.6509 N   0  0  0  0  0  0  0  0  0  0  0  0
   12.9832   -8.8046    9.0714 C   0  0  0  0  0  0  0  0  0  0  0  0
   12.3224   -7.7686    9.7153 C   0  0  0  0  0  0  0  0  0  0  0  0
   11.7297   -8.0043   10.9541 C   0  0  0  0  0  0  0  0  0  0  0  0
   11.0802   -7.0362   11.6011 N   0  0  0  0  0  0  0  0  0  0  0  0
   12.3974   -6.6688    8.9222 N   0  0  0  0  0  0  0  0  0  0  0  0
   13.1013   -6.9940    7.8134 C   0  0  0  0  0  0  0  0  0  0  0  0
   13.4778   -8.3121    7.8934 N   0  0  0  0  0  0  0  0  0  0  0  0
  2  1  1  1  0  0  0
  2  3  1  0  0  0  0
  2  5  1  0  0  0  0
  3  4  1  0  0  0  0
  3 17  1  0  0  0  0
  5  6  1  0  0  0  0
  7  6  1  6  0  0  0
  7  8  1  0  0  0  0
  7  9  1  0  0  0  0
 10  9  1  1  0  0  0
 10 11  1  0  0  0  0
 10 12  1  0  0  0  0
 11 16  1  0  0  0  0
 12 13  1  6  0  0  0
 12 14  1  0  0  0  0
 14 15  1  6  0  0  0
 14 16  1  0  0  0  0
 16 27  1  1  0  0  0
 18 19  2  0  0  0  0
 18 23  1  0  0  0  0
 19 20  1  0  0  0  0
 20 21  2  0  0  0  0
 21 22  1  0  0  0  0
 21 27  1  0  0  0  0
 22 23  2  0  0  0  0
 22 25  1  0  0  0  0
 23 24  1  0  0  0  0
 25 26  2  0  0  0  0
 26 27  1  0  0  0  0
M  END
>  <CHROM.1>
-61.86428840,64.66697232,-71.16299525,-70.80240995,-84.76182067,-57.03434578
-79.40476882,14.81577715,-7.18306985,7.76722314,0.24159183,0.76412348,0.29135851

>  <Name>
ligand

>  <RI>
0

>  <Rbt.Current_Directory>
/home/itssahil/PROJECTS/Mol_Feturizer/New_Systems/rnas/3GX5

>  <Rbt.Executable>
rbdock ($Id: //depot/dev/client3/rdock/2013.1/src/exe/rbdock.cxx#4 $)

>  <Rbt.Library>
libRbt.so (2013.1, Build901 2013/11/27)

>  <Rbt.Parameter_File>
/export/apps/rDock/src/rDock_2013.1_src/data/scripts/dock_solv.prm

>  <Rbt.Receptor>
prm/pocket_docking_5.prm

>  <SCORE>
-10.8873

>  <SCORE.INTER>
-11.6916

>  <SCORE.INTER.CONST>
1

>  <SCORE.INTER.POLAR>
0

>  <SCORE.INTER.ROT>
7

>  <SCORE.INTER.SOLV>
11.7421

>  <SCORE.INTER.VDW>
-19.9751

>  <SCORE.INTER.norm>
-0.433023

>  <SCORE.INTRA>
0.80428

>  <SCORE.INTRA.DIHEDRAL>
0.473273

>  <SCORE.INTRA.DIHEDRAL.0>
4.28829

>  <SCORE.INTRA.POLAR>
0

>  <SCORE.INTRA.POLAR.0>
0

>  <SCORE.INTRA.REPUL>
0

>  <SCORE.INTRA.REPUL.0>
0

>  <SCORE.INTRA.SOLV>
2.23465

>  <SCORE.INTRA.SOLV.lig_0>
-48.6018

>  <SCORE.INTRA.VDW>
-0.549682

>  <SCORE.INTRA.VDW.0>
-2.1506

>  <SCORE.INTRA.norm>
0.0297882

>  <SCORE.RESTR>
0

>  <SCORE.RESTR.CAVITY>
0

>  <SCORE.RESTR.norm>
0

>  <SCORE.SYSTEM>
0

>  <SCORE.SYSTEM.CONST>
0

>  <SCORE.SYSTEM.DIHEDRAL>
0

>  <SCORE.SYSTEM.SOLV>
0

>  <SCORE.SYSTEM.norm>
0

>  <SCORE.heavy>
27

>  <SCORE.norm>
-0.403235

>  <RMSD>
5.241

$$$$
ligand
 OpenBabel11021811483D
libRbt.so/2013.1/901 2013/11/27
 27 29  0  0  0  0  0  0  0  0999 V2000
   16.2357   -9.3578    9.2959 N   0  0  0  0  0  0  0  0  0  0  0  0
   15.6901   -9.4911   10.6481 C   0  0  2  0  0  0  0  0  0  0  0  0
   14.1920   -9.7930   10.7331 C   0  0  0  0  0  0  0  0  0  0  0  0
   13.8319  -10.8894   11.1597 O   0  0  0  0  0  0  0  0  0  0  0  0
   16.0396   -8.2802   11.4969 C   0  0  0  0  0  0  0  0  0  0  0  0
   15.6086   -6.9862   10.8282 C   0  0  0  0  0  0  0  0  0  0  0  0
   16.0233   -5.5681   11.8589 S   0  0  2  0  0  0  0  0  0  0  0  0
   14.6671   -5.6385   13.0484 C   0  0  0  0  0  0  0  0  0  0  0  0
   15.4359   -4.2164   10.8118 C   0  0  0  0  0  0  0  0  0  0  0  0
   16.4939   -3.8162    9.8001 C   0  0  1  0  0  0  0  0  0  0  0  0
   16.9990   -4.9511    9.1345 O   0  0  0  0  0  0  0  0  0  0  0  0
   15.9484   -2.9246    8.7020 C   0  0  1  0  0  0  0  0  0  0  0  0
   16.1431   -1.5854    9.0806 O   0  0  0  0  0  0  0  0  0  0  0  0
   16.8001   -3.2806    7.5003 C   0  0  1  0  0  0  0  0  0  0  0  0
   17.7887   -2.2830    7.3752 O   0  0  0  0  0  0  0  0  0  0  0  0
   17.4350   -4.6346    7.8243 C   0  0  2  0  0  0  0  0  0  0  0  0
   13.3243   -8.9867   10.3870 O   0  0  0  0  0  0  0  0  0  0  0  0
   13.2765   -6.2329    5.0730 N   0  0  0  0  0  0  0  0  0  0  0  0
   13.4064   -5.0827    5.8127 C   0  0  0  0  0  0  0  0  0  0  0  0
   14.5900   -4.8370    6.4734 N   0  0  0  0  0  0  0  0  0  0  0  0
   15.6233   -5.7059    6.4033 C   0  0  0  0  0  0  0  0  0  0  0  0
   15.5119   -6.8649    5.6490 C   0  0  0  0  0  0  0  0  0  0  0  0
   14.3175   -7.1324    4.9833 C   0  0  0  0  0  0  0  0  0  0  0  0
   14.1694   -8.2386    4.2539 N   0  0  0  0  0  0  0  0  0  0  0  0
   16.6857   -7.5408    5.7465 N   0  0  0  0  0  0  0  0  0  0  0  0
   17.5245   -6.8217    6.5275 C   0  0  0  0  0  0  0  0  0  0  0  0
   16.8840   -5.6781    6.9369 N   0  0  0  0  0  0  0  0  0  0  0  0
  2  1  1  6  0  0  0
  2  3  1  0  0  0  0
  2  5  1  0  0  0  0
  3  4  1  0  0  0  0
  3 17  1  0  0  0  0
  5  6  1  0  0  0  0
  7  6  1  6  0  0  0
  7  8  1  0  0  0  0
  7  9  1  0  0  0  0
 10  9  1  1  0  0  0
 10 11  1  0  0  0  0
 10 12  1  0  0  0  0
 11 16  1  0  0  0  0
 12 13  1  1  0  0  0
 12 14  1  0  0  0  0
 14 15  1  1  0  0  0
 14 16  1  0  0  0  0
 16 27  1  6  0  0  0
 18 19  2  0  0  0  0
 18 23  1  0  0  0  0
 19 20  1  0  0  0  0
 20 21  2  0  0  0  0
 21 22  1  0  0  0  0
 21 27  1  0  0  0  0
 22 23  2  0  0  0  0
 22 25  1  0  0  0  0
 23 24  1  0  0  0  0
 25 26  2  0  0  0  0
 26 27  1  0  0  0  0
M  END
>  <CHROM.1>
112.44440591,54.04491778,179.59745757,-79.27985764,-85.10538274,49.25222320
82.93172049,15.60210306,-6.13255564,8.67188425,2.15478453,1.23653349,1.77360026

>  <Name>
ligand

>  <RI>
0

>  <Rbt.Current_Directory>
/home/itssahil/PROJECTS/Mol_Feturizer/New_Systems/rnas/3GX5

>  <Rbt.Executable>
rbdock ($Id: //depot/dev/client3/rdock/2013.1/src/exe/rbdock.cxx#4 $)

>  <Rbt.Library>
libRbt.so (2013.1, Build901 2013/11/27)

>  <Rbt.Parameter_File>
/export/apps/rDock/src/rDock_2013.1_src/data/scripts/dock_solv.prm

>  <Rbt.Receptor>
prm/pocket_docking_3.prm

>  <SCORE>
-11.4289

>  <SCORE.INTER>
-11.2035

>  <SCORE.INTER.CONST>
1

>  <SCORE.INTER.POLAR>
0

>  <SCORE.INTER.ROT>
7

>  <SCORE.INTER.SOLV>
15.2194

>  <SCORE.INTER.VDW>
-20.8088

>  <SCORE.INTER.norm>
-0.414944

>  <SCORE.INTRA>
-0.227065

>  <SCORE.INTRA.DIHEDRAL>
0.666154

>  <SCORE.INTRA.DIHEDRAL.0>
4.28829

>  <SCORE.INTRA.POLAR>
0

>  <SCORE.INTRA.POLAR.0>
0

>  <SCORE.INTRA.REPUL>
0

>  <SCORE.INTRA.REPUL.0>
0

>  <SCORE.INTRA.SOLV>
-0.39723

>  <SCORE.INTRA.SOLV.lig_0>
-48.6018

>  <SCORE.INTRA.VDW>
-0.361527

>  <SCORE.INTRA.VDW.0>
-2.1506

>  <SCORE.INTRA.norm>
-0.00840982

>  <SCORE.RESTR>
0.00164407

>  <SCORE.RESTR.CAVITY>
0.00164407

>  <SCORE.RESTR.norm>
6.08915e-05

>  <SCORE.SYSTEM>
0

>  <SCORE.SYSTEM.CONST>
0

>  <SCORE.SYSTEM.DIHEDRAL>
0

>  <SCORE.SYSTEM.SOLV>
0

>  <SCORE.SYSTEM.norm>
0

>  <SCORE.heavy>
27

>  <SCORE.norm>
-0.423293

>  <RMSD>
5.248

$$$$
ligand
 OpenBabel11021811483D
libRbt.so/2013.1/901 2013/11/27
 27 29  0  0  0  0  0  0  0  0999 V2000
   13.9398   -9.4363   13.1022 N   0  0  0  0  0  0  0  0  0  0  0  0
   12.7365   -8.7854   12.5805 C   0  0  2  0  0  0  0  0  0  0  0  0
   11.7784   -9.6883   11.7996 C   0  0  0  0  0  0  0  0  0  0  0  0
   11.8430  -10.9055   11.9666 O   0  0  0  0  0  0  0  0  0  0  0  0
   13.0949   -7.5549   11.7642 C   0  0  0  0  0  0  0  0  0  0  0  0
   13.8324   -6.5244   12.6017 C   0  0  0  0  0  0  0  0  0  0  0  0
   15.0956   -5.6938   11.6219 S   0  0  2  0  0  0  0  0  0  0  0  0
   15.5726   -4.3854   12.7707 C   0  0  0  0  0  0  0  0  0  0  0  0
   14.0593   -4.7380   10.4901 C   0  0  0  0  0  0  0  0  0  0  0  0
   14.9099   -3.9672    9.4974 C   0  0  1  0  0  0  0  0  0  0  0  0
   15.9253   -4.7898    8.9698 O   0  0  0  0  0  0  0  0  0  0  0  0
   14.1210   -3.4922    8.2931 C   0  0  1  0  0  0  0  0  0  0  0  0
   13.6619   -2.1890    8.5498 O   0  0  0  0  0  0  0  0  0  0  0  0
   15.1430   -3.4994    7.1744 C   0  0  1  0  0  0  0  0  0  0  0  0
   15.5873   -2.1724    7.0020 O   0  0  0  0  0  0  0  0  0  0  0  0
   16.2859   -4.3946    7.6580 C   0  0  2  0  0  0  0  0  0  0  0  0
   10.9440   -9.2511   11.0026 O   0  0  0  0  0  0  0  0  0  0  0  0
   13.6454   -7.6203    4.4893 N   0  0  0  0  0  0  0  0  0  0  0  0
   13.2019   -6.4547    5.0654 C   0  0  0  0  0  0  0  0  0  0  0  0
   14.0530   -5.7390    5.8785 N   0  0  0  0  0  0  0  0  0  0  0  0
   15.3147   -6.1627    6.1153 C   0  0  0  0  0  0  0  0  0  0  0  0
   15.7814   -7.3304    5.5295 C   0  0  0  0  0  0  0  0  0  0  0  0
   14.9292   -8.0708    4.7129 C   0  0  0  0  0  0  0  0  0  0  0  0
   15.3385   -9.2016    4.1372 N   0  0  0  0  0  0  0  0  0  0  0  0
   17.0676   -7.5112    5.9259 N   0  0  0  0  0  0  0  0  0  0  0  0
   17.4126   -6.4774    6.7277 C   0  0  0  0  0  0  0  0  0  0  0  0
   16.3398   -5.6289    6.8496 N   0  0  0  0  0  0  0  0  0  0  0  0
  2  1  1  6  0  0  0
  2  3  1  0  0  0  0
  2  5  1  0  0  0  0
  3  4  1  0  0  0  0
  3 17  1  0  0  0  0
  5  6  1  0  0  0  0
  7  6  1  1  0  0  0
  7  8  1  0  0  0  0
  7  9  1  0  0  0  0
 10  9  1  1  0  0  0
 10 11  1  0  0  0  0
 10 12  1  0  0  0  0
 11 16  1  0  0  0  0
 12 13  1  1  0  0  0
 12 14  1  0  0  0  0
 14 15  1  1  0  0  0
 14 16  1  0  0  0  0
 16 27  1  6  0  0  0
 18 19  2  0  0  0  0
 18 23  1  0  0  0  0
 19 20  1  0  0  0  0
 20 21  2  0  0  0  0
 21 22  1  0  0  0  0
 21 27  1  0  0  0  0
 22 23  2  0  0  0  0
 22 25  1  0  0  0  0
 23 24  1  0  0  0  0
 25 26  2  0  0  0  0
 26 27  1  0  0  0  0
M  END
>  <CHROM.1>
20.35834452,-60.66898379,143.68307065,170.83935272,-177.83510424,45.49039836
92.19618455,14.50217310,-6.29784542,8.83082105,2.56665645,1.16873610,1.00778860

>  <Name>
ligand

>  <RI>
0

>  <Rbt.Current_Directory>
/home/itssahil/PROJECTS/Mol_Feturizer/New_Systems/rnas/3GX5

>  <Rbt.Executable>
rbdock ($Id: //depot/dev/client3/rdock/2013.1/src/exe/rbdock.cxx#4 $)

>  <Rbt.Library>
libRbt.so (2013.1, Build901 2013/11/27)

>  <Rbt.Parameter_File>
/export/apps/rDock/src/rDock_2013.1_src/data/scripts/dock_solv.prm

>  <Rbt.Receptor>
prm/pocket_docking_3.prm

>  <SCORE>
-8.07213

>  <SCORE.INTER>
-10.6117

>  <SCORE.INTER.CONST>
1

>  <SCORE.INTER.POLAR>
0

>  <SCORE.INTER.ROT>
7

>  <SCORE.INTER.SOLV>
12.2771

>  <SCORE.INTER.VDW>
-19.4335

>  <SCORE.INTER.norm>
-0.393025

>  <SCORE.INTRA>
2.49265

>  <SCORE.INTRA.DIHEDRAL>
3.82926

>  <SCORE.INTRA.DIHEDRAL.0>
4.28829

>  <SCORE.INTRA.POLAR>
0

>  <SCORE.INTRA.POLAR.0>
0

>  <SCORE.INTRA.REPUL>
0

>  <SCORE.INTRA.REPUL.0>
0

>  <SCORE.INTRA.SOLV>
-0.224327

>  <SCORE.INTRA.SOLV.lig_0>
-48.6018

>  <SCORE.INTRA.VDW>
0.690186

>  <SCORE.INTRA.VDW.0>
-2.1506

>  <SCORE.INTRA.norm>
0.0923205

>  <SCORE.RESTR>
0.0469028

>  <SCORE.RESTR.CAVITY>
0.0469028

>  <SCORE.RESTR.norm>
0.00173714

>  <SCORE.SYSTEM>
0

>  <SCORE.SYSTEM.CONST>
0

>  <SCORE.SYSTEM.DIHEDRAL>
0

>  <SCORE.SYSTEM.SOLV>
0

>  <SCORE.SYSTEM.norm>
0

>  <SCORE.heavy>
27

>  <SCORE.norm>
-0.298968

>  <RMSD>
5.265

$$$$
ligand
 OpenBabel11021811483D
libRbt.so/2013.1/901 2013/11/27
 27 29  0  0  0  0  0  0  0  0999 V2000
   11.5253   -9.4647    9.7441 N   0  0  0  0  0  0  0  0  0  0  0  0
   12.3281   -9.3061   10.9582 C   0  0  2  0  0  0  0  0  0  0  0  0
   12.4817  -10.5607   11.8215 C   0  0  0  0  0  0  0  0  0  0  0  0
   13.5476  -11.1744   11.7905 O   0  0  0  0  0  0  0  0  0  0  0  0
   11.8248   -8.1413   11.7942 C   0  0  0  0  0  0  0  0  0  0  0  0
   11.9573   -6.8227   11.0518 C   0  0  0  0  0  0  0  0  0  0  0  0
   13.6746   -6.5139   10.6039 S   0  0  2  0  0  0  0  0  0  0  0  0
   14.2433   -5.6799   12.1006 C   0  0  0  0  0  0  0  0  0  0  0  0
   13.4796   -5.0825    9.5169 C   0  0  0  0  0  0  0  0  0  0  0  0
   14.8295   -4.5660    9.0543 C   0  0  1  0  0  0  0  0  0  0  0  0
   15.6389   -5.6274    8.6023 O   0  0  0  0  0  0  0  0  0  0  0  0
   14.7230   -3.6203    7.8742 C   0  0  1  0  0  0  0  0  0  0  0  0
   14.6540   -2.3052    8.3649 O   0  0  0  0  0  0  0  0  0  0  0  0
   16.0146   -3.8521    7.1164 C   0  0  1  0  0  0  0  0  0  0  0  0
   16.8973   -2.8079    7.4605 O   0  0  0  0  0  0  0  0  0  0  0  0
   16.5512   -5.1986    7.6069 C   0  0  2  0  0  0  0  0  0  0  0  0
   11.5804  -10.9909   12.5464 O   0  0  0  0  0  0  0  0  0  0  0  0
   13.4358   -7.8324    4.3243 N   0  0  0  0  0  0  0  0  0  0  0  0
   13.0750   -6.8844    5.2508 C   0  0  0  0  0  0  0  0  0  0  0  0
   14.0488   -6.2998    6.0304 N   0  0  0  0  0  0  0  0  0  0  0  0
   15.3501   -6.6410    5.8964 C   0  0  0  0  0  0  0  0  0  0  0  0
   15.7314   -7.5865    4.9555 C   0  0  0  0  0  0  0  0  0  0  0  0
   14.7568   -8.1942    4.1667 C   0  0  0  0  0  0  0  0  0  0  0  0
   15.0827   -9.1120    3.2562 N   0  0  0  0  0  0  0  0  0  0  0  0
   17.0800   -7.7280    5.0287 N   0  0  0  0  0  0  0  0  0  0  0  0
   17.5431   -6.8829    5.9784 C   0  0  0  0  0  0  0  0  0  0  0  0
   16.4847   -6.1967    6.5209 N   0  0  0  0  0  0  0  0  0  0  0  0
  2  1  1  6  0  0  0
  2  3  1  0  0  0  0
  2  5  1  0  0  0  0
  3  4  1  0  0  0  0
  3 17  1  0  0  0  0
  5  6  1  0  0  0  0
  7  6  1  1  0  0  0
  7  8  1  0  0  0  0
  7  9  1  0  0  0  0
 10  9  1  6  0  0  0
 10 11  1  0  0  0  0
 10 12  1  0  0  0  0
 11 16  1  0  0  0  0
 12 13  1  1  0  0  0
 12 14  1  0  0  0  0
 14 15  1  1  0  0  0
 14 16  1  0  0  0  0
 16 27  1  6  0  0  0
 18 19  2  0  0  0  0
 18 23  1  0  0  0  0
 19 20  1  0  0  0  0
 20 21  2  0  0  0  0
 21 22  1  0  0  0  0
 21 27  1  0  0  0  0
 22 23  2  0  0  0  0
 22 25  1  0  0  0  0
 23 24  1  0  0  0  0
 25 26  2  0  0  0  0
 26 27  1  0  0  0  0
M  END
>  <CHROM.1>
104.00917777,-62.94791259,-58.76551224,-87.64210774,176.75787183,47.46174286
51.69221568,14.33884969,-6.81949652,8.34313120,2.91046783,1.09236043,0.78249193

>  <Name>
ligand

>  <RI>
0

>  <Rbt.Current_Directory>
/home/itssahil/PROJECTS/Mol_Feturizer/New_Systems/rnas/3GX5

>  <Rbt.Executable>
rbdock ($Id: //depot/dev/client3/rdock/2013.1/src/exe/rbdock.cxx#4 $)

>  <Rbt.Library>
libRbt.so (2013.1, Build901 2013/11/27)

>  <Rbt.Parameter_File>
/export/apps/rDock/src/rDock_2013.1_src/data/scripts/dock_solv.prm

>  <Rbt.Receptor>
prm/pocket_docking_7.prm

>  <SCORE>
-11.3868

>  <SCORE.INTER>
-11.2027

>  <SCORE.INTER.CONST>
1

>  <SCORE.INTER.POLAR>
0

>  <SCORE.INTER.ROT>
7

>  <SCORE.INTER.SOLV>
16.8014

>  <SCORE.INTER.VDW>
-21.3356

>  <SCORE.INTER.norm>
-0.414914

>  <SCORE.INTRA>
-0.184165

>  <SCORE.INTRA.DIHEDRAL>
0.789429

>  <SCORE.INTRA.DIHEDRAL.0>
4.28829

>  <SCORE.INTRA.POLAR>
0

>  <SCORE.INTRA.POLAR.0>
0

>  <SCORE.INTRA.REPUL>
0

>  <SCORE.INTRA.REPUL.0>
0

>  <SCORE.INTRA.SOLV>
0.148045

>  <SCORE.INTRA.SOLV.lig_0>
-48.6018

>  <SCORE.INTRA.VDW>
-0.652902

>  <SCORE.INTRA.VDW.0>
-2.1506

>  <SCORE.INTRA.norm>
-0.00682093

>  <SCORE.RESTR>
0

>  <SCORE.RESTR.CAVITY>
0

>  <SCORE.RESTR.norm>
0

>  <SCORE.SYSTEM>
0

>  <SCORE.SYSTEM.CONST>
0

>  <SCORE.SYSTEM.DIHEDRAL>
0

>  <SCORE.SYSTEM.SOLV>
0

>  <SCORE.SYSTEM.norm>
0

>  <SCORE.heavy>
27

>  <SCORE.norm>
-0.421735

>  <RMSD>
5.266

$$$$
ligand
 OpenBabel11021811483D
libRbt.so/2013.1/901 2013/11/27
 27 29  0  0  0  0  0  0  0  0999 V2000
   17.1894   -3.4877    7.4012 N   0  0  0  0  0  0  0  0  0  0  0  0
   16.8758   -3.7507    8.8070 C   0  0  2  0  0  0  0  0  0  0  0  0
   17.4946   -5.0192    9.3995 C   0  0  0  0  0  0  0  0  0  0  0  0
   17.5643   -6.0276    8.6982 O   0  0  0  0  0  0  0  0  0  0  0  0
   15.3748   -3.7290    9.0423 C   0  0  0  0  0  0  0  0  0  0  0  0
   14.6727   -4.8347    8.2728 C   0  0  0  0  0  0  0  0  0  0  0  0
   14.5055   -4.3932    6.5343 S   0  0  2  0  0  0  0  0  0  0  0  0
   13.2106   -3.1408    6.6526 C   0  0  0  0  0  0  0  0  0  0  0  0
   13.5228   -5.7867    5.9334 C   0  0  0  0  0  0  0  0  0  0  0  0
   14.3958   -7.0071    5.7069 C   0  0  1  0  0  0  0  0  0  0  0  0
   15.0777   -7.3562    6.8899 O   0  0  0  0  0  0  0  0  0  0  0  0
   13.5960   -8.2398    5.3338 C   0  0  1  0  0  0  0  0  0  0  0  0
   13.5325   -8.3194    3.9322 O   0  0  0  0  0  0  0  0  0  0  0  0
   14.4129   -9.3797    5.9079 C   0  0  1  0  0  0  0  0  0  0  0  0
   15.1579   -9.9381    4.8491 O   0  0  0  0  0  0  0  0  0  0  0  0
   15.3401   -8.7472    6.9479 C   0  0  2  0  0  0  0  0  0  0  0  0
   17.9239   -5.0798   10.5548 O   0  0  0  0  0  0  0  0  0  0  0  0
   12.1105   -7.9959   11.0005 N   0  0  0  0  0  0  0  0  0  0  0  0
   12.1255   -7.3289    9.7996 C   0  0  0  0  0  0  0  0  0  0  0  0
   13.0625   -7.6727    8.8501 N   0  0  0  0  0  0  0  0  0  0  0  0
   13.9626   -8.6549    9.0795 C   0  0  0  0  0  0  0  0  0  0  0  0
   13.9509   -9.3468   10.2819 C   0  0  0  0  0  0  0  0  0  0  0  0
   13.0159   -9.0037   11.2563 C   0  0  0  0  0  0  0  0  0  0  0  0
   12.9771   -9.6406   12.4269 N   0  0  0  0  0  0  0  0  0  0  0  0
   14.9437  -10.2724   10.2406 N   0  0  0  0  0  0  0  0  0  0  0  0
   15.5573  -10.1814    9.0381 C   0  0  0  0  0  0  0  0  0  0  0  0
   14.9568   -9.1886    8.3038 N   0  0  0  0  0  0  0  0  0  0  0  0
  2  1  1  6  0  0  0
  2  3  1  0  0  0  0
  2  5  1  0  0  0  0
  3  4  1  0  0  0  0
  3 17  1  0  0  0  0
  5  6  1  0  0  0  0
  7  6  1  1  0  0  0
  7  8  1  0  0  0  0
  7  9  1  0  0  0  0
 10  9  1  1  0  0  0
 10 11  1  0  0  0  0
 10 12  1  0  0  0  0
 11 16  1  0  0  0  0
 12 13  1  6  0  0  0
 12 14  1  0  0  0  0
 14 15  1  6  0  0  0
 14 16  1  0  0  0  0
 16 27  1  1  0  0  0
 18 19  2  0  0  0  0
 18 23  1  0  0  0  0
 19 20  1  0  0  0  0
 20 21  2  0  0  0  0
 21 22  1  0  0  0  0
 21 27  1  0  0  0  0
 22 23  2  0  0  0  0
 22 25  1  0  0  0  0
 23 24  1  0  0  0  0
 25 26  2  0  0  0  0
 26 27  1  0  0  0  0
M  END
>  <CHROM.1>
-38.13199433,63.45252773,-77.78039859,-73.09317623,-79.23494282,56.95544229
31.12884989,14.71032321,-6.99610590,8.05015253,-0.59224246,1.16713962,1.83777196

>  <Name>
ligand

>  <RI>
0

>  <Rbt.Current_Directory>
/home/itssahil/PROJECTS/Mol_Feturizer/New_Systems/rnas/3GX5

>  <Rbt.Executable>
rbdock ($Id: //depot/dev/client3/rdock/2013.1/src/exe/rbdock.cxx#4 $)

>  <Rbt.Library>
libRbt.so (2013.1, Build901 2013/11/27)

>  <Rbt.Parameter_File>
/export/apps/rDock/src/rDock_2013.1_src/data/scripts/dock_solv.prm

>  <Rbt.Receptor>
prm/pocket_docking_6.prm

>  <SCORE>
-13.4691

>  <SCORE.INTER>
-12.9516

>  <SCORE.INTER.CONST>
1

>  <SCORE.INTER.POLAR>
0

>  <SCORE.INTER.ROT>
7

>  <SCORE.INTER.SOLV>
10.505

>  <SCORE.INTER.VDW>
-20.4028

>  <SCORE.INTER.norm>
-0.47969

>  <SCORE.INTRA>
-0.517421

>  <SCORE.INTRA.DIHEDRAL>
0.741248

>  <SCORE.INTRA.DIHEDRAL.0>
4.28829

>  <SCORE.INTRA.POLAR>
0

>  <SCORE.INTRA.POLAR.0>
0

>  <SCORE.INTRA.REPUL>
0

>  <SCORE.INTRA.REPUL.0>
0

>  <SCORE.INTRA.SOLV>
1.41878

>  <SCORE.INTRA.SOLV.lig_0>
-48.6018

>  <SCORE.INTRA.VDW>
-1.59744

>  <SCORE.INTRA.VDW.0>
-2.1506

>  <SCORE.INTRA.norm>
-0.0191637

>  <SCORE.RESTR>
0

>  <SCORE.RESTR.CAVITY>
0

>  <SCORE.RESTR.norm>
0

>  <SCORE.SYSTEM>
0

>  <SCORE.SYSTEM.CONST>
0

>  <SCORE.SYSTEM.DIHEDRAL>
0

>  <SCORE.SYSTEM.SOLV>
0

>  <SCORE.SYSTEM.norm>
0

>  <SCORE.heavy>
27

>  <SCORE.norm>
-0.498854

>  <RMSD>
5.275

$$$$
ligand
 OpenBabel11021811483D
libRbt.so/2013.1/901 2013/11/27
 27 29  0  0  0  0  0  0  0  0999 V2000
   16.6189   -6.8099   11.5993 N   0  0  0  0  0  0  0  0  0  0  0  0
   16.3051   -5.4049   11.3325 C   0  0  2  0  0  0  0  0  0  0  0  0
   14.9671   -4.9068   11.8843 C   0  0  0  0  0  0  0  0  0  0  0  0
   14.8326   -3.7065   12.1182 O   0  0  0  0  0  0  0  0  0  0  0  0
   16.4196   -5.0946    9.8494 C   0  0  0  0  0  0  0  0  0  0  0  0
   16.5306   -3.6006    9.5982 C   0  0  0  0  0  0  0  0  0  0  0  0
   16.6879   -3.2613    7.8360 S   0  0  2  0  0  0  0  0  0  0  0  0
   17.4311   -1.6173    7.8989 C   0  0  0  0  0  0  0  0  0  0  0  0
   14.9847   -2.8068    7.4345 C   0  0  0  0  0  0  0  0  0  0  0  0
   14.2222   -3.9975    6.8833 C   0  0  1  0  0  0  0  0  0  0  0  0
   14.9785   -4.6564    5.8933 O   0  0  0  0  0  0  0  0  0  0  0  0
   13.9430   -5.0534    7.9347 C   0  0  1  0  0  0  0  0  0  0  0  0
   12.6770   -4.8016    8.4905 O   0  0  0  0  0  0  0  0  0  0  0  0
   13.9444   -6.3477    7.1467 C   0  0  1  0  0  0  0  0  0  0  0  0
   12.5993   -6.6944    6.9049 O   0  0  0  0  0  0  0  0  0  0  0  0
   14.6679   -6.0374    5.8345 C   0  0  2  0  0  0  0  0  0  0  0  0
   14.0141   -5.6571   12.1118 O   0  0  0  0  0  0  0  0  0  0  0  0
   17.3116  -10.0699    3.7930 N   0  0  0  0  0  0  0  0  0  0  0  0
   16.0139   -9.6975    3.5392 C   0  0  0  0  0  0  0  0  0  0  0  0
   15.4911   -8.5970    4.1820 N   0  0  0  0  0  0  0  0  0  0  0  0
   16.2334   -7.8782    5.0536 C   0  0  0  0  0  0  0  0  0  0  0  0
   17.5497   -8.2337    5.3097 C   0  0  0  0  0  0  0  0  0  0  0  0
   18.0896   -9.3505    4.6751 C   0  0  0  0  0  0  0  0  0  0  0  0
   19.3484   -9.7280    4.9000 N   0  0  0  0  0  0  0  0  0  0  0  0
   18.0552   -7.3466    6.2050 N   0  0  0  0  0  0  0  0  0  0  0  0
   17.0910   -6.4431    6.4958 C   0  0  0  0  0  0  0  0  0  0  0  0
   15.9579   -6.7541    5.7852 N   0  0  0  0  0  0  0  0  0  0  0  0
  2  1  1  6  0  0  0
  2  3  1  0  0  0  0
  2  5  1  0  0  0  0
  3  4  1  0  0  0  0
  3 17  1  0  0  0  0
  5  6  1  0  0  0  0
  7  6  1  1  0  0  0
  7  8  1  0  0  0  0
  7  9  1  0  0  0  0
 10  9  1  1  0  0  0
 10 11  1  0  0  0  0
 10 12  1  0  0  0  0
 11 16  1  0  0  0  0
 12 13  1  6  0  0  0
 12 14  1  0  0  0  0
 14 15  1  6  0  0  0
 14 16  1  0  0  0  0
 16 27  1  1  0  0  0
 18 19  2  0  0  0  0
 18 23  1  0  0  0  0
 19 20  1  0  0  0  0
 20 21  2  0  0  0  0
 21 22  1  0  0  0  0
 21 27  1  0  0  0  0
 22 23  2  0  0  0  0
 22 25  1  0  0  0  0
 23 24  1  0  0  0  0
 25 26  2  0  0  0  0
 26 27  1  0  0  0  0
M  END
>  <CHROM.1>
155.07383856,-162.17605813,179.21763991,-158.75668192,-96.16197724,-47.31497360
-142.20812015,15.79664170,-5.88444965,7.52978088,-1.96184575,0.90054850,-1.93985524

>  <Name>
ligand

>  <RI>
0

>  <Rbt.Current_Directory>
/home/itssahil/PROJECTS/Mol_Feturizer/New_Systems/rnas/3GX5

>  <Rbt.Executable>
rbdock ($Id: //depot/dev/client3/rdock/2013.1/src/exe/rbdock.cxx#4 $)

>  <Rbt.Library>
libRbt.so (2013.1, Build901 2013/11/27)

>  <Rbt.Parameter_File>
/export/apps/rDock/src/rDock_2013.1_src/data/scripts/dock_solv.prm

>  <Rbt.Receptor>
prm/pocket_docking_5.prm

>  <SCORE>
-16.6685

>  <SCORE.INTER>
-16.7951

>  <SCORE.INTER.CONST>
1

>  <SCORE.INTER.POLAR>
0

>  <SCORE.INTER.ROT>
7

>  <SCORE.INTER.SOLV>
12.1293

>  <SCORE.INTER.VDW>
-23.5065

>  <SCORE.INTER.norm>
-0.622042

>  <SCORE.INTRA>
0.126631

>  <SCORE.INTRA.DIHEDRAL>
4.69723

>  <SCORE.INTRA.DIHEDRAL.0>
4.28829

>  <SCORE.INTRA.POLAR>
0

>  <SCORE.INTRA.POLAR.0>
0

>  <SCORE.INTRA.REPUL>
0

>  <SCORE.INTRA.REPUL.0>
0

>  <SCORE.INTRA.SOLV>
-0.872249

>  <SCORE.INTRA.SOLV.lig_0>
-48.6018

>  <SCORE.INTRA.VDW>
-1.78586

>  <SCORE.INTRA.VDW.0>
-2.1506

>  <SCORE.INTRA.norm>
0.00469005

>  <SCORE.RESTR>
2.98898e-05

>  <SCORE.RESTR.CAVITY>
2.98898e-05

>  <SCORE.RESTR.norm>
1.10703e-06

>  <SCORE.SYSTEM>
0

>  <SCORE.SYSTEM.CONST>
0

>  <SCORE.SYSTEM.DIHEDRAL>
0

>  <SCORE.SYSTEM.SOLV>
0

>  <SCORE.SYSTEM.norm>
0

>  <SCORE.heavy>
27

>  <SCORE.norm>
-0.617351

>  <RMSD>
5.279

$$$$
ligand
 OpenBabel11021811483D
libRbt.so/2013.1/901 2013/11/27
 27 29  0  0  0  0  0  0  0  0999 V2000
   16.3772   -4.8593    9.7012 N   0  0  0  0  0  0  0  0  0  0  0  0
   15.2515   -4.4975   10.5648 C   0  0  2  0  0  0  0  0  0  0  0  0
   14.8109   -5.5688   11.5654 C   0  0  0  0  0  0  0  0  0  0  0  0
   14.4718   -5.2202   12.6955 O   0  0  0  0  0  0  0  0  0  0  0  0
   14.0681   -4.0165    9.7421 C   0  0  0  0  0  0  0  0  0  0  0  0
   13.5871   -5.0864    8.7769 C   0  0  0  0  0  0  0  0  0  0  0  0
   14.0620   -4.6798    7.0875 S   0  0  2  0  0  0  0  0  0  0  0  0
   12.8868   -3.3534    6.7426 C   0  0  0  0  0  0  0  0  0  0  0  0
   13.2653   -6.0300    6.1870 C   0  0  0  0  0  0  0  0  0  0  0  0
   14.2585   -7.1349    5.8779 C   0  0  1  0  0  0  0  0  0  0  0  0
   15.0499   -7.4216    7.0083 O   0  0  0  0  0  0  0  0  0  0  0  0
   13.5859   -8.4466    5.5239 C   0  0  1  0  0  0  0  0  0  0  0  0
   13.4435   -8.5088    4.1272 O   0  0  0  0  0  0  0  0  0  0  0  0
   14.5647   -9.4920    6.0190 C   0  0  1  0  0  0  0  0  0  0  0  0
   15.3013   -9.9403    4.9034 O   0  0  0  0  0  0  0  0  0  0  0  0
   15.4758   -8.7728    7.0160 C   0  0  2  0  0  0  0  0  0  0  0  0
   14.7850   -6.7719   11.2923 O   0  0  0  0  0  0  0  0  0  0  0  0
   11.8908   -9.7387   10.7083 N   0  0  0  0  0  0  0  0  0  0  0  0
   11.6860   -9.2426    9.4437 C   0  0  0  0  0  0  0  0  0  0  0  0
   12.7670   -9.0544    8.6109 N   0  0  0  0  0  0  0  0  0  0  0  0
   14.0220   -9.3520    9.0161 C   0  0  0  0  0  0  0  0  0  0  0  0
   14.2430   -9.8668   10.2852 C   0  0  0  0  0  0  0  0  0  0  0  0
   13.1609  -10.0531   11.1429 C   0  0  0  0  0  0  0  0  0  0  0  0
   13.3333  -10.5393   12.3723 N   0  0  0  0  0  0  0  0  0  0  0  0
   15.5771  -10.0803   10.4226 N   0  0  0  0  0  0  0  0  0  0  0  0
   16.1835   -9.7264    9.2660 C   0  0  0  0  0  0  0  0  0  0  0  0
   15.2330   -9.2797    8.3814 N   0  0  0  0  0  0  0  0  0  0  0  0
  2  1  1  6  0  0  0
  2  3  1  0  0  0  0
  2  5  1  0  0  0  0
  3  4  1  0  0  0  0
  3 17  1  0  0  0  0
  5  6  1  0  0  0  0
  7  6  1  1  0  0  0
  7  8  1  0  0  0  0
  7  9  1  0  0  0  0
 10  9  1  1  0  0  0
 10 11  1  0  0  0  0
 10 12  1  0  0  0  0
 11 16  1  0  0  0  0
 12 13  1  6  0  0  0
 12 14  1  0  0  0  0
 14 15  1  6  0  0  0
 14 16  1  0  0  0  0
 16 27  1  1  0  0  0
 18 19  2  0  0  0  0
 18 23  1  0  0  0  0
 19 20  1  0  0  0  0
 20 21  2  0  0  0  0
 21 22  1  0  0  0  0
 21 27  1  0  0  0  0
 22 23  2  0  0  0  0
 22 25  1  0  0  0  0
 23 24  1  0  0  0  0
 25 26  2  0  0  0  0
 26 27  1  0  0  0  0
M  END
>  <CHROM.1>
141.12512030,59.80200213,-106.28808484,-74.17838394,-98.39917374,44.77265461
60.49630088,14.19863873,-7.46487158,8.56536636,-1.18791727,-1.52929904,-1.20729508

>  <Name>
ligand

>  <RI>
0

>  <Rbt.Current_Directory>
/home/itssahil/PROJECTS/Mol_Feturizer/New_Systems/rnas/3GX5

>  <Rbt.Executable>
rbdock ($Id: //depot/dev/client3/rdock/2013.1/src/exe/rbdock.cxx#4 $)

>  <Rbt.Library>
libRbt.so (2013.1, Build901 2013/11/27)

>  <Rbt.Parameter_File>
/export/apps/rDock/src/rDock_2013.1_src/data/scripts/dock_solv.prm

>  <Rbt.Receptor>
prm/pocket_docking_3.prm

>  <SCORE>
-12.4973

>  <SCORE.INTER>
-14.251

>  <SCORE.INTER.CONST>
1

>  <SCORE.INTER.POLAR>
0

>  <SCORE.INTER.ROT>
7

>  <SCORE.INTER.SOLV>
10.104

>  <SCORE.INTER.VDW>
-21.1353

>  <SCORE.INTER.norm>
-0.527814

>  <SCORE.INTRA>
1.75369

>  <SCORE.INTRA.DIHEDRAL>
6.94332

>  <SCORE.INTRA.DIHEDRAL.0>
4.28829

>  <SCORE.INTRA.POLAR>
0

>  <SCORE.INTRA.POLAR.0>
0

>  <SCORE.INTRA.REPUL>
0

>  <SCORE.INTRA.REPUL.0>
0

>  <SCORE.INTRA.SOLV>
0.604065

>  <SCORE.INTRA.SOLV.lig_0>
-48.6018

>  <SCORE.INTRA.VDW>
-2.02

>  <SCORE.INTRA.VDW.0>
-2.1506

>  <SCORE.INTRA.norm>
0.0649515

>  <SCORE.RESTR>
0

>  <SCORE.RESTR.CAVITY>
0

>  <SCORE.RESTR.norm>
0

>  <SCORE.SYSTEM>
0

>  <SCORE.SYSTEM.CONST>
0

>  <SCORE.SYSTEM.DIHEDRAL>
0

>  <SCORE.SYSTEM.SOLV>
0

>  <SCORE.SYSTEM.norm>
0

>  <SCORE.heavy>
27

>  <SCORE.norm>
-0.462863

>  <RMSD>
5.281

$$$$
ligand
 OpenBabel11021811483D
libRbt.so/2013.1/901 2013/11/27
 27 29  0  0  0  0  0  0  0  0999 V2000
   16.2379   -4.0057    8.7253 N   0  0  0  0  0  0  0  0  0  0  0  0
   15.5872   -4.2766   10.0086 C   0  0  2  0  0  0  0  0  0  0  0  0
   16.0164   -5.5666   10.7118 C   0  0  0  0  0  0  0  0  0  0  0  0
   16.5876   -5.4871   11.7986 O   0  0  0  0  0  0  0  0  0  0  0  0
   14.0747   -4.2201    9.8736 C   0  0  0  0  0  0  0  0  0  0  0  0
   13.5652   -5.2390    8.8688 C   0  0  0  0  0  0  0  0  0  0  0  0
   13.8070   -4.6478    7.1844 S   0  0  2  0  0  0  0  0  0  0  0  0
   12.4543   -3.4575    7.0732 C   0  0  0  0  0  0  0  0  0  0  0  0
   13.0833   -6.0147    6.2482 C   0  0  0  0  0  0  0  0  0  0  0  0
   14.1306   -7.0646    5.9258 C   0  0  1  0  0  0  0  0  0  0  0  0
   14.9199   -7.3430    7.0597 O   0  0  0  0  0  0  0  0  0  0  0  0
   13.5241   -8.3965    5.5303 C   0  0  1  0  0  0  0  0  0  0  0  0
   13.4026   -8.4300    4.1306 O   0  0  0  0  0  0  0  0  0  0  0  0
   14.5439   -9.4079    6.0131 C   0  0  1  0  0  0  0  0  0  0  0  0
   15.3147   -9.7935    4.8972 O   0  0  0  0  0  0  0  0  0  0  0  0
   15.4078   -8.6729    7.0401 C   0  0  2  0  0  0  0  0  0  0  0  0
   15.8205   -6.6878   10.2350 O   0  0  0  0  0  0  0  0  0  0  0  0
   11.8489   -9.7034   10.7401 N   0  0  0  0  0  0  0  0  0  0  0  0
   11.6389   -9.1574    9.4972 C   0  0  0  0  0  0  0  0  0  0  0  0
   12.7134   -8.9599    8.6581 N   0  0  0  0  0  0  0  0  0  0  0  0
   13.9669   -9.2966    9.0361 C   0  0  0  0  0  0  0  0  0  0  0  0
   14.1929   -9.8618   10.2828 C   0  0  0  0  0  0  0  0  0  0  0  0
   13.1176  -10.0583   11.1468 C   0  0  0  0  0  0  0  0  0  0  0  0
   13.2951  -10.5925   12.3554 N   0  0  0  0  0  0  0  0  0  0  0  0
   15.5240  -10.1061   10.3953 N   0  0  0  0  0  0  0  0  0  0  0  0
   16.1234   -9.7220    9.2447 C   0  0  0  0  0  0  0  0  0  0  0  0
   15.1715   -9.2246    8.3891 N   0  0  0  0  0  0  0  0  0  0  0  0
  2  1  1  6  0  0  0
  2  3  1  0  0  0  0
  2  5  1  0  0  0  0
  3  4  1  0  0  0  0
  3 17  1  0  0  0  0
  5  6  1  0  0  0  0
  7  6  1  1  0  0  0
  7  8  1  0  0  0  0
  7  9  1  0  0  0  0
 10  9  1  1  0  0  0
 10 11  1  0  0  0  0
 10 12  1  0  0  0  0
 11 16  1  0  0  0  0
 12 13  1  6  0  0  0
 12 14  1  0  0  0  0
 14 15  1  6  0  0  0
 14 16  1  0  0  0  0
 16 27  1  1  0  0  0
 18 19  2  0  0  0  0
 18 23  1  0  0  0  0
 19 20  1  0  0  0  0
 20 21  2  0  0  0  0
 21 22  1  0  0  0  0
 21 27  1  0  0  0  0
 22 23  2  0  0  0  0
 22 25  1  0  0  0  0
 23 24  1  0  0  0  0
 25 26  2  0  0  0  0
 26 27  1  0  0  0  0
M  END
>  <CHROM.1>
116.06585124,59.70262513,-78.84782106,-76.73228884,-89.94698845,45.09913658
56.38575642,14.29388298,-7.41705357,8.44394234,-1.24824113,1.37017472,2.42210386

>  <Name>
ligand

>  <RI>
0

>  <Rbt.Current_Directory>
/home/itssahil/PROJECTS/Mol_Feturizer/New_Systems/rnas/3GX5

>  <Rbt.Executable>
rbdock ($Id: //depot/dev/client3/rdock/2013.1/src/exe/rbdock.cxx#4 $)

>  <Rbt.Library>
libRbt.so (2013.1, Build901 2013/11/27)

>  <Rbt.Parameter_File>
/export/apps/rDock/src/rDock_2013.1_src/data/scripts/dock_solv.prm

>  <Rbt.Receptor>
prm/pocket_docking_3.prm

>  <SCORE>
-13.3103

>  <SCORE.INTER>
-13.2398

>  <SCORE.INTER.CONST>
1

>  <SCORE.INTER.POLAR>
0

>  <SCORE.INTER.ROT>
7

>  <SCORE.INTER.SOLV>
10.4041

>  <SCORE.INTER.VDW>
-20.5612

>  <SCORE.INTER.norm>
-0.490362

>  <SCORE.INTRA>
-0.0705304

>  <SCORE.INTRA.DIHEDRAL>
2.49578

>  <SCORE.INTRA.DIHEDRAL.0>
4.28829

>  <SCORE.INTRA.POLAR>
0

>  <SCORE.INTRA.POLAR.0>
0

>  <SCORE.INTRA.REPUL>
0

>  <SCORE.INTRA.REPUL.0>
0

>  <SCORE.INTRA.SOLV>
1.65831

>  <SCORE.INTRA.SOLV.lig_0>
-48.6018

>  <SCORE.INTRA.VDW>
-2.14757

>  <SCORE.INTRA.VDW.0>
-2.1506

>  <SCORE.INTRA.norm>
-0.00261224

>  <SCORE.RESTR>
0

>  <SCORE.RESTR.CAVITY>
0

>  <SCORE.RESTR.norm>
0

>  <SCORE.SYSTEM>
0

>  <SCORE.SYSTEM.CONST>
0

>  <SCORE.SYSTEM.DIHEDRAL>
0

>  <SCORE.SYSTEM.SOLV>
0

>  <SCORE.SYSTEM.norm>
0

>  <SCORE.heavy>
27

>  <SCORE.norm>
-0.492974

>  <RMSD>
5.283

$$$$
ligand
 OpenBabel11021811483D
libRbt.so/2013.1/901 2013/11/27
 27 29  0  0  0  0  0  0  0  0999 V2000
   15.2558   -9.0729   14.0102 N   0  0  0  0  0  0  0  0  0  0  0  0
   14.9985   -7.7933   14.6738 C   0  0  2  0  0  0  0  0  0  0  0  0
   14.7252   -7.8683   16.1779 C   0  0  0  0  0  0  0  0  0  0  0  0
   14.7451   -6.8291   16.8362 O   0  0  0  0  0  0  0  0  0  0  0  0
   13.8921   -7.0279   13.9677 C   0  0  0  0  0  0  0  0  0  0  0  0
   14.2849   -6.6619   12.5467 C   0  0  0  0  0  0  0  0  0  0  0  0
   12.9249   -5.8348   11.7031 S   0  0  2  0  0  0  0  0  0  0  0  0
   11.8869   -7.2591   11.3119 C   0  0  0  0  0  0  0  0  0  0  0  0
   13.6687   -5.5491   10.0802 C   0  0  0  0  0  0  0  0  0  0  0  0
   14.5971   -4.3491   10.1138 C   0  0  1  0  0  0  0  0  0  0  0  0
   15.7763   -4.6534   10.8231 O   0  0  0  0  0  0  0  0  0  0  0  0
   15.0636   -3.9293    8.7338 C   0  0  1  0  0  0  0  0  0  0  0  0
   14.1892   -2.9401    8.2522 O   0  0  0  0  0  0  0  0  0  0  0  0
   16.4453   -3.3600    8.9845 C   0  0  1  0  0  0  0  0  0  0  0  0
   16.3222   -1.9558    9.0169 O   0  0  0  0  0  0  0  0  0  0  0  0
   16.8773   -3.8974   10.3506 C   0  0  2  0  0  0  0  0  0  0  0  0
   14.4901   -8.9278   16.7652 O   0  0  0  0  0  0  0  0  0  0  0  0
   19.3763   -7.1467    7.0925 N   0  0  0  0  0  0  0  0  0  0  0  0
   18.2887   -6.3525    6.8211 C   0  0  0  0  0  0  0  0  0  0  0  0
   17.7676   -5.5599    7.8200 N   0  0  0  0  0  0  0  0  0  0  0  0
   18.3097   -5.5491    9.0585 C   0  0  0  0  0  0  0  0  0  0  0  0
   19.4166   -6.3351    9.3437 C   0  0  0  0  0  0  0  0  0  0  0  0
   19.9488   -7.1500    8.3467 C   0  0  0  0  0  0  0  0  0  0  0  0
   21.0078   -7.9245    8.5838 N   0  0  0  0  0  0  0  0  0  0  0  0
   19.7540   -6.1254   10.6424 N   0  0  0  0  0  0  0  0  0  0  0  0
   18.8948   -5.2184   11.1616 C   0  0  0  0  0  0  0  0  0  0  0  0
   17.9977   -4.8456   10.1910 N   0  0  0  0  0  0  0  0  0  0  0  0
  2  1  1  6  0  0  0
  2  3  1  0  0  0  0
  2  5  1  0  0  0  0
  3  4  1  0  0  0  0
  3 17  1  0  0  0  0
  5  6  1  0  0  0  0
  7  6  1  1  0  0  0
  7  8  1  0  0  0  0
  7  9  1  0  0  0  0
 10  9  1  6  0  0  0
 10 11  1  0  0  0  0
 10 12  1  0  0  0  0
 11 16  1  0  0  0  0
 12 13  1  1  0  0  0
 12 14  1  0  0  0  0
 14 15  1  1  0  0  0
 14 16  1  0  0  0  0
 16 27  1  6  0  0  0
 18 19  2  0  0  0  0
 18 23  1  0  0  0  0
 19 20  1  0  0  0  0
 20 21  2  0  0  0  0
 21 22  1  0  0  0  0
 21 27  1  0  0  0  0
 22 23  2  0  0  0  0
 22 25  1  0  0  0  0
 23 24  1  0  0  0  0
 25 26  2  0  0  0  0
 26 27  1  0  0  0  0
M  END
>  <CHROM.1>
166.83347903,-63.28955988,176.93594759,-77.63394546,-79.06522641,72.19274489
90.82435439,16.07897514,-5.90844033,10.97029595,-2.19704664,0.40090111,-0.97490489

>  <Name>
ligand

>  <RI>
0

>  <Rbt.Current_Directory>
/home/itssahil/PROJECTS/Mol_Feturizer/New_Systems/rnas/3GX5

>  <Rbt.Executable>
rbdock ($Id: //depot/dev/client3/rdock/2013.1/src/exe/rbdock.cxx#4 $)

>  <Rbt.Library>
libRbt.so (2013.1, Build901 2013/11/27)

>  <Rbt.Parameter_File>
/export/apps/rDock/src/rDock_2013.1_src/data/scripts/dock_solv.prm

>  <Rbt.Receptor>
prm/pocket_docking_7.prm

>  <SCORE>
-13.5593

>  <SCORE.INTER>
-13.5042

>  <SCORE.INTER.CONST>
1

>  <SCORE.INTER.POLAR>
0

>  <SCORE.INTER.ROT>
7

>  <SCORE.INTER.SOLV>
10.19

>  <SCORE.INTER.VDW>
-20.6662

>  <SCORE.INTER.norm>
-0.500157

>  <SCORE.INTRA>
-0.0550946

>  <SCORE.INTRA.DIHEDRAL>
0.224794

>  <SCORE.INTRA.DIHEDRAL.0>
4.28829

>  <SCORE.INTRA.POLAR>
0

>  <SCORE.INTRA.POLAR.0>
0

>  <SCORE.INTRA.REPUL>
0

>  <SCORE.INTRA.REPUL.0>
0

>  <SCORE.INTRA.SOLV>
-0.471207

>  <SCORE.INTRA.SOLV.lig_0>
-48.6018

>  <SCORE.INTRA.VDW>
0.0681116

>  <SCORE.INTRA.VDW.0>
-2.1506

>  <SCORE.INTRA.norm>
-0.00204054

>  <SCORE.RESTR>
0

>  <SCORE.RESTR.CAVITY>
0

>  <SCORE.RESTR.norm>
0

>  <SCORE.SYSTEM>
0

>  <SCORE.SYSTEM.CONST>
0

>  <SCORE.SYSTEM.DIHEDRAL>
0

>  <SCORE.SYSTEM.SOLV>
0

>  <SCORE.SYSTEM.norm>
0

>  <SCORE.heavy>
27

>  <SCORE.norm>
-0.502197

>  <RMSD>
5.285

$$$$
ligand
 OpenBabel11021811483D
libRbt.so/2013.1/901 2013/11/27
 27 29  0  0  0  0  0  0  0  0999 V2000
   16.0242   -5.5186   10.8801 N   0  0  0  0  0  0  0  0  0  0  0  0
   14.5982   -5.2079   10.7629 C   0  0  2  0  0  0  0  0  0  0  0  0
   13.6607   -6.0548   11.6269 C   0  0  0  0  0  0  0  0  0  0  0  0
   12.5427   -5.6158   11.8936 O   0  0  0  0  0  0  0  0  0  0  0  0
   14.1541   -5.2338    9.3100 C   0  0  0  0  0  0  0  0  0  0  0  0
   15.2415   -4.7163    8.3842 C   0  0  0  0  0  0  0  0  0  0  0  0
   14.5637   -4.3271    6.7611 S   0  0  2  0  0  0  0  0  0  0  0  0
   13.3830   -3.0392    7.2156 C   0  0  0  0  0  0  0  0  0  0  0  0
   13.4256   -5.7140    6.5379 C   0  0  0  0  0  0  0  0  0  0  0  0
   14.1749   -6.9687    6.1286 C   0  0  1  0  0  0  0  0  0  0  0  0
   14.9375   -7.4649    7.2048 O   0  0  0  0  0  0  0  0  0  0  0  0
   13.2490   -8.1057    5.7434 C   0  0  1  0  0  0  0  0  0  0  0  0
   13.0455   -8.0601    4.3536 O   0  0  0  0  0  0  0  0  0  0  0  0
   14.0254   -9.3451    6.1400 C   0  0  1  0  0  0  0  0  0  0  0  0
   14.6197   -9.8614    4.9702 O   0  0  0  0  0  0  0  0  0  0  0  0
   15.0946   -8.8707    7.1265 C   0  0  2  0  0  0  0  0  0  0  0  0
   13.9769   -7.1600   12.0754 O   0  0  0  0  0  0  0  0  0  0  0  0
   11.8233   -8.7841   11.2142 N   0  0  0  0  0  0  0  0  0  0  0  0
   11.7073   -8.1026   10.0271 C   0  0  0  0  0  0  0  0  0  0  0  0
   12.6810   -8.2558    9.0647 N   0  0  0  0  0  0  0  0  0  0  0  0
   13.7441   -9.0658    9.2683 C   0  0  0  0  0  0  0  0  0  0  0  0
   13.8678   -9.7712   10.4564 C   0  0  0  0  0  0  0  0  0  0  0  0
   12.8964   -9.6188   11.4436 C   0  0  0  0  0  0  0  0  0  0  0  0
   12.9834  -10.2745   12.6012 N   0  0  0  0  0  0  0  0  0  0  0  0
   15.0092  -10.5039   10.3899 N   0  0  0  0  0  0  0  0  0  0  0  0
   15.5848  -10.2823    9.1857 C   0  0  0  0  0  0  0  0  0  0  0  0
   14.8096   -9.3988    8.4755 N   0  0  0  0  0  0  0  0  0  0  0  0
  2  1  1  6  0  0  0
  2  3  1  0  0  0  0
  2  5  1  0  0  0  0
  3  4  1  0  0  0  0
  3 17  1  0  0  0  0
  5  6  1  0  0  0  0
  7  6  1  1  0  0  0
  7  8  1  0  0  0  0
  7  9  1  0  0  0  0
 10  9  1  1  0  0  0
 10 11  1  0  0  0  0
 10 12  1  0  0  0  0
 11 16  1  0  0  0  0
 12 13  1  6  0  0  0
 12 14  1  0  0  0  0
 14 15  1  6  0  0  0
 14 16  1  0  0  0  0
 16 27  1  1  0  0  0
 18 19  2  0  0  0  0
 18 23  1  0  0  0  0
 19 20  1  0  0  0  0
 20 21  2  0  0  0  0
 21 22  1  0  0  0  0
 21 27  1  0  0  0  0
 22 23  2  0  0  0  0
 22 25  1  0  0  0  0
 23 24  1  0  0  0  0
 25 26  2  0  0  0  0
 26 27  1  0  0  0  0
M  END
>  <CHROM.1>
158.44673686,-35.43140754,-164.38645430,61.48238431,-78.28962229,70.59268097
46.97704417,13.95203085,-7.40290127,8.71585317,3.13547617,-1.45610075,-2.74712123

>  <Name>
ligand

>  <RI>
0

>  <Rbt.Current_Directory>
/home/itssahil/PROJECTS/Mol_Feturizer/New_Systems/rnas/3GX5

>  <Rbt.Executable>
rbdock ($Id: //depot/dev/client3/rdock/2013.1/src/exe/rbdock.cxx#4 $)

>  <Rbt.Library>
libRbt.so (2013.1, Build901 2013/11/27)

>  <Rbt.Parameter_File>
/export/apps/rDock/src/rDock_2013.1_src/data/scripts/dock_solv.prm

>  <Rbt.Receptor>
prm/pocket_docking_2.prm

>  <SCORE>
-8.77272

>  <SCORE.INTER>
-11.0919

>  <SCORE.INTER.CONST>
1

>  <SCORE.INTER.POLAR>
0

>  <SCORE.INTER.ROT>
7

>  <SCORE.INTER.SOLV>
7.81863

>  <SCORE.INTER.VDW>
-18.2675

>  <SCORE.INTER.norm>
-0.410811

>  <SCORE.INTRA>
1.00186

>  <SCORE.INTRA.DIHEDRAL>
2.89372

>  <SCORE.INTRA.DIHEDRAL.0>
4.28829

>  <SCORE.INTRA.POLAR>
0

>  <SCORE.INTRA.POLAR.0>
0

>  <SCORE.INTRA.REPUL>
0

>  <SCORE.INTRA.REPUL.0>
0

>  <SCORE.INTRA.SOLV>
0.508351

>  <SCORE.INTRA.SOLV.lig_0>
-48.6018

>  <SCORE.INTRA.VDW>
-0.699173

>  <SCORE.INTRA.VDW.0>
-2.1506

>  <SCORE.INTRA.norm>
0.0371061

>  <SCORE.RESTR>
1.31732

>  <SCORE.RESTR.CAVITY>
1.31732

>  <SCORE.RESTR.norm>
0.0487895

>  <SCORE.SYSTEM>
0

>  <SCORE.SYSTEM.CONST>
0

>  <SCORE.SYSTEM.DIHEDRAL>
0

>  <SCORE.SYSTEM.SOLV>
0

>  <SCORE.SYSTEM.norm>
0

>  <SCORE.heavy>
27

>  <SCORE.norm>
-0.324916

>  <RMSD>
5.291

$$$$
ligand
 OpenBabel11021811483D
libRbt.so/2013.1/901 2013/11/27
 27 29  0  0  0  0  0  0  0  0999 V2000
   16.5742   -6.1277   10.7520 N   0  0  0  0  0  0  0  0  0  0  0  0
   15.4772   -5.2361   10.3707 C   0  0  2  0  0  0  0  0  0  0  0  0
   14.5336   -4.8221   11.5025 C   0  0  0  0  0  0  0  0  0  0  0  0
   14.5964   -5.4214   12.5752 O   0  0  0  0  0  0  0  0  0  0  0  0
   14.6913   -5.8098    9.2036 C   0  0  0  0  0  0  0  0  0  0  0  0
   13.8187   -4.7549    8.5453 C   0  0  0  0  0  0  0  0  0  0  0  0
   14.2249   -4.5927    6.7978 S   0  0  2  0  0  0  0  0  0  0  0  0
   13.0797   -3.2775    6.3310 C   0  0  0  0  0  0  0  0  0  0  0  0
   13.3407   -6.0167    6.1202 C   0  0  0  0  0  0  0  0  0  0  0  0
   14.2993   -7.1510    5.8083 C   0  0  1  0  0  0  0  0  0  0  0  0
   15.0906   -7.4560    6.9339 O   0  0  0  0  0  0  0  0  0  0  0  0
   13.5865   -8.4441    5.4647 C   0  0  1  0  0  0  0  0  0  0  0  0
   13.4319   -8.5077    4.0693 O   0  0  0  0  0  0  0  0  0  0  0  0
   14.5385   -9.5154    5.9568 C   0  0  1  0  0  0  0  0  0  0  0  0
   15.2535   -9.9891    4.8377 O   0  0  0  0  0  0  0  0  0  0  0  0
   15.4774   -8.8189    6.9441 C   0  0  2  0  0  0  0  0  0  0  0  0
   13.7051   -3.9148   11.3875 O   0  0  0  0  0  0  0  0  0  0  0  0
   11.8912   -9.6827   10.6604 N   0  0  0  0  0  0  0  0  0  0  0  0
   11.6911   -9.1882    9.3945 C   0  0  0  0  0  0  0  0  0  0  0  0
   12.7717   -9.0294    8.5550 N   0  0  0  0  0  0  0  0  0  0  0  0
   14.0215   -9.3541    8.9549 C   0  0  0  0  0  0  0  0  0  0  0  0
   14.2375   -9.8677   10.2254 C   0  0  0  0  0  0  0  0  0  0  0  0
   13.1560  -10.0245   11.0898 C   0  0  0  0  0  0  0  0  0  0  0  0
   13.3239  -10.5085   12.3207 N   0  0  0  0  0  0  0  0  0  0  0  0
   15.5670  -10.1115   10.3567 N   0  0  0  0  0  0  0  0  0  0  0  0
   16.1751   -9.7776    9.1951 C   0  0  0  0  0  0  0  0  0  0  0  0
   15.2305   -9.3132    8.3133 N   0  0  0  0  0  0  0  0  0  0  0  0
  2  1  1  1  0  0  0
  2  3  1  0  0  0  0
  2  5  1  0  0  0  0
  3  4  1  0  0  0  0
  3 17  1  0  0  0  0
  5  6  1  0  0  0  0
  7  6  1  1  0  0  0
  7  8  1  0  0  0  0
  7  9  1  0  0  0  0
 10  9  1  1  0  0  0
 10 11  1  0  0  0  0
 10 12  1  0  0  0  0
 11 16  1  0  0  0  0
 12 13  1  6  0  0  0
 12 14  1  0  0  0  0
 14 15  1  6  0  0  0
 14 16  1  0  0  0  0
 16 27  1  1  0  0  0
 18 19  2  0  0  0  0
 18 23  1  0  0  0  0
 19 20  1  0  0  0  0
 20 21  2  0  0  0  0
 21 22  1  0  0  0  0
 21 27  1  0  0  0  0
 22 23  2  0  0  0  0
 22 25  1  0  0  0  0
 23 24  1  0  0  0  0
 25 26  2  0  0  0  0
 26 27  1  0  0  0  0
M  END
>  <CHROM.1>
-12.50040267,-163.95930198,122.27374611,-178.71144414,-103.18079076,52.75479514
60.83832017,14.21853558,-7.44871797,8.48759024,-0.98163441,-1.54932963,-1.16022038

>  <Name>
ligand

>  <RI>
0

>  <Rbt.Current_Directory>
/home/itssahil/PROJECTS/Mol_Feturizer/New_Systems/rnas/3GX5

>  <Rbt.Executable>
rbdock ($Id: //depot/dev/client3/rdock/2013.1/src/exe/rbdock.cxx#4 $)

>  <Rbt.Library>
libRbt.so (2013.1, Build901 2013/11/27)

>  <Rbt.Parameter_File>
/export/apps/rDock/src/rDock_2013.1_src/data/scripts/dock_solv.prm

>  <Rbt.Receptor>
prm/pocket_docking_3.prm

>  <SCORE>
-11.9632

>  <SCORE.INTER>
-13.976

>  <SCORE.INTER.CONST>
1

>  <SCORE.INTER.POLAR>
0

>  <SCORE.INTER.ROT>
7

>  <SCORE.INTER.SOLV>
9.58985

>  <SCORE.INTER.VDW>
-20.7806

>  <SCORE.INTER.norm>
-0.517631

>  <SCORE.INTRA>
2.01169

>  <SCORE.INTRA.DIHEDRAL>
8.57408

>  <SCORE.INTRA.DIHEDRAL.0>
4.28829

>  <SCORE.INTRA.POLAR>
0

>  <SCORE.INTRA.POLAR.0>
0

>  <SCORE.INTRA.REPUL>
0

>  <SCORE.INTRA.REPUL.0>
0

>  <SCORE.INTRA.SOLV>
-0.980125

>  <SCORE.INTRA.SOLV.lig_0>
-48.6018

>  <SCORE.INTRA.VDW>
-1.78529

>  <SCORE.INTRA.VDW.0>
-2.1506

>  <SCORE.INTRA.norm>
0.074507

>  <SCORE.RESTR>
0.00112756

>  <SCORE.RESTR.CAVITY>
0.00112756

>  <SCORE.RESTR.norm>
4.17614e-05

>  <SCORE.SYSTEM>
0

>  <SCORE.SYSTEM.CONST>
0

>  <SCORE.SYSTEM.DIHEDRAL>
0

>  <SCORE.SYSTEM.SOLV>
0

>  <SCORE.SYSTEM.norm>
0

>  <SCORE.heavy>
27

>  <SCORE.norm>
-0.443082

>  <RMSD>
5.291

$$$$
ligand
 OpenBabel11021811483D
libRbt.so/2013.1/901 2013/11/27
 27 29  0  0  0  0  0  0  0  0999 V2000
   12.3078   -9.6428   12.9554 N   0  0  0  0  0  0  0  0  0  0  0  0
   12.0069   -8.2687   12.5490 C   0  0  2  0  0  0  0  0  0  0  0  0
   10.7079   -8.0781   11.7622 C   0  0  0  0  0  0  0  0  0  0  0  0
   10.0895   -7.0219   11.8867 O   0  0  0  0  0  0  0  0  0  0  0  0
   13.1786   -7.6541   11.8019 C   0  0  0  0  0  0  0  0  0  0  0  0
   13.7325   -6.4423   12.5313 C   0  0  0  0  0  0  0  0  0  0  0  0
   15.1277   -5.7412   11.6329 S   0  0  2  0  0  0  0  0  0  0  0  0
   15.5284   -4.3509   12.7125 C   0  0  0  0  0  0  0  0  0  0  0  0
   14.2608   -4.8586   10.3144 C   0  0  0  0  0  0  0  0  0  0  0  0
   15.1760   -3.8497    9.6455 C   0  0  1  0  0  0  0  0  0  0  0  0
   16.4466   -4.4120    9.4095 O   0  0  0  0  0  0  0  0  0  0  0  0
   14.6759   -3.4178    8.2811 C   0  0  1  0  0  0  0  0  0  0  0  0
   13.9027   -2.2551    8.4401 O   0  0  0  0  0  0  0  0  0  0  0  0
   15.9488   -3.1250    7.5131 C   0  0  1  0  0  0  0  0  0  0  0  0
   16.1376   -1.7278    7.5289 O   0  0  0  0  0  0  0  0  0  0  0  0
   17.0703   -3.8316    8.2776 C   0  0  2  0  0  0  0  0  0  0  0  0
   10.2467   -8.9403   11.0095 O   0  0  0  0  0  0  0  0  0  0  0  0
   20.2747   -7.9722    8.2042 N   0  0  0  0  0  0  0  0  0  0  0  0
   20.0167   -7.1244    9.2539 C   0  0  0  0  0  0  0  0  0  0  0  0
   19.1355   -6.0807    9.0757 N   0  0  0  0  0  0  0  0  0  0  0  0
   18.5202   -5.8799    7.8887 C   0  0  0  0  0  0  0  0  0  0  0  0
   18.7600   -6.7359    6.8237 C   0  0  0  0  0  0  0  0  0  0  0  0
   19.6567   -7.7901    6.9853 C   0  0  0  0  0  0  0  0  0  0  0  0
   19.9185   -8.6301    5.9836 N   0  0  0  0  0  0  0  0  0  0  0  0
   18.0139   -6.3120    5.7712 N   0  0  0  0  0  0  0  0  0  0  0  0
   17.3073   -5.2268    6.1633 C   0  0  0  0  0  0  0  0  0  0  0  0
   17.6041   -4.9501    7.4752 N   0  0  0  0  0  0  0  0  0  0  0  0
  2  1  1  6  0  0  0
  2  3  1  0  0  0  0
  2  5  1  0  0  0  0
  3  4  1  0  0  0  0
  3 17  1  0  0  0  0
  5  6  1  0  0  0  0
  7  6  1  1  0  0  0
  7  8  1  0  0  0  0
  7  9  1  0  0  0  0
 10  9  1  6  0  0  0
 10 11  1  0  0  0  0
 10 12  1  0  0  0  0
 11 16  1  0  0  0  0
 12 13  1  1  0  0  0
 12 14  1  0  0  0  0
 14 15  1  1  0  0  0
 14 16  1  0  0  0  0
 16 27  1  6  0  0  0
 18 19  2  0  0  0  0
 18 23  1  0  0  0  0
 19 20  1  0  0  0  0
 20 21  2  0  0  0  0
 21 22  1  0  0  0  0
 21 27  1  0  0  0  0
 22 23  2  0  0  0  0
 22 25  1  0  0  0  0
 23 24  1  0  0  0  0
 25 26  2  0  0  0  0
 26 27  1  0  0  0  0
M  END
>  <CHROM.1>
148.32024615,-118.09478728,179.53458905,179.25191547,163.47939715,43.83882220
-59.46786372,15.63372546,-5.88893601,9.49012070,-2.78967864,0.53947608,-0.30998036

>  <Name>
ligand

>  <RI>
0

>  <Rbt.Current_Directory>
/home/itssahil/PROJECTS/Mol_Feturizer/New_Systems/rnas/3GX5

>  <Rbt.Executable>
rbdock ($Id: //depot/dev/client3/rdock/2013.1/src/exe/rbdock.cxx#4 $)

>  <Rbt.Library>
libRbt.so (2013.1, Build901 2013/11/27)

>  <Rbt.Parameter_File>
/export/apps/rDock/src/rDock_2013.1_src/data/scripts/dock_solv.prm

>  <Rbt.Receptor>
prm/pocket_docking_7.prm

>  <SCORE>
-13.5305

>  <SCORE.INTER>
-16.2391

>  <SCORE.INTER.CONST>
1

>  <SCORE.INTER.POLAR>
0

>  <SCORE.INTER.ROT>
7

>  <SCORE.INTER.SOLV>
9.88424

>  <SCORE.INTER.VDW>
-22.3875

>  <SCORE.INTER.norm>
-0.601448

>  <SCORE.INTRA>
2.70859

>  <SCORE.INTRA.DIHEDRAL>
5.74443

>  <SCORE.INTRA.DIHEDRAL.0>
4.28829

>  <SCORE.INTRA.POLAR>
0

>  <SCORE.INTRA.POLAR.0>
0

>  <SCORE.INTRA.REPUL>
0

>  <SCORE.INTRA.REPUL.0>
0

>  <SCORE.INTRA.SOLV>
-1.01851

>  <SCORE.INTRA.SOLV.lig_0>
-48.6018

>  <SCORE.INTRA.VDW>
0.345639

>  <SCORE.INTRA.VDW.0>
-2.1506

>  <SCORE.INTRA.norm>
0.100318

>  <SCORE.RESTR>
0

>  <SCORE.RESTR.CAVITY>
0

>  <SCORE.RESTR.norm>
0

>  <SCORE.SYSTEM>
0

>  <SCORE.SYSTEM.CONST>
0

>  <SCORE.SYSTEM.DIHEDRAL>
0

>  <SCORE.SYSTEM.SOLV>
0

>  <SCORE.SYSTEM.norm>
0

>  <SCORE.heavy>
27

>  <SCORE.norm>
-0.50113

>  <RMSD>
5.295

$$$$
ligand
 OpenBabel11021811483D
libRbt.so/2013.1/901 2013/11/27
 27 29  0  0  0  0  0  0  0  0999 V2000
   14.7562   -8.8807    9.4522 N   0  0  0  0  0  0  0  0  0  0  0  0
   16.1836   -9.1485    9.6384 C   0  0  2  0  0  0  0  0  0  0  0  0
   16.5946   -9.6172   11.0364 C   0  0  0  0  0  0  0  0  0  0  0  0
   15.8395   -9.3944   11.9818 O   0  0  0  0  0  0  0  0  0  0  0  0
   17.0210   -7.9561    9.2076 C   0  0  0  0  0  0  0  0  0  0  0  0
   16.6215   -6.6943    9.9531 C   0  0  0  0  0  0  0  0  0  0  0  0
   17.7939   -5.3655    9.6296 S   0  0  2  0  0  0  0  0  0  0  0  0
   18.7806   -5.4442   11.1394 C   0  0  0  0  0  0  0  0  0  0  0  0
   16.7722   -3.9239   10.0123 C   0  0  0  0  0  0  0  0  0  0  0  0
   15.7576   -3.6720    8.9122 C   0  0  1  0  0  0  0  0  0  0  0  0
   16.3029   -3.9888    7.6518 O   0  0  0  0  0  0  0  0  0  0  0  0
   14.5247   -4.5449    9.0397 C   0  0  1  0  0  0  0  0  0  0  0  0
   13.5545   -3.8375    9.7700 O   0  0  0  0  0  0  0  0  0  0  0  0
   14.0846   -4.7489    7.6042 C   0  0  1  0  0  0  0  0  0  0  0  0
   13.0271   -3.8499    7.3566 O   0  0  0  0  0  0  0  0  0  0  0  0
   15.3007   -4.4054    6.7413 C   0  0  2  0  0  0  0  0  0  0  0  0
   17.6554  -10.2059   11.2618 O   0  0  0  0  0  0  0  0  0  0  0  0
   14.0601   -8.8085    4.1934 N   0  0  0  0  0  0  0  0  0  0  0  0
   13.2091   -7.8370    4.6614 C   0  0  0  0  0  0  0  0  0  0  0  0
   13.7310   -6.7423    5.3147 N   0  0  0  0  0  0  0  0  0  0  0  0
   15.0634   -6.6078    5.4993 C   0  0  0  0  0  0  0  0  0  0  0  0
   15.9364   -7.5737    5.0201 C   0  0  0  0  0  0  0  0  0  0  0  0
   15.4230   -8.6919    4.3663 C   0  0  0  0  0  0  0  0  0  0  0  0
   16.2290   -9.6448    3.8974 N   0  0  0  0  0  0  0  0  0  0  0  0
   17.1999   -7.1861    5.3322 N   0  0  0  0  0  0  0  0  0  0  0  0
   17.1312   -5.9985    5.9767 C   0  0  0  0  0  0  0  0  0  0  0  0
   15.8147   -5.6226    6.0822 N   0  0  0  0  0  0  0  0  0  0  0  0
  2  1  1  1  0  0  0
  2  3  1  0  0  0  0
  2  5  1  0  0  0  0
  3  4  1  0  0  0  0
  3 17  1  0  0  0  0
  5  6  1  0  0  0  0
  7  6  1  1  0  0  0
  7  8  1  0  0  0  0
  7  9  1  0  0  0  0
 10  9  1  1  0  0  0
 10 11  1  0  0  0  0
 10 12  1  0  0  0  0
 11 16  1  0  0  0  0
 12 13  1  1  0  0  0
 12 14  1  0  0  0  0
 14 15  1  6  0  0  0
 14 16  1  0  0  0  0
 16 27  1  1  0  0  0
 18 19  2  0  0  0  0
 18 23  1  0  0  0  0
 19 20  1  0  0  0  0
 20 21  2  0  0  0  0
 21 22  1  0  0  0  0
 21 27  1  0  0  0  0
 22 23  2  0  0  0  0
 22 25  1  0  0  0  0
 23 24  1  0  0  0  0
 25 26  2  0  0  0  0
 26 27  1  0  0  0  0
M  END
>  <CHROM.1>
-19.84313031,56.64546154,170.72426434,-100.58190579,-74.36588638,-35.37078551
155.94287038,15.82210707,-6.59164621,7.98942248,-0.50457646,1.17057973,-2.64479136

>  <Name>
ligand

>  <RI>
0

>  <Rbt.Current_Directory>
/home/itssahil/PROJECTS/Mol_Feturizer/New_Systems/rnas/3GX5

>  <Rbt.Executable>
rbdock ($Id: //depot/dev/client3/rdock/2013.1/src/exe/rbdock.cxx#4 $)

>  <Rbt.Library>
libRbt.so (2013.1, Build901 2013/11/27)

>  <Rbt.Parameter_File>
/export/apps/rDock/src/rDock_2013.1_src/data/scripts/dock_solv.prm

>  <Rbt.Receptor>
prm/pocket_docking_6.prm

>  <SCORE>
-10.5285

>  <SCORE.INTER>
-11.3035

>  <SCORE.INTER.CONST>
1

>  <SCORE.INTER.POLAR>
0

>  <SCORE.INTER.ROT>
7

>  <SCORE.INTER.SOLV>
13.0244

>  <SCORE.INTER.VDW>
-20.1438

>  <SCORE.INTER.norm>
-0.418648

>  <SCORE.INTRA>
0.774979

>  <SCORE.INTRA.DIHEDRAL>
3.88784

>  <SCORE.INTRA.DIHEDRAL.0>
4.28829

>  <SCORE.INTRA.POLAR>
0

>  <SCORE.INTRA.POLAR.0>
0

>  <SCORE.INTRA.REPUL>
0

>  <SCORE.INTRA.REPUL.0>
0

>  <SCORE.INTRA.SOLV>
-0.0354383

>  <SCORE.INTRA.SOLV.lig_0>
-48.6018

>  <SCORE.INTRA.VDW>
-1.15122

>  <SCORE.INTRA.VDW.0>
-2.1506

>  <SCORE.INTRA.norm>
0.0287029

>  <SCORE.RESTR>
0

>  <SCORE.RESTR.CAVITY>
0

>  <SCORE.RESTR.norm>
0

>  <SCORE.SYSTEM>
0

>  <SCORE.SYSTEM.CONST>
0

>  <SCORE.SYSTEM.DIHEDRAL>
0

>  <SCORE.SYSTEM.SOLV>
0

>  <SCORE.SYSTEM.norm>
0

>  <SCORE.heavy>
27

>  <SCORE.norm>
-0.389945

>  <RMSD>
5.300

$$$$
ligand
 OpenBabel11021811483D
libRbt.so/2013.1/901 2013/11/27
 27 29  0  0  0  0  0  0  0  0999 V2000
   16.3539   -1.0840    8.2420 N   0  0  0  0  0  0  0  0  0  0  0  0
   15.3678   -2.1474    8.4435 C   0  0  2  0  0  0  0  0  0  0  0  0
   15.8326   -3.3316    9.2947 C   0  0  0  0  0  0  0  0  0  0  0  0
   15.0815   -3.7648   10.1675 O   0  0  0  0  0  0  0  0  0  0  0  0
   14.8108   -2.6309    7.1151 C   0  0  0  0  0  0  0  0  0  0  0  0
   13.7279   -3.6779    7.3113 C   0  0  0  0  0  0  0  0  0  0  0  0
   13.8480   -4.9615    6.0530 S   0  0  2  0  0  0  0  0  0  0  0  0
   12.6807   -6.1654    6.7218 C   0  0  0  0  0  0  0  0  0  0  0  0
   15.4024   -5.7498    6.5336 C   0  0  0  0  0  0  0  0  0  0  0  0
   15.7629   -6.8669    5.5717 C   0  0  1  0  0  0  0  0  0  0  0  0
   17.1548   -6.9044    5.3537 O   0  0  0  0  0  0  0  0  0  0  0  0
   15.4102   -8.2401    6.1085 C   0  0  1  0  0  0  0  0  0  0  0  0
   14.1265   -8.5796    5.6483 O   0  0  0  0  0  0  0  0  0  0  0  0
   16.4641   -9.1412    5.4974 C   0  0  1  0  0  0  0  0  0  0  0  0
   15.8779   -9.7802    4.3856 O   0  0  0  0  0  0  0  0  0  0  0  0
   17.5992   -8.2158    5.0539 C   0  0  2  0  0  0  0  0  0  0  0  0
   16.9328   -3.8712    9.1497 O   0  0  0  0  0  0  0  0  0  0  0  0
   20.3269   -6.7002    9.2587 N   0  0  0  0  0  0  0  0  0  0  0  0
   19.1362   -6.1927    8.7984 C   0  0  0  0  0  0  0  0  0  0  0  0
   18.5700   -6.7284    7.6626 N   0  0  0  0  0  0  0  0  0  0  0  0
   19.1642   -7.7443    6.9975 C   0  0  0  0  0  0  0  0  0  0  0  0
   20.3597   -8.2765    7.4580 C   0  0  0  0  0  0  0  0  0  0  0  0
   20.9501   -7.7385    8.5997 C   0  0  0  0  0  0  0  0  0  0  0  0
   22.1019   -8.2182    9.0696 N   0  0  0  0  0  0  0  0  0  0  0  0
   20.7227   -9.2781    6.6158 N   0  0  0  0  0  0  0  0  0  0  0  0
   19.7746   -9.3892    5.6570 C   0  0  0  0  0  0  0  0  0  0  0  0
   18.7980   -8.4507    5.8831 N   0  0  0  0  0  0  0  0  0  0  0  0
  2  1  1  6  0  0  0
  2  3  1  0  0  0  0
  2  5  1  0  0  0  0
  3  4  1  0  0  0  0
  3 17  1  0  0  0  0
  5  6  1  0  0  0  0
  7  6  1  1  0  0  0
  7  8  1  0  0  0  0
  7  9  1  0  0  0  0
 10  9  1  1  0  0  0
 10 11  1  0  0  0  0
 10 12  1  0  0  0  0
 11 16  1  0  0  0  0
 12 13  1  6  0  0  0
 12 14  1  0  0  0  0
 14 15  1  6  0  0  0
 14 16  1  0  0  0  0
 16 27  1  1  0  0  0
 18 19  2  0  0  0  0
 18 23  1  0  0  0  0
 19 20  1  0  0  0  0
 20 21  2  0  0  0  0
 21 22  1  0  0  0  0
 21 27  1  0  0  0  0
 22 23  2  0  0  0  0
 22 25  1  0  0  0  0
 23 24  1  0  0  0  0
 25 26  2  0  0  0  0
 26 27  1  0  0  0  0
M  END
>  <CHROM.1>
134.72210945,-176.70115009,-141.73253078,169.95174927,-177.99561575,142.53217987
18.36426254,16.87607970,-6.34556899,7.07136110,-2.47077186,0.38782139,-2.55717438

>  <Name>
ligand

>  <RI>
0

>  <Rbt.Current_Directory>
/home/itssahil/PROJECTS/Mol_Feturizer/New_Systems/rnas/3GX5

>  <Rbt.Executable>
rbdock ($Id: //depot/dev/client3/rdock/2013.1/src/exe/rbdock.cxx#4 $)

>  <Rbt.Library>
libRbt.so (2013.1, Build901 2013/11/27)

>  <Rbt.Parameter_File>
/export/apps/rDock/src/rDock_2013.1_src/data/scripts/dock_solv.prm

>  <Rbt.Receptor>
prm/pocket_docking_8.prm

>  <SCORE>
-12.3031

>  <SCORE.INTER>
-14.6281

>  <SCORE.INTER.CONST>
1

>  <SCORE.INTER.POLAR>
0

>  <SCORE.INTER.ROT>
7

>  <SCORE.INTER.SOLV>
16.5731

>  <SCORE.INTER.VDW>
-23.5431

>  <SCORE.INTER.norm>
-0.541782

>  <SCORE.INTRA>
2.32503

>  <SCORE.INTRA.DIHEDRAL>
7.12223

>  <SCORE.INTRA.DIHEDRAL.0>
4.28829

>  <SCORE.INTRA.POLAR>
0

>  <SCORE.INTRA.POLAR.0>
0

>  <SCORE.INTRA.REPUL>
0

>  <SCORE.INTRA.REPUL.0>
0

>  <SCORE.INTRA.SOLV>
-0.99689

>  <SCORE.INTRA.SOLV.lig_0>
-48.6018

>  <SCORE.INTRA.VDW>
-0.737646

>  <SCORE.INTRA.VDW.0>
-2.1506

>  <SCORE.INTRA.norm>
0.0861121

>  <SCORE.RESTR>
0

>  <SCORE.RESTR.CAVITY>
0

>  <SCORE.RESTR.norm>
0

>  <SCORE.SYSTEM>
0

>  <SCORE.SYSTEM.CONST>
0

>  <SCORE.SYSTEM.DIHEDRAL>
0

>  <SCORE.SYSTEM.SOLV>
0

>  <SCORE.SYSTEM.norm>
0

>  <SCORE.heavy>
27

>  <SCORE.norm>
-0.45567

>  <RMSD>
5.307

$$$$
ligand
 OpenBabel11021811483D
libRbt.so/2013.1/901 2013/11/27
 27 29  0  0  0  0  0  0  0  0999 V2000
   11.0293   -8.4779   14.7677 N   0  0  0  0  0  0  0  0  0  0  0  0
   11.0999   -8.0343   13.3742 C   0  0  2  0  0  0  0  0  0  0  0  0
   10.5993   -9.0371   12.3318 C   0  0  0  0  0  0  0  0  0  0  0  0
   10.4867  -10.2194   12.6532 O   0  0  0  0  0  0  0  0  0  0  0  0
   12.4998   -7.5568   13.0261 C   0  0  0  0  0  0  0  0  0  0  0  0
   12.4911   -6.6322   11.8209 C   0  0  0  0  0  0  0  0  0  0  0  0
   14.1685   -6.3320   11.2367 S   0  0  2  0  0  0  0  0  0  0  0  0
   14.7759   -5.2676   12.5622 C   0  0  0  0  0  0  0  0  0  0  0  0
   13.8568   -5.0836    9.9667 C   0  0  0  0  0  0  0  0  0  0  0  0
   15.1351   -4.7311    9.2287 C   0  0  1  0  0  0  0  0  0  0  0  0
   15.6612   -5.8647    8.5774 O   0  0  0  0  0  0  0  0  0  0  0  0
   14.9157   -3.7105    8.1293 C   0  0  1  0  0  0  0  0  0  0  0  0
   15.1498   -2.4303    8.6598 O   0  0  0  0  0  0  0  0  0  0  0  0
   15.9631   -4.0719    7.0957 C   0  0  1  0  0  0  0  0  0  0  0  0
   17.0438   -3.1819    7.2629 O   0  0  0  0  0  0  0  0  0  0  0  0
   16.3886   -5.5065    7.4157 C   0  0  2  0  0  0  0  0  0  0  0  0
   10.3071   -8.7150   11.1769 O   0  0  0  0  0  0  0  0  0  0  0  0
   17.8179   -9.1942    3.9840 N   0  0  0  0  0  0  0  0  0  0  0  0
   18.6048   -8.5545    4.9107 C   0  0  0  0  0  0  0  0  0  0  0  0
   18.0405   -7.6028    5.7313 N   0  0  0  0  0  0  0  0  0  0  0  0
   16.7280   -7.2914    5.6414 C   0  0  0  0  0  0  0  0  0  0  0  0
   15.9177   -7.9388    4.7200 C   0  0  0  0  0  0  0  0  0  0  0  0
   16.4761   -8.8964    3.8760 C   0  0  0  0  0  0  0  0  0  0  0  0
   15.7316   -9.5355    2.9732 N   0  0  0  0  0  0  0  0  0  0  0  0
   14.6597   -7.4441    4.8503 N   0  0  0  0  0  0  0  0  0  0  0  0
   14.6686   -6.5204    5.8389 C   0  0  0  0  0  0  0  0  0  0  0  0
   15.9412   -6.4188    6.3445 N   0  0  0  0  0  0  0  0  0  0  0  0
  2  1  1  1  0  0  0
  2  3  1  0  0  0  0
  2  5  1  0  0  0  0
  3  4  1  0  0  0  0
  3 17  1  0  0  0  0
  5  6  1  0  0  0  0
  7  6  1  1  0  0  0
  7  8  1  0  0  0  0
  7  9  1  0  0  0  0
 10  9  1  6  0  0  0
 10 11  1  0  0  0  0
 10 12  1  0  0  0  0
 11 16  1  0  0  0  0
 12 13  1  1  0  0  0
 12 14  1  0  0  0  0
 14 15  1  1  0  0  0
 14 16  1  0  0  0  0
 16 27  1  6  0  0  0
 18 19  2  0  0  0  0
 18 23  1  0  0  0  0
 19 20  1  0  0  0  0
 20 21  2  0  0  0  0
 21 22  1  0  0  0  0
 21 27  1  0  0  0  0
 22 23  2  0  0  0  0
 22 25  1  0  0  0  0
 23 24  1  0  0  0  0
 25 26  2  0  0  0  0
 26 27  1  0  0  0  0
M  END
>  <CHROM.1>
-17.47688100,-158.45594306,-169.21078626,-71.85566157,-175.52612883,61.22074094
-120.08310679,14.59943129,-6.76133381,8.68229843,2.67806760,0.91503654,0.63973647

>  <Name>
ligand

>  <RI>
0

>  <Rbt.Current_Directory>
/home/itssahil/PROJECTS/Mol_Feturizer/New_Systems/rnas/3GX5

>  <Rbt.Executable>
rbdock ($Id: //depot/dev/client3/rdock/2013.1/src/exe/rbdock.cxx#4 $)

>  <Rbt.Library>
libRbt.so (2013.1, Build901 2013/11/27)

>  <Rbt.Parameter_File>
/export/apps/rDock/src/rDock_2013.1_src/data/scripts/dock_solv.prm

>  <Rbt.Receptor>
prm/pocket_docking_8.prm

>  <SCORE>
-10.1682

>  <SCORE.INTER>
-10.4543

>  <SCORE.INTER.CONST>
1

>  <SCORE.INTER.POLAR>
0

>  <SCORE.INTER.ROT>
7

>  <SCORE.INTER.SOLV>
12.5806

>  <SCORE.INTER.VDW>
-19.4297

>  <SCORE.INTER.norm>
-0.387197

>  <SCORE.INTRA>
0.286104

>  <SCORE.INTRA.DIHEDRAL>
1.56804

>  <SCORE.INTRA.DIHEDRAL.0>
4.28829

>  <SCORE.INTRA.POLAR>
0

>  <SCORE.INTRA.POLAR.0>
0

>  <SCORE.INTRA.REPUL>
0

>  <SCORE.INTRA.REPUL.0>
0

>  <SCORE.INTRA.SOLV>
-1.30004

>  <SCORE.INTRA.SOLV.lig_0>
-48.6018

>  <SCORE.INTRA.VDW>
0.152103

>  <SCORE.INTRA.VDW.0>
-2.1506

>  <SCORE.INTRA.norm>
0.0105964

>  <SCORE.RESTR>
0

>  <SCORE.RESTR.CAVITY>
0

>  <SCORE.RESTR.norm>
0

>  <SCORE.SYSTEM>
0

>  <SCORE.SYSTEM.CONST>
0

>  <SCORE.SYSTEM.DIHEDRAL>
0

>  <SCORE.SYSTEM.SOLV>
0

>  <SCORE.SYSTEM.norm>
0

>  <SCORE.heavy>
27

>  <SCORE.norm>
-0.3766

>  <RMSD>
5.309

$$$$
ligand
 OpenBabel11021811483D
libRbt.so/2013.1/901 2013/11/27
 27 29  0  0  0  0  0  0  0  0999 V2000
   17.2828   -1.6056    7.7499 N   0  0  0  0  0  0  0  0  0  0  0  0
   16.4187   -2.7526    8.0351 C   0  0  2  0  0  0  0  0  0  0  0  0
   17.0624   -4.1298    7.8565 C   0  0  0  0  0  0  0  0  0  0  0  0
   17.3304   -4.5155    6.7193 O   0  0  0  0  0  0  0  0  0  0  0  0
   15.1210   -2.6640    7.2497 C   0  0  0  0  0  0  0  0  0  0  0  0
   13.9935   -3.4042    7.9485 C   0  0  0  0  0  0  0  0  0  0  0  0
   14.2067   -5.1859    7.7892 S   0  0  2  0  0  0  0  0  0  0  0  0
   13.3790   -5.4602    6.2085 C   0  0  0  0  0  0  0  0  0  0  0  0
   12.9166   -5.7738    8.9110 C   0  0  0  0  0  0  0  0  0  0  0  0
   13.1387   -7.2301    9.2758 C   0  0  1  0  0  0  0  0  0  0  0  0
   12.9833   -8.0548    8.1436 O   0  0  0  0  0  0  0  0  0  0  0  0
   14.5448   -7.5027    9.7728 C   0  0  1  0  0  0  0  0  0  0  0  0
   14.5476   -7.3977   11.1743 O   0  0  0  0  0  0  0  0  0  0  0  0
   14.8063   -8.9288    9.3327 C   0  0  1  0  0  0  0  0  0  0  0  0
   14.5961   -9.7598   10.4522 O   0  0  0  0  0  0  0  0  0  0  0  0
   13.7779   -9.2239    8.2386 C   0  0  2  0  0  0  0  0  0  0  0  0
   17.3214   -4.8774    8.8034 O   0  0  0  0  0  0  0  0  0  0  0  0
   17.9486   -7.9446    5.3425 N   0  0  0  0  0  0  0  0  0  0  0  0
   17.6811   -7.5839    6.6408 C   0  0  0  0  0  0  0  0  0  0  0  0
   16.5187   -8.0228    7.2358 N   0  0  0  0  0  0  0  0  0  0  0  0
   15.6414   -8.8028    6.5654 C   0  0  0  0  0  0  0  0  0  0  0  0
   15.9044   -9.1868    5.2585 C   0  0  0  0  0  0  0  0  0  0  0  0
   17.0709   -8.7424    4.6396 C   0  0  0  0  0  0  0  0  0  0  0  0
   17.3559   -9.0843    3.3828 N   0  0  0  0  0  0  0  0  0  0  0  0
   14.8744   -9.9647    4.8366 N   0  0  0  0  0  0  0  0  0  0  0  0
   13.9905  -10.0847    5.8539 C   0  0  0  0  0  0  0  0  0  0  0  0
   14.4543   -9.3765    6.9351 N   0  0  0  0  0  0  0  0  0  0  0  0
  2  1  1  6  0  0  0
  2  3  1  0  0  0  0
  2  5  1  0  0  0  0
  3  4  1  0  0  0  0
  3 17  1  0  0  0  0
  5  6  1  0  0  0  0
  7  6  1  1  0  0  0
  7  8  1  0  0  0  0
  7  9  1  0  0  0  0
 10  9  1  6  0  0  0
 10 11  1  0  0  0  0
 10 12  1  0  0  0  0
 11 16  1  0  0  0  0
 12 13  1  1  0  0  0
 12 14  1  0  0  0  0
 14 15  1  1  0  0  0
 14 16  1  0  0  0  0
 16 27  1  6  0  0  0
 18 19  2  0  0  0  0
 18 23  1  0  0  0  0
 19 20  1  0  0  0  0
 20 21  2  0  0  0  0
 21 22  1  0  0  0  0
 21 27  1  0  0  0  0
 22 23  2  0  0  0  0
 22 25  1  0  0  0  0
 23 24  1  0  0  0  0
 25 26  2  0  0  0  0
 26 27  1  0  0  0  0
M  END
>  <CHROM.1>
-69.84877539,-153.60689426,-73.77656729,-86.90846171,-163.36149490,-66.03551016
86.64720546,15.29030246,-6.81213329,7.49652012,-1.42971323,-0.87824429,-2.79187750

>  <Name>
ligand

>  <RI>
0

>  <Rbt.Current_Directory>
/home/itssahil/PROJECTS/Mol_Feturizer/New_Systems/rnas/3GX5

>  <Rbt.Executable>
rbdock ($Id: //depot/dev/client3/rdock/2013.1/src/exe/rbdock.cxx#4 $)

>  <Rbt.Library>
libRbt.so (2013.1, Build901 2013/11/27)

>  <Rbt.Parameter_File>
/export/apps/rDock/src/rDock_2013.1_src/data/scripts/dock_solv.prm

>  <Rbt.Receptor>
prm/pocket_docking_8.prm

>  <SCORE>
-11.6791

>  <SCORE.INTER>
-11.1771

>  <SCORE.INTER.CONST>
1

>  <SCORE.INTER.POLAR>
0

>  <SCORE.INTER.ROT>
7

>  <SCORE.INTER.SOLV>
17.3599

>  <SCORE.INTER.VDW>
-21.5047

>  <SCORE.INTER.norm>
-0.413968

>  <SCORE.INTRA>
-0.501975

>  <SCORE.INTRA.DIHEDRAL>
4.50967

>  <SCORE.INTRA.DIHEDRAL.0>
4.28829

>  <SCORE.INTRA.POLAR>
0

>  <SCORE.INTRA.POLAR.0>
0

>  <SCORE.INTRA.REPUL>
0

>  <SCORE.INTRA.REPUL.0>
0

>  <SCORE.INTRA.SOLV>
-0.853898

>  <SCORE.INTRA.SOLV.lig_0>
-48.6018

>  <SCORE.INTRA.VDW>
-2.32986

>  <SCORE.INTRA.VDW.0>
-2.1506

>  <SCORE.INTRA.norm>
-0.0185917

>  <SCORE.RESTR>
0

>  <SCORE.RESTR.CAVITY>
0

>  <SCORE.RESTR.norm>
0

>  <SCORE.SYSTEM>
0

>  <SCORE.SYSTEM.CONST>
0

>  <SCORE.SYSTEM.DIHEDRAL>
0

>  <SCORE.SYSTEM.SOLV>
0

>  <SCORE.SYSTEM.norm>
0

>  <SCORE.heavy>
27

>  <SCORE.norm>
-0.432559

>  <RMSD>
5.314

$$$$
ligand
 OpenBabel11021811483D
libRbt.so/2013.1/901 2013/11/27
 27 29  0  0  0  0  0  0  0  0999 V2000
   15.3262   -8.1500   16.9538 N   0  0  0  0  0  0  0  0  0  0  0  0
   14.2061   -8.4552   16.0617 C   0  0  2  0  0  0  0  0  0  0  0  0
   14.3484   -9.7321   15.2298 C   0  0  0  0  0  0  0  0  0  0  0  0
   15.4759  -10.1149   14.9201 O   0  0  0  0  0  0  0  0  0  0  0  0
   13.8844   -7.2691   15.1681 C   0  0  0  0  0  0  0  0  0  0  0  0
   15.0002   -7.0005   14.1730 C   0  0  0  0  0  0  0  0  0  0  0  0
   14.5353   -5.6832   13.0355 S   0  0  2  0  0  0  0  0  0  0  0  0
   13.2158   -6.5098   12.1219 C   0  0  0  0  0  0  0  0  0  0  0  0
   15.8684   -5.8108   11.8209 C   0  0  0  0  0  0  0  0  0  0  0  0
   15.8368   -4.6390   10.8571 C   0  0  1  0  0  0  0  0  0  0  0  0
   16.9168   -4.7092    9.9545 O   0  0  0  0  0  0  0  0  0  0  0  0
   14.5953   -4.6280    9.9872 C   0  0  1  0  0  0  0  0  0  0  0  0
   13.6216   -3.8320   10.6144 O   0  0  0  0  0  0  0  0  0  0  0  0
   15.0716   -3.9910    8.6974 C   0  0  1  0  0  0  0  0  0  0  0  0
   14.6726   -2.6389    8.7236 O   0  0  0  0  0  0  0  0  0  0  0  0
   16.5974   -4.1058    8.7132 C   0  0  2  0  0  0  0  0  0  0  0  0
   13.3805  -10.3959   14.8486 O   0  0  0  0  0  0  0  0  0  0  0  0
   16.9653   -9.1203    7.2514 N   0  0  0  0  0  0  0  0  0  0  0  0
   16.4041   -8.6159    8.3993 C   0  0  0  0  0  0  0  0  0  0  0  0
   16.4050   -7.2541    8.6072 N   0  0  0  0  0  0  0  0  0  0  0  0
   16.9452   -6.4088    7.7010 C   0  0  0  0  0  0  0  0  0  0  0  0
   17.5032   -6.9023    6.5307 C   0  0  0  0  0  0  0  0  0  0  0  0
   17.5190   -8.2780    6.3107 C   0  0  0  0  0  0  0  0  0  0  0  0
   18.0519   -8.7912    5.2015 N   0  0  0  0  0  0  0  0  0  0  0  0
   17.9572   -5.8466    5.8071 N   0  0  0  0  0  0  0  0  0  0  0  0
   17.6795   -4.7134    6.4922 C   0  0  0  0  0  0  0  0  0  0  0  0
   17.0460   -5.0437    7.6648 N   0  0  0  0  0  0  0  0  0  0  0  0
  2  1  1  6  0  0  0
  2  3  1  0  0  0  0
  2  5  1  0  0  0  0
  3  4  1  0  0  0  0
  3 17  1  0  0  0  0
  5  6  1  0  0  0  0
  7  6  1  1  0  0  0
  7  8  1  0  0  0  0
  7  9  1  0  0  0  0
 10  9  1  1  0  0  0
 10 11  1  0  0  0  0
 10 12  1  0  0  0  0
 11 16  1  0  0  0  0
 12 13  1  1  0  0  0
 12 14  1  0  0  0  0
 14 15  1  1  0  0  0
 14 16  1  0  0  0  0
 16 27  1  6  0  0  0
 18 19  2  0  0  0  0
 18 23  1  0  0  0  0
 19 20  1  0  0  0  0
 20 21  2  0  0  0  0
 21 22  1  0  0  0  0
 21 27  1  0  0  0  0
 22 23  2  0  0  0  0
 22 25  1  0  0  0  0
 23 24  1  0  0  0  0
 25 26  2  0  0  0  0
 26 27  1  0  0  0  0
M  END
>  <CHROM.1>
-28.81592768,67.58072220,175.14896970,-67.82965491,-170.51081219,177.10395672
39.21046744,15.63123709,-6.55881740,10.65467934,-2.36866768,1.13107389,-0.56051399

>  <Name>
ligand

>  <RI>
0

>  <Rbt.Current_Directory>
/home/itssahil/PROJECTS/Mol_Feturizer/New_Systems/rnas/3GX5

>  <Rbt.Executable>
rbdock ($Id: //depot/dev/client3/rdock/2013.1/src/exe/rbdock.cxx#4 $)

>  <Rbt.Library>
libRbt.so (2013.1, Build901 2013/11/27)

>  <Rbt.Parameter_File>
/export/apps/rDock/src/rDock_2013.1_src/data/scripts/dock_solv.prm

>  <Rbt.Receptor>
prm/pocket_docking_8.prm

>  <SCORE>
-9.36685

>  <SCORE.INTER>
-9.45918

>  <SCORE.INTER.CONST>
1

>  <SCORE.INTER.POLAR>
0

>  <SCORE.INTER.ROT>
7

>  <SCORE.INTER.SOLV>
12.092

>  <SCORE.INTER.VDW>
-18.6035

>  <SCORE.INTER.norm>
-0.35034

>  <SCORE.INTRA>
0.0923299

>  <SCORE.INTRA.DIHEDRAL>
0.425659

>  <SCORE.INTRA.DIHEDRAL.0>
4.28829

>  <SCORE.INTRA.POLAR>
0

>  <SCORE.INTRA.POLAR.0>
0

>  <SCORE.INTRA.REPUL>
0

>  <SCORE.INTRA.REPUL.0>
0

>  <SCORE.INTRA.SOLV>
-0.268421

>  <SCORE.INTRA.SOLV.lig_0>
-48.6018

>  <SCORE.INTRA.VDW>
0.0137108

>  <SCORE.INTRA.VDW.0>
-2.1506

>  <SCORE.INTRA.norm>
0.00341962

>  <SCORE.RESTR>
0

>  <SCORE.RESTR.CAVITY>
0

>  <SCORE.RESTR.norm>
0

>  <SCORE.SYSTEM>
0

>  <SCORE.SYSTEM.CONST>
0

>  <SCORE.SYSTEM.DIHEDRAL>
0

>  <SCORE.SYSTEM.SOLV>
0

>  <SCORE.SYSTEM.norm>
0

>  <SCORE.heavy>
27

>  <SCORE.norm>
-0.346921

>  <RMSD>
5.317

$$$$
ligand
 OpenBabel11021811483D
libRbt.so/2013.1/901 2013/11/27
 27 29  0  0  0  0  0  0  0  0999 V2000
   14.2362   -6.2439   10.7579 N   0  0  0  0  0  0  0  0  0  0  0  0
   12.8121   -6.5097   10.5455 C   0  0  2  0  0  0  0  0  0  0  0  0
   11.9854   -6.7500   11.8111 C   0  0  0  0  0  0  0  0  0  0  0  0
   10.7585   -6.7721   11.7219 O   0  0  0  0  0  0  0  0  0  0  0  0
   12.6129   -7.6441    9.5544 C   0  0  0  0  0  0  0  0  0  0  0  0
   12.7514   -7.1634    8.1201 C   0  0  0  0  0  0  0  0  0  0  0  0
   14.3742   -7.5850    7.4613 S   0  0  2  0  0  0  0  0  0  0  0  0
   15.2878   -6.0909    7.8997 C   0  0  0  0  0  0  0  0  0  0  0  0
   14.1075   -7.2695    5.7012 C   0  0  0  0  0  0  0  0  0  0  0  0
   15.2925   -7.7440    4.8804 C   0  0  1  0  0  0  0  0  0  0  0  0
   16.4937   -7.2085    5.3871 O   0  0  0  0  0  0  0  0  0  0  0  0
   15.4779   -9.2478    4.9323 C   0  0  1  0  0  0  0  0  0  0  0  0
   14.7979   -9.8160    3.8415 O   0  0  0  0  0  0  0  0  0  0  0  0
   16.9762   -9.4255    4.7928 C   0  0  1  0  0  0  0  0  0  0  0  0
   17.2364   -9.7639    3.4491 O   0  0  0  0  0  0  0  0  0  0  0  0
   17.5921   -8.0680    5.1385 C   0  0  2  0  0  0  0  0  0  0  0  0
   12.4938   -6.9180   12.9228 O   0  0  0  0  0  0  0  0  0  0  0  0
   20.8416  -10.9655    8.0477 N   0  0  0  0  0  0  0  0  0  0  0  0
   20.3494  -11.2498    6.7971 C   0  0  0  0  0  0  0  0  0  0  0  0
   19.4969  -10.3544    6.1894 N   0  0  0  0  0  0  0  0  0  0  0  0
   19.1405   -9.2027    6.8011 C   0  0  0  0  0  0  0  0  0  0  0  0
   19.6404   -8.8953    8.0581 C   0  0  0  0  0  0  0  0  0  0  0  0
   20.4955   -9.7956    8.6901 C   0  0  0  0  0  0  0  0  0  0  0  0
   20.9915   -9.5392    9.9009 N   0  0  0  0  0  0  0  0  0  0  0  0
   19.1324   -7.6909    8.4263 N   0  0  0  0  0  0  0  0  0  0  0  0
   18.3453   -7.2391    7.4229 C   0  0  0  0  0  0  0  0  0  0  0  0
   18.3452   -8.1609    6.4051 N   0  0  0  0  0  0  0  0  0  0  0  0
  2  1  1  1  0  0  0
  2  3  1  0  0  0  0
  2  5  1  0  0  0  0
  3  4  1  0  0  0  0
  3 17  1  0  0  0  0
  5  6  1  0  0  0  0
  7  6  1  1  0  0  0
  7  8  1  0  0  0  0
  7  9  1  0  0  0  0
 10  9  1  1  0  0  0
 10 11  1  0  0  0  0
 10 12  1  0  0  0  0
 11 16  1  0  0  0  0
 12 13  1  6  0  0  0
 12 14  1  0  0  0  0
 14 15  1  6  0  0  0
 14 16  1  0  0  0  0
 16 27  1  1  0  0  0
 18 19  2  0  0  0  0
 18 23  1  0  0  0  0
 19 20  1  0  0  0  0
 20 21  2  0  0  0  0
 21 22  1  0  0  0  0
 21 27  1  0  0  0  0
 22 23  2  0  0  0  0
 22 25  1  0  0  0  0
 23 24  1  0  0  0  0
 25 26  2  0  0  0  0
 26 27  1  0  0  0  0
M  END
>  <CHROM.1>
168.85723702,-80.67884636,100.94826348,-91.08500801,-171.88352848,-52.26400141
153.82686468,16.17500251,-8.21178221,7.60647502,-2.57270644,0.31479508,-1.71657420

>  <Name>
ligand

>  <RI>
0

>  <Rbt.Current_Directory>
/home/itssahil/PROJECTS/Mol_Feturizer/New_Systems/rnas/3GX5

>  <Rbt.Executable>
rbdock ($Id: //depot/dev/client3/rdock/2013.1/src/exe/rbdock.cxx#4 $)

>  <Rbt.Library>
libRbt.so (2013.1, Build901 2013/11/27)

>  <Rbt.Parameter_File>
/export/apps/rDock/src/rDock_2013.1_src/data/scripts/dock_solv.prm

>  <Rbt.Receptor>
prm/pocket_docking_7.prm

>  <SCORE>
-4.52049

>  <SCORE.INTER>
-8.44482

>  <SCORE.INTER.CONST>
1

>  <SCORE.INTER.POLAR>
0

>  <SCORE.INTER.ROT>
7

>  <SCORE.INTER.SOLV>
7.06412

>  <SCORE.INTER.VDW>
-16.2513

>  <SCORE.INTER.norm>
-0.312771

>  <SCORE.INTRA>
3.92433

>  <SCORE.INTRA.DIHEDRAL>
7.26973

>  <SCORE.INTRA.DIHEDRAL.0>
4.28829

>  <SCORE.INTRA.POLAR>
0

>  <SCORE.INTRA.POLAR.0>
0

>  <SCORE.INTRA.REPUL>
0

>  <SCORE.INTRA.REPUL.0>
0

>  <SCORE.INTRA.SOLV>
1.55963

>  <SCORE.INTRA.SOLV.lig_0>
-48.6018

>  <SCORE.INTRA.VDW>
-0.490349

>  <SCORE.INTRA.VDW.0>
-2.1506

>  <SCORE.INTRA.norm>
0.145346

>  <SCORE.RESTR>
0

>  <SCORE.RESTR.CAVITY>
0

>  <SCORE.RESTR.norm>
0

>  <SCORE.SYSTEM>
0

>  <SCORE.SYSTEM.CONST>
0

>  <SCORE.SYSTEM.DIHEDRAL>
0

>  <SCORE.SYSTEM.SOLV>
0

>  <SCORE.SYSTEM.norm>
0

>  <SCORE.heavy>
27

>  <SCORE.norm>
-0.167426

>  <RMSD>
5.320

$$$$
ligand
 OpenBabel11021811483D
libRbt.so/2013.1/901 2013/11/27
 27 29  0  0  0  0  0  0  0  0999 V2000
   17.3087   -3.9830   10.7705 N   0  0  0  0  0  0  0  0  0  0  0  0
   16.2572   -4.7680   10.1211 C   0  0  2  0  0  0  0  0  0  0  0  0
   16.4637   -6.2846   10.1224 C   0  0  0  0  0  0  0  0  0  0  0  0
   15.6124   -6.9980   10.6517 O   0  0  0  0  0  0  0  0  0  0  0  0
   15.9969   -4.2660    8.7107 C   0  0  0  0  0  0  0  0  0  0  0  0
   14.8343   -4.9982    8.0629 C   0  0  0  0  0  0  0  0  0  0  0  0
   14.6080   -4.4534    6.3607 S   0  0  2  0  0  0  0  0  0  0  0  0
   13.3967   -3.1385    6.6114 C   0  0  0  0  0  0  0  0  0  0  0  0
   13.5164   -5.7544    5.7406 C   0  0  0  0  0  0  0  0  0  0  0  0
   14.2574   -7.0738    5.6258 C   0  0  1  0  0  0  0  0  0  0  0  0
   14.7198   -7.4951    6.8887 O   0  0  0  0  0  0  0  0  0  0  0  0
   13.3734   -8.2023    5.1324 C   0  0  1  0  0  0  0  0  0  0  0  0
   13.4970   -8.2835    3.7349 O   0  0  0  0  0  0  0  0  0  0  0  0
   13.9572   -9.4292    5.8032 C   0  0  1  0  0  0  0  0  0  0  0  0
   14.7692  -10.0818    4.8531 O   0  0  0  0  0  0  0  0  0  0  0  0
   14.8002   -8.9072    6.9687 C   0  0  2  0  0  0  0  0  0  0  0  0
   17.4513   -6.8278    9.6201 O   0  0  0  0  0  0  0  0  0  0  0  0
   15.6432  -10.5090   11.8822 N   0  0  0  0  0  0  0  0  0  0  0  0
   16.5779  -10.2122   10.9202 C   0  0  0  0  0  0  0  0  0  0  0  0
   16.1555   -9.8045    9.6739 N   0  0  0  0  0  0  0  0  0  0  0  0
   14.8400   -9.6894    9.3845 C   0  0  0  0  0  0  0  0  0  0  0  0
   13.8847   -9.9722   10.3499 C   0  0  0  0  0  0  0  0  0  0  0  0
   14.2960  -10.3957   11.6119 C   0  0  0  0  0  0  0  0  0  0  0  0
   13.4082  -10.6833   12.5642 N   0  0  0  0  0  0  0  0  0  0  0  0
   12.6607   -9.7672    9.7985 N   0  0  0  0  0  0  0  0  0  0  0  0
   12.8355   -9.3494    8.5236 C   0  0  0  0  0  0  0  0  0  0  0  0
   14.1805   -9.2890    8.2534 N   0  0  0  0  0  0  0  0  0  0  0  0
  2  1  1  6  0  0  0
  2  3  1  0  0  0  0
  2  5  1  0  0  0  0
  3  4  1  0  0  0  0
  3 17  1  0  0  0  0
  5  6  1  0  0  0  0
  7  6  1  1  0  0  0
  7  8  1  0  0  0  0
  7  9  1  0  0  0  0
 10  9  1  1  0  0  0
 10 11  1  0  0  0  0
 10 12  1  0  0  0  0
 11 16  1  0  0  0  0
 12 13  1  6  0  0  0
 12 14  1  0  0  0  0
 14 15  1  6  0  0  0
 14 16  1  0  0  0  0
 16 27  1  1  0  0  0
 18 19  2  0  0  0  0
 18 23  1  0  0  0  0
 19 20  1  0  0  0  0
 20 21  2  0  0  0  0
 21 22  1  0  0  0  0
 21 27  1  0  0  0  0
 22 23  2  0  0  0  0
 22 25  1  0  0  0  0
 23 24  1  0  0  0  0
 25 26  2  0  0  0  0
 26 27  1  0  0  0  0
M  END
>  <CHROM.1>
121.11397177,-175.51283410,-176.68515482,-92.60898735,-69.75669527,61.58451938
-104.83650707,14.79011594,-7.59164920,8.30596426,-1.77783923,1.15273097,2.49268471

>  <Name>
ligand

>  <RI>
0

>  <Rbt.Current_Directory>
/home/itssahil/PROJECTS/Mol_Feturizer/New_Systems/rnas/3GX5

>  <Rbt.Executable>
rbdock ($Id: //depot/dev/client3/rdock/2013.1/src/exe/rbdock.cxx#4 $)

>  <Rbt.Library>
libRbt.so (2013.1, Build901 2013/11/27)

>  <Rbt.Parameter_File>
/export/apps/rDock/src/rDock_2013.1_src/data/scripts/dock_solv.prm

>  <Rbt.Receptor>
prm/pocket_docking_8.prm

>  <SCORE>
-13.7385

>  <SCORE.INTER>
-12.4722

>  <SCORE.INTER.CONST>
1

>  <SCORE.INTER.POLAR>
0

>  <SCORE.INTER.ROT>
7

>  <SCORE.INTER.SOLV>
15.1113

>  <SCORE.INTER.VDW>
-21.6186

>  <SCORE.INTER.norm>
-0.461935

>  <SCORE.INTRA>
-1.2663

>  <SCORE.INTRA.DIHEDRAL>
0.743268

>  <SCORE.INTRA.DIHEDRAL.0>
4.28829

>  <SCORE.INTRA.POLAR>
0

>  <SCORE.INTRA.POLAR.0>
0

>  <SCORE.INTRA.REPUL>
0

>  <SCORE.INTRA.REPUL.0>
0

>  <SCORE.INTRA.SOLV>
-1.20636

>  <SCORE.INTRA.SOLV.lig_0>
-48.6018

>  <SCORE.INTRA.VDW>
-1.03475

>  <SCORE.INTRA.VDW.0>
-2.1506

>  <SCORE.INTRA.norm>
-0.0469

>  <SCORE.RESTR>
0

>  <SCORE.RESTR.CAVITY>
0

>  <SCORE.RESTR.norm>
0

>  <SCORE.SYSTEM>
0

>  <SCORE.SYSTEM.CONST>
0

>  <SCORE.SYSTEM.DIHEDRAL>
0

>  <SCORE.SYSTEM.SOLV>
0

>  <SCORE.SYSTEM.norm>
0

>  <SCORE.heavy>
27

>  <SCORE.norm>
-0.508835

>  <RMSD>
5.328

$$$$
ligand
 OpenBabel11021811483D
libRbt.so/2013.1/901 2013/11/27
 27 29  0  0  0  0  0  0  0  0999 V2000
   17.3237   -8.5994    6.5338 N   0  0  0  0  0  0  0  0  0  0  0  0
   15.8985   -8.4475    6.8330 C   0  0  2  0  0  0  0  0  0  0  0  0
   15.4721   -8.8378    8.2503 C   0  0  0  0  0  0  0  0  0  0  0  0
   15.9053   -9.8835    8.7325 O   0  0  0  0  0  0  0  0  0  0  0  0
   15.0468   -9.1687    5.8018 C   0  0  0  0  0  0  0  0  0  0  0  0
   13.5656   -8.9172    6.0261 C   0  0  0  0  0  0  0  0  0  0  0  0
   13.0333   -7.4320    5.1567 S   0  0  2  0  0  0  0  0  0  0  0  0
   13.6445   -7.8035    3.4992 C   0  0  0  0  0  0  0  0  0  0  0  0
   14.3046   -6.2632    5.6917 C   0  0  0  0  0  0  0  0  0  0  0  0
   13.6944   -5.1298    6.4954 C   0  0  1  0  0  0  0  0  0  0  0  0
   12.8715   -5.6357    7.5216 O   0  0  0  0  0  0  0  0  0  0  0  0
   14.7356   -4.2859    7.2041 C   0  0  1  0  0  0  0  0  0  0  0  0
   15.0674   -3.2017    6.3738 O   0  0  0  0  0  0  0  0  0  0  0  0
   14.0199   -3.8158    8.4543 C   0  0  1  0  0  0  0  0  0  0  0  0
   13.5810   -2.4971    8.2170 O   0  0  0  0  0  0  0  0  0  0  0  0
   12.8285   -4.7592    8.6337 C   0  0  2  0  0  0  0  0  0  0  0  0
   14.7062   -8.1525    8.9333 O   0  0  0  0  0  0  0  0  0  0  0  0
   15.1747   -5.1789   13.2961 N   0  0  0  0  0  0  0  0  0  0  0  0
   15.2375   -4.1291   12.4122 C   0  0  0  0  0  0  0  0  0  0  0  0
   14.5450   -4.2069   11.2239 N   0  0  0  0  0  0  0  0  0  0  0  0
   13.8045   -5.2953   10.9161 C   0  0  0  0  0  0  0  0  0  0  0  0
   13.7203   -6.3574   11.8047 C   0  0  0  0  0  0  0  0  0  0  0  0
   14.4234   -6.2979   13.0061 C   0  0  0  0  0  0  0  0  0  0  0  0
   14.3730   -7.3011   13.8829 N   0  0  0  0  0  0  0  0  0  0  0  0
   12.9137   -7.3003   11.2529 N   0  0  0  0  0  0  0  0  0  0  0  0
   12.4846   -6.8414   10.0546 C   0  0  0  0  0  0  0  0  0  0  0  0
   13.0218   -5.5971    9.8340 N   0  0  0  0  0  0  0  0  0  0  0  0
  2  1  1  6  0  0  0
  2  3  1  0  0  0  0
  2  5  1  0  0  0  0
  3  4  1  0  0  0  0
  3 17  1  0  0  0  0
  5  6  1  0  0  0  0
  7  6  1  1  0  0  0
  7  8  1  0  0  0  0
  7  9  1  0  0  0  0
 10  9  1  1  0  0  0
 10 11  1  0  0  0  0
 10 12  1  0  0  0  0
 11 16  1  0  0  0  0
 12 13  1  6  0  0  0
 12 14  1  0  0  0  0
 14 15  1  6  0  0  0
 14 16  1  0  0  0  0
 16 27  1  1  0  0  0
 18 19  2  0  0  0  0
 18 23  1  0  0  0  0
 19 20  1  0  0  0  0
 20 21  2  0  0  0  0
 21 22  1  0  0  0  0
 21 27  1  0  0  0  0
 22 23  2  0  0  0  0
 22 25  1  0  0  0  0
 23 24  1  0  0  0  0
 25 26  2  0  0  0  0
 26 27  1  0  0  0  0
M  END
>  <CHROM.1>
-44.85400335,-174.88108581,88.15187925,52.48158058,-116.78615058,50.77357244
137.72389078,14.22188858,-6.40308853,8.48602425,-1.53631428,-1.32259938,1.29262122

>  <Name>
ligand

>  <RI>
0

>  <Rbt.Current_Directory>
/home/itssahil/PROJECTS/Mol_Feturizer/New_Systems/rnas/3GX5

>  <Rbt.Executable>
rbdock ($Id: //depot/dev/client3/rdock/2013.1/src/exe/rbdock.cxx#4 $)

>  <Rbt.Library>
libRbt.so (2013.1, Build901 2013/11/27)

>  <Rbt.Parameter_File>
/export/apps/rDock/src/rDock_2013.1_src/data/scripts/dock_solv.prm

>  <Rbt.Receptor>
prm/pocket_docking_4.prm

>  <SCORE>
-11.654

>  <SCORE.INTER>
-16.0501

>  <SCORE.INTER.CONST>
1

>  <SCORE.INTER.POLAR>
0

>  <SCORE.INTER.ROT>
7

>  <SCORE.INTER.SOLV>
11.795

>  <SCORE.INTER.VDW>
-22.8984

>  <SCORE.INTER.norm>
-0.594449

>  <SCORE.INTRA>
4.39608

>  <SCORE.INTRA.DIHEDRAL>
5.94235

>  <SCORE.INTRA.DIHEDRAL.0>
4.28829

>  <SCORE.INTRA.POLAR>
0

>  <SCORE.INTRA.POLAR.0>
0

>  <SCORE.INTRA.REPUL>
0

>  <SCORE.INTRA.REPUL.0>
0

>  <SCORE.INTRA.SOLV>
-0.442734

>  <SCORE.INTRA.SOLV.lig_0>
-48.6018

>  <SCORE.INTRA.VDW>
1.64627

>  <SCORE.INTRA.VDW.0>
-2.1506

>  <SCORE.INTRA.norm>
0.162818

>  <SCORE.RESTR>
0

>  <SCORE.RESTR.CAVITY>
0

>  <SCORE.RESTR.norm>
0

>  <SCORE.SYSTEM>
0

>  <SCORE.SYSTEM.CONST>
0

>  <SCORE.SYSTEM.DIHEDRAL>
0

>  <SCORE.SYSTEM.SOLV>
0

>  <SCORE.SYSTEM.norm>
0

>  <SCORE.heavy>
27

>  <SCORE.norm>
-0.431631

>  <RMSD>
5.333

$$$$
ligand
 OpenBabel11021811483D
libRbt.so/2013.1/901 2013/11/27
 27 29  0  0  0  0  0  0  0  0999 V2000
   15.1728   -5.1228    8.9978 N   0  0  0  0  0  0  0  0  0  0  0  0
   15.6133   -4.1610    7.9854 C   0  0  2  0  0  0  0  0  0  0  0  0
   14.5550   -3.1601    7.5153 C   0  0  0  0  0  0  0  0  0  0  0  0
   14.8803   -1.9840    7.3583 O   0  0  0  0  0  0  0  0  0  0  0  0
   16.2411   -4.8713    6.7979 C   0  0  0  0  0  0  0  0  0  0  0  0
   17.6341   -5.3814    7.1247 C   0  0  0  0  0  0  0  0  0  0  0  0
   17.5480   -6.8189    8.2070 S   0  0  2  0  0  0  0  0  0  0  0  0
   19.0535   -6.5743    9.1728 C   0  0  0  0  0  0  0  0  0  0  0  0
   18.1190   -8.1135    7.0815 C   0  0  0  0  0  0  0  0  0  0  0  0
   16.9449   -8.8460    6.4586 C   0  0  1  0  0  0  0  0  0  0  0  0
   16.1210   -9.4030    7.4571 O   0  0  0  0  0  0  0  0  0  0  0  0
   16.0365   -7.9294    5.6631 C   0  0  1  0  0  0  0  0  0  0  0  0
   16.4538   -7.9473    4.3213 O   0  0  0  0  0  0  0  0  0  0  0  0
   14.6692   -8.5641    5.8171 C   0  0  1  0  0  0  0  0  0  0  0  0
   14.4141   -9.3033    4.6439 O   0  0  0  0  0  0  0  0  0  0  0  0
   14.7732   -9.4916    7.0297 C   0  0  2  0  0  0  0  0  0  0  0  0
   13.3840   -3.4777    7.2905 O   0  0  0  0  0  0  0  0  0  0  0  0
   13.5087   -9.9704   12.0884 N   0  0  0  0  0  0  0  0  0  0  0  0
   14.4280  -10.7019   11.3764 C   0  0  0  0  0  0  0  0  0  0  0  0
   14.6200  -10.4251   10.0406 N   0  0  0  0  0  0  0  0  0  0  0  0
   13.9224   -9.4461    9.4221 C   0  0  0  0  0  0  0  0  0  0  0  0
   13.0007   -8.6898   10.1313 C   0  0  0  0  0  0  0  0  0  0  0  0
   12.7878   -8.9646   11.4805 C   0  0  0  0  0  0  0  0  0  0  0  0
   11.9059   -8.2643   12.1944 N   0  0  0  0  0  0  0  0  0  0  0  0
   12.4589   -7.7835    9.2772 N   0  0  0  0  0  0  0  0  0  0  0  0
   13.0337   -7.9495    8.0637 C   0  0  0  0  0  0  0  0  0  0  0  0
   13.9482   -8.9712    8.1381 N   0  0  0  0  0  0  0  0  0  0  0  0
  2  1  1  1  0  0  0
  2  3  1  0  0  0  0
  2  5  1  0  0  0  0
  3  4  1  0  0  0  0
  3 17  1  0  0  0  0
  5  6  1  0  0  0  0
  7  6  1  6  0  0  0
  7  8  1  0  0  0  0
  7  9  1  0  0  0  0
 10  9  1  1  0  0  0
 10 11  1  0  0  0  0
 10 12  1  0  0  0  0
 11 16  1  0  0  0  0
 12 13  1  6  0  0  0
 12 14  1  0  0  0  0
 14 15  1  6  0  0  0
 14 16  1  0  0  0  0
 16 27  1  1  0  0  0
 18 19  2  0  0  0  0
 18 23  1  0  0  0  0
 19 20  1  0  0  0  0
 20 21  2  0  0  0  0
 21 22  1  0  0  0  0
 21 27  1  0  0  0  0
 22 23  2  0  0  0  0
 22 25  1  0  0  0  0
 23 24  1  0  0  0  0
 25 26  2  0  0  0  0
 26 27  1  0  0  0  0
M  END
>  <CHROM.1>
137.99186419,-74.98560677,73.55868157,-147.04486130,-96.91202043,-57.60721522
-57.88275913,15.17295745,-7.40799224,8.11791810,0.81661979,0.87538426,-0.06530614

>  <Name>
ligand

>  <RI>
0

>  <Rbt.Current_Directory>
/home/itssahil/PROJECTS/Mol_Feturizer/New_Systems/rnas/3GX5

>  <Rbt.Executable>
rbdock ($Id: //depot/dev/client3/rdock/2013.1/src/exe/rbdock.cxx#4 $)

>  <Rbt.Library>
libRbt.so (2013.1, Build901 2013/11/27)

>  <Rbt.Parameter_File>
/export/apps/rDock/src/rDock_2013.1_src/data/scripts/dock_solv.prm

>  <Rbt.Receptor>
prm/pocket_docking_4.prm

>  <SCORE>
-8.68822

>  <SCORE.INTER>
-11.1079

>  <SCORE.INTER.CONST>
1

>  <SCORE.INTER.POLAR>
0

>  <SCORE.INTER.ROT>
7

>  <SCORE.INTER.SOLV>
5.246

>  <SCORE.INTER.VDW>
-17.4206

>  <SCORE.INTER.norm>
-0.411402

>  <SCORE.INTRA>
2.41561

>  <SCORE.INTRA.DIHEDRAL>
6.00021

>  <SCORE.INTRA.DIHEDRAL.0>
4.28829

>  <SCORE.INTRA.POLAR>
0

>  <SCORE.INTRA.POLAR.0>
0

>  <SCORE.INTRA.REPUL>
0

>  <SCORE.INTRA.REPUL.0>
0

>  <SCORE.INTRA.SOLV>
1.79354

>  <SCORE.INTRA.SOLV.lig_0>
-48.6018

>  <SCORE.INTRA.VDW>
-1.48126

>  <SCORE.INTRA.VDW.0>
-2.1506

>  <SCORE.INTRA.norm>
0.0894671

>  <SCORE.RESTR>
0.00402672

>  <SCORE.RESTR.CAVITY>
0.00402672

>  <SCORE.RESTR.norm>
0.000149138

>  <SCORE.SYSTEM>
0

>  <SCORE.SYSTEM.CONST>
0

>  <SCORE.SYSTEM.DIHEDRAL>
0

>  <SCORE.SYSTEM.SOLV>
0

>  <SCORE.SYSTEM.norm>
0

>  <SCORE.heavy>
27

>  <SCORE.norm>
-0.321786

>  <RMSD>
5.342

$$$$
ligand
 OpenBabel11021811483D
libRbt.so/2013.1/901 2013/11/27
 27 29  0  0  0  0  0  0  0  0999 V2000
   11.9468  -11.3516   13.4226 N   0  0  0  0  0  0  0  0  0  0  0  0
   12.1570  -10.7266   12.1153 C   0  0  2  0  0  0  0  0  0  0  0  0
   13.6152  -10.5943   11.6691 C   0  0  0  0  0  0  0  0  0  0  0  0
   14.4335  -10.1158   12.4533 O   0  0  0  0  0  0  0  0  0  0  0  0
   11.4502   -9.3839   12.0349 C   0  0  0  0  0  0  0  0  0  0  0  0
   11.4816   -8.8197   10.6249 C   0  0  0  0  0  0  0  0  0  0  0  0
   12.9992   -7.8904   10.3448 S   0  0  2  0  0  0  0  0  0  0  0  0
   12.7625   -6.5422   11.5218 C   0  0  0  0  0  0  0  0  0  0  0  0
   12.5800   -7.0290    8.8115 C   0  0  0  0  0  0  0  0  0  0  0  0
   13.6795   -6.0603    8.4167 C   0  0  1  0  0  0  0  0  0  0  0  0
   14.8354   -6.7587    8.0138 O   0  0  0  0  0  0  0  0  0  0  0  0
   13.3037   -5.1993    7.2269 C   0  0  1  0  0  0  0  0  0  0  0  0
   12.7465   -4.0011    7.7053 O   0  0  0  0  0  0  0  0  0  0  0  0
   14.6300   -4.9469    6.5388 C   0  0  1  0  0  0  0  0  0  0  0  0
   15.0647   -3.6615    6.9220 O   0  0  0  0  0  0  0  0  0  0  0  0
   15.5848   -6.0207    7.0647 C   0  0  2  0  0  0  0  0  0  0  0  0
   14.0094  -10.9414   10.5525 O   0  0  0  0  0  0  0  0  0  0  0  0
   13.8302   -8.7205    2.9355 N   0  0  0  0  0  0  0  0  0  0  0  0
   13.1272   -7.8538    3.7365 C   0  0  0  0  0  0  0  0  0  0  0  0
   13.7701   -7.2347    4.7858 N   0  0  0  0  0  0  0  0  0  0  0  0
   15.0785   -7.4636    5.0372 C   0  0  0  0  0  0  0  0  0  0  0  0
   15.8051   -8.3255    4.2286 C   0  0  0  0  0  0  0  0  0  0  0  0
   15.1663   -8.9672    3.1696 C   0  0  0  0  0  0  0  0  0  0  0  0
   15.8287   -9.8076    2.3743 N   0  0  0  0  0  0  0  0  0  0  0  0
   17.0793   -8.3627    4.6970 N   0  0  0  0  0  0  0  0  0  0  0  0
   17.1625   -7.5338    5.7631 C   0  0  0  0  0  0  0  0  0  0  0  0
   15.9330   -6.9632    5.9829 N   0  0  0  0  0  0  0  0  0  0  0  0
  2  1  1  1  0  0  0
  2  3  1  0  0  0  0
  2  5  1  0  0  0  0
  3  4  1  0  0  0  0
  3 17  1  0  0  0  0
  5  6  1  0  0  0  0
  7  6  1  1  0  0  0
  7  8  1  0  0  0  0
  7  9  1  0  0  0  0
 10  9  1  6  0  0  0
 10 11  1  0  0  0  0
 10 12  1  0  0  0  0
 11 16  1  0  0  0  0
 12 13  1  1  0  0  0
 12 14  1  0  0  0  0
 14 15  1  1  0  0  0
 14 16  1  0  0  0  0
 16 27  1  6  0  0  0
 18 19  2  0  0  0  0
 18 23  1  0  0  0  0
 19 20  1  0  0  0  0
 20 21  2  0  0  0  0
 21 22  1  0  0  0  0
 21 27  1  0  0  0  0
 22 23  2  0  0  0  0
 22 25  1  0  0  0  0
 23 24  1  0  0  0  0
 25 26  2  0  0  0  0
 26 27  1  0  0  0  0
M  END
>  <CHROM.1>
-49.14227299,-171.44999905,-86.19295706,-64.83844454,174.98951904,69.26456130
73.04399831,14.00082694,-7.80240878,7.93539448,-2.65365184,1.20869934,-0.23327049

>  <Name>
ligand

>  <RI>
0

>  <Rbt.Current_Directory>
/home/itssahil/PROJECTS/Mol_Feturizer/New_Systems/rnas/3GX5

>  <Rbt.Executable>
rbdock ($Id: //depot/dev/client3/rdock/2013.1/src/exe/rbdock.cxx#4 $)

>  <Rbt.Library>
libRbt.so (2013.1, Build901 2013/11/27)

>  <Rbt.Parameter_File>
/export/apps/rDock/src/rDock_2013.1_src/data/scripts/dock_solv.prm

>  <Rbt.Receptor>
prm/pocket_docking_5.prm

>  <SCORE>
-13.2168

>  <SCORE.INTER>
-13.2124

>  <SCORE.INTER.CONST>
1

>  <SCORE.INTER.POLAR>
0

>  <SCORE.INTER.ROT>
7

>  <SCORE.INTER.SOLV>
14.8564

>  <SCORE.INTER.VDW>
-22.0271

>  <SCORE.INTER.norm>
-0.489349

>  <SCORE.INTRA>
-0.00435626

>  <SCORE.INTRA.DIHEDRAL>
1.95884

>  <SCORE.INTRA.DIHEDRAL.0>
4.28829

>  <SCORE.INTRA.POLAR>
0

>  <SCORE.INTRA.POLAR.0>
0

>  <SCORE.INTRA.REPUL>
0

>  <SCORE.INTRA.REPUL.0>
0

>  <SCORE.INTRA.SOLV>
-1.13894

>  <SCORE.INTRA.SOLV.lig_0>
-48.6018

>  <SCORE.INTRA.VDW>
-0.414309

>  <SCORE.INTRA.VDW.0>
-2.1506

>  <SCORE.INTRA.norm>
-0.000161343

>  <SCORE.RESTR>
0

>  <SCORE.RESTR.CAVITY>
0

>  <SCORE.RESTR.norm>
0

>  <SCORE.SYSTEM>
0

>  <SCORE.SYSTEM.CONST>
0

>  <SCORE.SYSTEM.DIHEDRAL>
0

>  <SCORE.SYSTEM.SOLV>
0

>  <SCORE.SYSTEM.norm>
0

>  <SCORE.heavy>
27

>  <SCORE.norm>
-0.48951

>  <RMSD>
5.347

$$$$
ligand
 OpenBabel11021811483D
libRbt.so/2013.1/901 2013/11/27
 27 29  0  0  0  0  0  0  0  0999 V2000
   17.4229   -5.7241   10.5026 N   0  0  0  0  0  0  0  0  0  0  0  0
   16.0233   -5.5805   10.0973 C   0  0  2  0  0  0  0  0  0  0  0  0
   15.0824   -6.6994   10.5506 C   0  0  0  0  0  0  0  0  0  0  0  0
   15.4465   -7.4495   11.4553 O   0  0  0  0  0  0  0  0  0  0  0  0
   15.9114   -5.3637    8.5975 C   0  0  0  0  0  0  0  0  0  0  0  0
   14.5489   -4.8134    8.2128 C   0  0  0  0  0  0  0  0  0  0  0  0
   14.4716   -4.4847    6.4433 S   0  0  2  0  0  0  0  0  0  0  0  0
   13.2763   -3.1319    6.4281 C   0  0  0  0  0  0  0  0  0  0  0  0
   13.4016   -5.8382    5.9030 C   0  0  0  0  0  0  0  0  0  0  0  0
   14.1791   -7.1379    5.8076 C   0  0  1  0  0  0  0  0  0  0  0  0
   14.6514   -7.5283    7.0768 O   0  0  0  0  0  0  0  0  0  0  0  0
   13.3276   -8.2975    5.3295 C   0  0  1  0  0  0  0  0  0  0  0  0
   13.4552   -8.3950    3.9333 O   0  0  0  0  0  0  0  0  0  0  0  0
   13.9443   -9.4981    6.0181 C   0  0  1  0  0  0  0  0  0  0  0  0
   14.7754  -10.1412    5.0781 O   0  0  0  0  0  0  0  0  0  0  0  0
   14.7709   -8.9364    7.1769 C   0  0  2  0  0  0  0  0  0  0  0  0
   13.9728   -6.8890   10.0450 O   0  0  0  0  0  0  0  0  0  0  0  0
   15.6504  -10.4899   12.0994 N   0  0  0  0  0  0  0  0  0  0  0  0
   16.5780  -10.1875   11.1324 C   0  0  0  0  0  0  0  0  0  0  0  0
   16.1464   -9.7949    9.8845 N   0  0  0  0  0  0  0  0  0  0  0  0
   14.8286   -9.6999    9.5983 C   0  0  0  0  0  0  0  0  0  0  0  0
   13.8801   -9.9886   10.5686 C   0  0  0  0  0  0  0  0  0  0  0  0
   14.3009  -10.3970   11.8325 C   0  0  0  0  0  0  0  0  0  0  0  0
   13.4200  -10.6896   12.7896 N   0  0  0  0  0  0  0  0  0  0  0  0
   12.6518   -9.8044   10.0196 N   0  0  0  0  0  0  0  0  0  0  0  0
   12.8171   -9.3938    8.7411 C   0  0  0  0  0  0  0  0  0  0  0  0
   14.1603   -9.3170    8.4663 N   0  0  0  0  0  0  0  0  0  0  0  0
  2  1  1  6  0  0  0
  2  3  1  0  0  0  0
  2  5  1  0  0  0  0
  3  4  1  0  0  0  0
  3 17  1  0  0  0  0
  5  6  1  0  0  0  0
  7  6  1  1  0  0  0
  7  8  1  0  0  0  0
  7  9  1  0  0  0  0
 10  9  1  1  0  0  0
 10 11  1  0  0  0  0
 10 12  1  0  0  0  0
 11 16  1  0  0  0  0
 12 13  1  6  0  0  0
 12 14  1  0  0  0  0
 14 15  1  6  0  0  0
 14 16  1  0  0  0  0
 16 27  1  1  0  0  0
 18 19  2  0  0  0  0
 18 23  1  0  0  0  0
 19 20  1  0  0  0  0
 20 21  2  0  0  0  0
 21 22  1  0  0  0  0
 21 27  1  0  0  0  0
 22 23  2  0  0  0  0
 22 25  1  0  0  0  0
 23 24  1  0  0  0  0
 25 26  2  0  0  0  0
 26 27  1  0  0  0  0
M  END
>  <CHROM.1>
16.98041629,-163.24558323,177.04282691,-151.06046865,-78.59837749,63.81790280
-105.76477827,14.54985496,-7.77307681,8.49008954,-1.18016294,-1.25598196
-0.57125649

>  <Name>
ligand

>  <RI>
0

>  <Rbt.Current_Directory>
/home/itssahil/PROJECTS/Mol_Feturizer/New_Systems/rnas/3GX5

>  <Rbt.Executable>
rbdock ($Id: //depot/dev/client3/rdock/2013.1/src/exe/rbdock.cxx#4 $)

>  <Rbt.Library>
libRbt.so (2013.1, Build901 2013/11/27)

>  <Rbt.Parameter_File>
/export/apps/rDock/src/rDock_2013.1_src/data/scripts/dock_solv.prm

>  <Rbt.Receptor>
prm/pocket_docking_6.prm

>  <SCORE>
-13.1657

>  <SCORE.INTER>
-11.8314

>  <SCORE.INTER.CONST>
1

>  <SCORE.INTER.POLAR>
0

>  <SCORE.INTER.ROT>
7

>  <SCORE.INTER.SOLV>
10.616

>  <SCORE.INTER.VDW>
-19.6929

>  <SCORE.INTER.norm>
-0.438201

>  <SCORE.INTRA>
-1.33431

>  <SCORE.INTRA.DIHEDRAL>
3.47624

>  <SCORE.INTRA.DIHEDRAL.0>
4.28829

>  <SCORE.INTRA.POLAR>
0

>  <SCORE.INTRA.POLAR.0>
0

>  <SCORE.INTRA.REPUL>
0

>  <SCORE.INTRA.REPUL.0>
0

>  <SCORE.INTRA.SOLV>
-0.979542

>  <SCORE.INTRA.SOLV.lig_0>
-48.6018

>  <SCORE.INTRA.VDW>
-2.58266

>  <SCORE.INTRA.VDW.0>
-2.1506

>  <SCORE.INTRA.norm>
-0.0494189

>  <SCORE.RESTR>
0

>  <SCORE.RESTR.CAVITY>
0

>  <SCORE.RESTR.norm>
0

>  <SCORE.SYSTEM>
0

>  <SCORE.SYSTEM.CONST>
0

>  <SCORE.SYSTEM.DIHEDRAL>
0

>  <SCORE.SYSTEM.SOLV>
0

>  <SCORE.SYSTEM.norm>
0

>  <SCORE.heavy>
27

>  <SCORE.norm>
-0.48762

>  <RMSD>
5.347

$$$$
ligand
 OpenBabel11021811483D
libRbt.so/2013.1/901 2013/11/27
 27 29  0  0  0  0  0  0  0  0999 V2000
   17.9168   -9.1261    9.8963 N   0  0  0  0  0  0  0  0  0  0  0  0
   16.8683   -9.4153   10.8766 C   0  0  2  0  0  0  0  0  0  0  0  0
   15.5638   -9.9781   10.3073 C   0  0  0  0  0  0  0  0  0  0  0  0
   15.3659   -9.9048    9.0952 O   0  0  0  0  0  0  0  0  0  0  0  0
   16.5907   -8.2026   11.7490 C   0  0  0  0  0  0  0  0  0  0  0  0
   16.1356   -7.0122   10.9225 C   0  0  0  0  0  0  0  0  0  0  0  0
   16.1606   -5.5052   11.9092 S   0  0  2  0  0  0  0  0  0  0  0  0
   14.7074   -5.7841   12.9433 C   0  0  0  0  0  0  0  0  0  0  0  0
   15.4675   -4.3258   10.7272 C   0  0  0  0  0  0  0  0  0  0  0  0
   16.5244   -3.8622    9.7418 C   0  0  1  0  0  0  0  0  0  0  0  0
   17.0966   -4.9629    9.0730 O   0  0  0  0  0  0  0  0  0  0  0  0
   15.9580   -2.9839    8.6435 C   0  0  1  0  0  0  0  0  0  0  0  0
   16.0804   -1.6418    9.0419 O   0  0  0  0  0  0  0  0  0  0  0  0
   16.8492   -3.2831    7.4551 C   0  0  1  0  0  0  0  0  0  0  0  0
   17.7906   -2.2377    7.3616 O   0  0  0  0  0  0  0  0  0  0  0  0
   17.5423   -4.6091    7.7756 C   0  0  2  0  0  0  0  0  0  0  0  0
   14.6944  -10.4995   11.0109 O   0  0  0  0  0  0  0  0  0  0  0  0
   13.4294   -6.5516    5.1817 N   0  0  0  0  0  0  0  0  0  0  0  0
   13.4730   -5.4309    5.9749 C   0  0  0  0  0  0  0  0  0  0  0  0
   14.6598   -5.0797    6.5797 N   0  0  0  0  0  0  0  0  0  0  0  0
   15.7794   -5.8166    6.4033 C   0  0  0  0  0  0  0  0  0  0  0  0
   15.7543   -6.9432    5.5941 C   0  0  0  0  0  0  0  0  0  0  0  0
   14.5589   -7.3171    4.9837 C   0  0  0  0  0  0  0  0  0  0  0  0
   14.4928   -8.3967    4.2042 N   0  0  0  0  0  0  0  0  0  0  0  0
   17.0015   -7.4803    5.5873 N   0  0  0  0  0  0  0  0  0  0  0  0
   17.7998   -6.7058    6.3577 C   0  0  0  0  0  0  0  0  0  0  0  0
   17.0596   -5.6664    6.8651 N   0  0  0  0  0  0  0  0  0  0  0  0
  2  1  1  6  0  0  0
  2  3  1  0  0  0  0
  2  5  1  0  0  0  0
  3  4  1  0  0  0  0
  3 17  1  0  0  0  0
  5  6  1  0  0  0  0
  7  6  1  6  0  0  0
  7  8  1  0  0  0  0
  7  9  1  0  0  0  0
 10  9  1  1  0  0  0
 10 11  1  0  0  0  0
 10 12  1  0  0  0  0
 11 16  1  0  0  0  0
 12 13  1  1  0  0  0
 12 14  1  0  0  0  0
 14 15  1  1  0  0  0
 14 16  1  0  0  0  0
 16 27  1  6  0  0  0
 18 19  2  0  0  0  0
 18 23  1  0  0  0  0
 19 20  1  0  0  0  0
 20 21  2  0  0  0  0
 21 22  1  0  0  0  0
 21 27  1  0  0  0  0
 22 23  2  0  0  0  0
 22 25  1  0  0  0  0
 23 24  1  0  0  0  0
 25 26  2  0  0  0  0
 26 27  1  0  0  0  0
M  END
>  <CHROM.1>
-14.28524285,59.85503925,-167.60011147,-74.06877591,-80.25142936,56.65033215
76.50662573,15.99114564,-6.19713609,8.62243892,1.50411940,1.37652761,2.24406793

>  <Name>
ligand

>  <RI>
0

>  <Rbt.Current_Directory>
/home/itssahil/PROJECTS/Mol_Feturizer/New_Systems/rnas/3GX5

>  <Rbt.Executable>
rbdock ($Id: //depot/dev/client3/rdock/2013.1/src/exe/rbdock.cxx#4 $)

>  <Rbt.Library>
libRbt.so (2013.1, Build901 2013/11/27)

>  <Rbt.Parameter_File>
/export/apps/rDock/src/rDock_2013.1_src/data/scripts/dock_solv.prm

>  <Rbt.Receptor>
prm/pocket_docking_7.prm

>  <SCORE>
-12.9774

>  <SCORE.INTER>
-12.559

>  <SCORE.INTER.CONST>
1

>  <SCORE.INTER.POLAR>
0

>  <SCORE.INTER.ROT>
7

>  <SCORE.INTER.SOLV>
14.6268

>  <SCORE.INTER.VDW>
-21.5149

>  <SCORE.INTER.norm>
-0.465147

>  <SCORE.INTRA>
-0.418485

>  <SCORE.INTRA.DIHEDRAL>
0.138639

>  <SCORE.INTRA.DIHEDRAL.0>
4.28829

>  <SCORE.INTRA.POLAR>
0

>  <SCORE.INTRA.POLAR.0>
0

>  <SCORE.INTRA.REPUL>
0

>  <SCORE.INTRA.REPUL.0>
0

>  <SCORE.INTRA.SOLV>
-0.373724

>  <SCORE.INTRA.SOLV.lig_0>
-48.6018

>  <SCORE.INTRA.VDW>
-0.300943

>  <SCORE.INTRA.VDW.0>
-2.1506

>  <SCORE.INTRA.norm>
-0.0154994

>  <SCORE.RESTR>
0

>  <SCORE.RESTR.CAVITY>
0

>  <SCORE.RESTR.norm>
0

>  <SCORE.SYSTEM>
0

>  <SCORE.SYSTEM.CONST>
0

>  <SCORE.SYSTEM.DIHEDRAL>
0

>  <SCORE.SYSTEM.SOLV>
0

>  <SCORE.SYSTEM.norm>
0

>  <SCORE.heavy>
27

>  <SCORE.norm>
-0.480646

>  <RMSD>
5.347

$$$$
ligand
 OpenBabel11021811483D
libRbt.so/2013.1/901 2013/11/27
 27 29  0  0  0  0  0  0  0  0999 V2000
   14.3340   -3.6704    7.8219 N   0  0  0  0  0  0  0  0  0  0  0  0
   15.7873   -3.7228    7.9920 C   0  0  2  0  0  0  0  0  0  0  0  0
   16.4999   -2.3690    8.0392 C   0  0  0  0  0  0  0  0  0  0  0  0
   15.9177   -1.4104    8.5452 O   0  0  0  0  0  0  0  0  0  0  0  0
   16.4243   -4.6252    6.9485 C   0  0  0  0  0  0  0  0  0  0  0  0
   17.7706   -5.1532    7.4135 C   0  0  0  0  0  0  0  0  0  0  0  0
   17.5609   -6.6315    8.4215 S   0  0  2  0  0  0  0  0  0  0  0  0
   19.0044   -6.4851    9.4958 C   0  0  0  0  0  0  0  0  0  0  0  0
   18.1625   -7.8973    7.2793 C   0  0  0  0  0  0  0  0  0  0  0  0
   17.0064   -8.6589    6.6576 C   0  0  1  0  0  0  0  0  0  0  0  0
   16.2616   -9.3276    7.6497 O   0  0  0  0  0  0  0  0  0  0  0  0
   16.0116   -7.7507    5.9621 C   0  0  1  0  0  0  0  0  0  0  0  0
   16.3690   -7.6577    4.6061 O   0  0  0  0  0  0  0  0  0  0  0  0
   14.6919   -8.4762    6.1293 C   0  0  1  0  0  0  0  0  0  0  0  0
   14.4282   -9.1535    4.9211 O   0  0  0  0  0  0  0  0  0  0  0  0
   14.9036   -9.4709    7.2726 C   0  0  2  0  0  0  0  0  0  0  0  0
   17.6340   -2.1915    7.5864 O   0  0  0  0  0  0  0  0  0  0  0  0
   14.3322   -9.8438   12.4642 N   0  0  0  0  0  0  0  0  0  0  0  0
   15.3194  -10.3939   11.6831 C   0  0  0  0  0  0  0  0  0  0  0  0
   15.2973  -10.1825   10.3220 N   0  0  0  0  0  0  0  0  0  0  0  0
   14.3243   -9.4422    9.7450 C   0  0  0  0  0  0  0  0  0  0  0  0
   13.3286   -8.8687   10.5224 C   0  0  0  0  0  0  0  0  0  0  0  0
   13.3315   -9.0820   11.8993 C   0  0  0  0  0  0  0  0  0  0  0  0
   12.3882   -8.5533   12.6792 N   0  0  0  0  0  0  0  0  0  0  0  0
   12.4986   -8.1807    9.6967 N   0  0  0  0  0  0  0  0  0  0  0  0
   12.9649   -8.3005    8.4322 C   0  0  0  0  0  0  0  0  0  0  0  0
   14.0999   -9.0734    8.4457 N   0  0  0  0  0  0  0  0  0  0  0  0
  2  1  1  6  0  0  0
  2  3  1  0  0  0  0
  2  5  1  0  0  0  0
  3  4  1  0  0  0  0
  3 17  1  0  0  0  0
  5  6  1  0  0  0  0
  7  6  1  6  0  0  0
  7  8  1  0  0  0  0
  7  9  1  0  0  0  0
 10  9  1  1  0  0  0
 10 11  1  0  0  0  0
 10 12  1  0  0  0  0
 11 16  1  0  0  0  0
 12 13  1  6  0  0  0
 12 14  1  0  0  0  0
 14 15  1  6  0  0  0
 14 16  1  0  0  0  0
 16 27  1  1  0  0  0
 18 19  2  0  0  0  0
 18 23  1  0  0  0  0
 19 20  1  0  0  0  0
 20 21  2  0  0  0  0
 21 22  1  0  0  0  0
 21 27  1  0  0  0  0
 22 23  2  0  0  0  0
 22 25  1  0  0  0  0
 23 24  1  0  0  0  0
 25 26  2  0  0  0  0
 26 27  1  0  0  0  0
M  END
>  <CHROM.1>
33.45873339,-156.46501180,85.00991660,-150.43588663,-102.97542632,-61.73137836
-44.61840286,15.58913961,-7.18549600,8.39453448,0.53271717,1.07064959,0.50484656

>  <Name>
ligand

>  <RI>
0

>  <Rbt.Current_Directory>
/home/itssahil/PROJECTS/Mol_Feturizer/New_Systems/rnas/3GX5

>  <Rbt.Executable>
rbdock ($Id: //depot/dev/client3/rdock/2013.1/src/exe/rbdock.cxx#4 $)

>  <Rbt.Library>
libRbt.so (2013.1, Build901 2013/11/27)

>  <Rbt.Parameter_File>
/export/apps/rDock/src/rDock_2013.1_src/data/scripts/dock_solv.prm

>  <Rbt.Receptor>
prm/pocket_docking_4.prm

>  <SCORE>
-7.60113

>  <SCORE.INTER>
-11.1501

>  <SCORE.INTER.CONST>
1

>  <SCORE.INTER.POLAR>
0

>  <SCORE.INTER.ROT>
7

>  <SCORE.INTER.SOLV>
6.29887

>  <SCORE.INTER.VDW>
-17.7997

>  <SCORE.INTER.norm>
-0.412968

>  <SCORE.INTRA>
3.549

>  <SCORE.INTRA.DIHEDRAL>
8.53922

>  <SCORE.INTRA.DIHEDRAL.0>
4.28829

>  <SCORE.INTRA.POLAR>
0

>  <SCORE.INTRA.POLAR.0>
0

>  <SCORE.INTRA.REPUL>
0

>  <SCORE.INTRA.REPUL.0>
0

>  <SCORE.INTRA.SOLV>
-0.641849

>  <SCORE.INTRA.SOLV.lig_0>
-48.6018

>  <SCORE.INTRA.VDW>
-0.399687

>  <SCORE.INTRA.VDW.0>
-2.1506

>  <SCORE.INTRA.norm>
0.131444

>  <SCORE.RESTR>
0

>  <SCORE.RESTR.CAVITY>
0

>  <SCORE.RESTR.norm>
0

>  <SCORE.SYSTEM>
0

>  <SCORE.SYSTEM.CONST>
0

>  <SCORE.SYSTEM.DIHEDRAL>
0

>  <SCORE.SYSTEM.SOLV>
0

>  <SCORE.SYSTEM.norm>
0

>  <SCORE.heavy>
27

>  <SCORE.norm>
-0.281523

>  <RMSD>
5.370

$$$$
ligand
 OpenBabel11021811483D
libRbt.so/2013.1/901 2013/11/27
 27 29  0  0  0  0  0  0  0  0999 V2000
   11.4066   -7.7784   13.2824 N   0  0  0  0  0  0  0  0  0  0  0  0
   11.5276   -7.6204   11.8318 C   0  0  2  0  0  0  0  0  0  0  0  0
   10.9497   -8.7600   10.9891 C   0  0  0  0  0  0  0  0  0  0  0  0
   10.0191   -9.4222   11.4466 O   0  0  0  0  0  0  0  0  0  0  0  0
   12.9669   -7.3393   11.4340 C   0  0  0  0  0  0  0  0  0  0  0  0
   13.5054   -6.0987   12.1257 C   0  0  0  0  0  0  0  0  0  0  0  0
   15.1417   -5.6802   11.4992 S   0  0  2  0  0  0  0  0  0  0  0  0
   15.5824   -4.3506   12.6382 C   0  0  0  0  0  0  0  0  0  0  0  0
   14.6977   -4.6985   10.0474 C   0  0  0  0  0  0  0  0  0  0  0  0
   15.9346   -4.1159    9.3888 C   0  0  1  0  0  0  0  0  0  0  0  0
   16.7741   -5.1429    8.9129 O   0  0  0  0  0  0  0  0  0  0  0  0
   15.6096   -3.2750    8.1700 C   0  0  1  0  0  0  0  0  0  0  0  0
   15.4851   -1.9353    8.5762 O   0  0  0  0  0  0  0  0  0  0  0  0
   16.8188   -3.4634    7.2765 C   0  0  1  0  0  0  0  0  0  0  0  0
   17.6422   -2.3304    7.4386 O   0  0  0  0  0  0  0  0  0  0  0  0
   17.5233   -4.7224    7.7864 C   0  0  2  0  0  0  0  0  0  0  0  0
   11.3790   -9.0509    9.8693 O   0  0  0  0  0  0  0  0  0  0  0  0
   14.3047   -7.4885    4.7193 N   0  0  0  0  0  0  0  0  0  0  0  0
   13.9826   -6.4533    5.5629 C   0  0  0  0  0  0  0  0  0  0  0  0
   14.9790   -5.8467    6.2956 N   0  0  0  0  0  0  0  0  0  0  0  0
   16.2652   -6.2508    6.1958 C   0  0  0  0  0  0  0  0  0  0  0  0
   16.6080   -7.2856    5.3377 C   0  0  0  0  0  0  0  0  0  0  0  0
   15.6099   -7.9160    4.5976 C   0  0  0  0  0  0  0  0  0  0  0  0
   15.8984   -8.9184    3.7673 N   0  0  0  0  0  0  0  0  0  0  0  0
   17.9496   -7.4757    5.4281 N   0  0  0  0  0  0  0  0  0  0  0  0
   18.4464   -6.5748    6.3067 C   0  0  0  0  0  0  0  0  0  0  0  0
   17.4166   -5.8033    6.7863 N   0  0  0  0  0  0  0  0  0  0  0  0
  2  1  1  1  0  0  0
  2  3  1  0  0  0  0
  2  5  1  0  0  0  0
  3  4  1  0  0  0  0
  3 17  1  0  0  0  0
  5  6  1  0  0  0  0
  7  6  1  1  0  0  0
  7  8  1  0  0  0  0
  7  9  1  0  0  0  0
 10  9  1  6  0  0  0
 10 11  1  0  0  0  0
 10 12  1  0  0  0  0
 11 16  1  0  0  0  0
 12 13  1  1  0  0  0
 12 14  1  0  0  0  0
 14 15  1  1  0  0  0
 14 16  1  0  0  0  0
 16 27  1  6  0  0  0
 18 19  2  0  0  0  0
 18 23  1  0  0  0  0
 19 20  1  0  0  0  0
 20 21  2  0  0  0  0
 21 22  1  0  0  0  0
 21 27  1  0  0  0  0
 22 23  2  0  0  0  0
 22 25  1  0  0  0  0
 23 24  1  0  0  0  0
 25 26  2  0  0  0  0
 26 27  1  0  0  0  0
M  END
>  <CHROM.1>
27.88251227,-57.60480323,-173.58044234,-172.78303435,175.26271000,63.02957492
61.69337686,14.95270986,-6.08651648,8.66137831,2.63431370,0.78627647,0.98513686

>  <Name>
ligand

>  <RI>
0

>  <Rbt.Current_Directory>
/home/itssahil/PROJECTS/Mol_Feturizer/New_Systems/rnas/3GX5

>  <Rbt.Executable>
rbdock ($Id: //depot/dev/client3/rdock/2013.1/src/exe/rbdock.cxx#4 $)

>  <Rbt.Library>
libRbt.so (2013.1, Build901 2013/11/27)

>  <Rbt.Parameter_File>
/export/apps/rDock/src/rDock_2013.1_src/data/scripts/dock_solv.prm

>  <Rbt.Receptor>
prm/pocket_docking_4.prm

>  <SCORE>
-14.5524

>  <SCORE.INTER>
-14.235

>  <SCORE.INTER.CONST>
1

>  <SCORE.INTER.POLAR>
0

>  <SCORE.INTER.ROT>
7

>  <SCORE.INTER.SOLV>
14.3689

>  <SCORE.INTER.VDW>
-22.5463

>  <SCORE.INTER.norm>
-0.527221

>  <SCORE.INTRA>
-0.35559

>  <SCORE.INTRA.DIHEDRAL>
0.147588

>  <SCORE.INTRA.DIHEDRAL.0>
4.28829

>  <SCORE.INTRA.POLAR>
0

>  <SCORE.INTRA.POLAR.0>
0

>  <SCORE.INTRA.REPUL>
0

>  <SCORE.INTRA.REPUL.0>
0

>  <SCORE.INTRA.SOLV>
-0.525001

>  <SCORE.INTRA.SOLV.lig_0>
-48.6018

>  <SCORE.INTRA.VDW>
-0.166884

>  <SCORE.INTRA.VDW.0>
-2.1506

>  <SCORE.INTRA.norm>
-0.01317

>  <SCORE.RESTR>
0.038187

>  <SCORE.RESTR.CAVITY>
0.038187

>  <SCORE.RESTR.norm>
0.00141433

>  <SCORE.SYSTEM>
0

>  <SCORE.SYSTEM.CONST>
0

>  <SCORE.SYSTEM.DIHEDRAL>
0

>  <SCORE.SYSTEM.SOLV>
0

>  <SCORE.SYSTEM.norm>
0

>  <SCORE.heavy>
27

>  <SCORE.norm>
-0.538977

>  <RMSD>
5.373

$$$$
ligand
 OpenBabel11021811483D
libRbt.so/2013.1/901 2013/11/27
 27 29  0  0  0  0  0  0  0  0999 V2000
   11.3546   -7.5482   13.3577 N   0  0  0  0  0  0  0  0  0  0  0  0
   11.4257   -7.5991   11.8961 C   0  0  2  0  0  0  0  0  0  0  0  0
   10.9265   -8.8945   11.2516 C   0  0  0  0  0  0  0  0  0  0  0  0
   11.2130   -9.1204   10.0766 O   0  0  0  0  0  0  0  0  0  0  0  0
   12.8254   -7.2650   11.4082 C   0  0  0  0  0  0  0  0  0  0  0  0
   13.3280   -5.9610   12.0035 C   0  0  0  0  0  0  0  0  0  0  0  0
   14.9813   -5.5803   11.3978 S   0  0  2  0  0  0  0  0  0  0  0  0
   15.5291   -4.4354   12.6816 C   0  0  0  0  0  0  0  0  0  0  0  0
   14.5883   -4.3981   10.0876 C   0  0  0  0  0  0  0  0  0  0  0  0
   15.8543   -3.8460    9.4588 C   0  0  1  0  0  0  0  0  0  0  0  0
   16.6961   -4.8939    9.0353 O   0  0  0  0  0  0  0  0  0  0  0  0
   15.5819   -3.0294    8.2109 C   0  0  1  0  0  0  0  0  0  0  0  0
   15.4612   -1.6794    8.5821 O   0  0  0  0  0  0  0  0  0  0  0  0
   16.8182   -3.2531    7.3638 C   0  0  1  0  0  0  0  0  0  0  0  0
   17.6504   -2.1269    7.5285 O   0  0  0  0  0  0  0  0  0  0  0  0
   17.4886   -4.5086    7.9259 C   0  0  2  0  0  0  0  0  0  0  0  0
   10.2421   -9.7244   11.8563 O   0  0  0  0  0  0  0  0  0  0  0  0
   14.3311   -7.3457    4.8601 N   0  0  0  0  0  0  0  0  0  0  0  0
   13.9919   -6.2932    5.6753 C   0  0  0  0  0  0  0  0  0  0  0  0
   14.9738   -5.6693    6.4131 N   0  0  0  0  0  0  0  0  0  0  0  0
   16.2622   -6.0731    6.3456 C   0  0  0  0  0  0  0  0  0  0  0  0
   16.6222   -7.1254    5.5163 C   0  0  0  0  0  0  0  0  0  0  0  0
   15.6388   -7.7732    4.7717 C   0  0  0  0  0  0  0  0  0  0  0  0
   15.9441   -8.7927    3.9685 N   0  0  0  0  0  0  0  0  0  0  0  0
   17.9622   -7.3110    5.6354 N   0  0  0  0  0  0  0  0  0  0  0  0
   18.4414   -6.3905    6.5035 C   0  0  0  0  0  0  0  0  0  0  0  0
   17.4019   -5.6108    6.9474 N   0  0  0  0  0  0  0  0  0  0  0  0
  2  1  1  1  0  0  0
  2  3  1  0  0  0  0
  2  5  1  0  0  0  0
  3  4  1  0  0  0  0
  3 17  1  0  0  0  0
  5  6  1  0  0  0  0
  7  6  1  1  0  0  0
  7  8  1  0  0  0  0
  7  9  1  0  0  0  0
 10  9  1  6  0  0  0
 10 11  1  0  0  0  0
 10 12  1  0  0  0  0
 11 16  1  0  0  0  0
 12 13  1  1  0  0  0
 12 14  1  0  0  0  0
 14 15  1  1  0  0  0
 14 16  1  0  0  0  0
 16 27  1  6  0  0  0
 18 19  2  0  0  0  0
 18 23  1  0  0  0  0
 19 20  1  0  0  0  0
 20 21  2  0  0  0  0
 21 22  1  0  0  0  0
 21 27  1  0  0  0  0
 22 23  2  0  0  0  0
 22 25  1  0  0  0  0
 23 24  1  0  0  0  0
 25 26  2  0  0  0  0
 26 27  1  0  0  0  0
M  END
>  <CHROM.1>
-164.81536663,-51.84895398,-179.46469610,-159.37099154,176.47287569,53.18117363
60.47242204,14.91351386,-5.95899389,8.76393368,-2.74248276,-0.81751870,-2.21183681

>  <Name>
ligand

>  <RI>
0

>  <Rbt.Current_Directory>
/home/itssahil/PROJECTS/Mol_Feturizer/New_Systems/rnas/3GX5

>  <Rbt.Executable>
rbdock ($Id: //depot/dev/client3/rdock/2013.1/src/exe/rbdock.cxx#4 $)

>  <Rbt.Library>
libRbt.so (2013.1, Build901 2013/11/27)

>  <Rbt.Parameter_File>
/export/apps/rDock/src/rDock_2013.1_src/data/scripts/dock_solv.prm

>  <Rbt.Receptor>
prm/pocket_docking_6.prm

>  <SCORE>
-14.4923

>  <SCORE.INTER>
-15.0163

>  <SCORE.INTER.CONST>
1

>  <SCORE.INTER.POLAR>
0

>  <SCORE.INTER.ROT>
7

>  <SCORE.INTER.SOLV>
15.144

>  <SCORE.INTER.VDW>
-23.3256

>  <SCORE.INTER.norm>
-0.556159

>  <SCORE.INTRA>
0.523987

>  <SCORE.INTRA.DIHEDRAL>
1.70118

>  <SCORE.INTRA.DIHEDRAL.0>
4.28829

>  <SCORE.INTRA.POLAR>
0

>  <SCORE.INTRA.POLAR.0>
0

>  <SCORE.INTRA.REPUL>
0

>  <SCORE.INTRA.REPUL.0>
0

>  <SCORE.INTRA.SOLV>
-0.457713

>  <SCORE.INTRA.SOLV.lig_0>
-48.6018

>  <SCORE.INTRA.VDW>
-0.0977446

>  <SCORE.INTRA.VDW.0>
-2.1506

>  <SCORE.INTRA.norm>
0.0194069

>  <SCORE.RESTR>
0

>  <SCORE.RESTR.CAVITY>
0

>  <SCORE.RESTR.norm>
0

>  <SCORE.SYSTEM>
0

>  <SCORE.SYSTEM.CONST>
0

>  <SCORE.SYSTEM.DIHEDRAL>
0

>  <SCORE.SYSTEM.SOLV>
0

>  <SCORE.SYSTEM.norm>
0

>  <SCORE.heavy>
27

>  <SCORE.norm>
-0.536753

>  <RMSD>
5.373

$$$$
ligand
 OpenBabel11021811483D
libRbt.so/2013.1/901 2013/11/27
 27 29  0  0  0  0  0  0  0  0999 V2000
   12.2991   -9.0066   12.9897 N   0  0  0  0  0  0  0  0  0  0  0  0
   11.8739   -8.2443   11.8142 C   0  0  2  0  0  0  0  0  0  0  0  0
   11.1172   -9.0376   10.7461 C   0  0  0  0  0  0  0  0  0  0  0  0
    9.9135   -9.2402   10.9004 O   0  0  0  0  0  0  0  0  0  0  0  0
   13.0456   -7.5001   11.1962 C   0  0  0  0  0  0  0  0  0  0  0  0
   13.6370   -6.4882   12.1625 C   0  0  0  0  0  0  0  0  0  0  0  0
   15.0786   -5.6850   11.4400 S   0  0  2  0  0  0  0  0  0  0  0  0
   15.4550   -4.4897   12.7395 C   0  0  0  0  0  0  0  0  0  0  0  0
   14.2804   -4.5887   10.2443 C   0  0  0  0  0  0  0  0  0  0  0  0
   15.2957   -3.6695    9.5907 C   0  0  1  0  0  0  0  0  0  0  0  0
   16.4976   -4.3594    9.3346 O   0  0  0  0  0  0  0  0  0  0  0  0
   14.8389   -3.1571    8.2390 C   0  0  1  0  0  0  0  0  0  0  0  0
   14.1956   -1.9219    8.4276 O   0  0  0  0  0  0  0  0  0  0  0  0
   16.1327   -2.9858    7.4690 C   0  0  1  0  0  0  0  0  0  0  0  0
   16.4703   -1.6175    7.5129 O   0  0  0  0  0  0  0  0  0  0  0  0
   17.1751   -3.8249    8.2110 C   0  0  2  0  0  0  0  0  0  0  0  0
   11.6614   -9.4906    9.7354 O   0  0  0  0  0  0  0  0  0  0  0  0
   20.2267   -8.0673    7.8830 N   0  0  0  0  0  0  0  0  0  0  0  0
   20.1130   -7.1899    8.9339 C   0  0  0  0  0  0  0  0  0  0  0  0
   19.2487   -6.1223    8.8293 N   0  0  0  0  0  0  0  0  0  0  0  0
   18.5110   -5.9266    7.7135 C   0  0  0  0  0  0  0  0  0  0  0  0
   18.6046   -6.8119    6.6495 C   0  0  0  0  0  0  0  0  0  0  0  0
   19.4820   -7.8908    6.7362 C   0  0  0  0  0  0  0  0  0  0  0  0
   19.6051   -8.7596    5.7324 N   0  0  0  0  0  0  0  0  0  0  0  0
   17.7585   -6.3862    5.6764 N   0  0  0  0  0  0  0  0  0  0  0  0
   17.1327   -5.2708    6.1181 C   0  0  0  0  0  0  0  0  0  0  0  0
   17.5824   -4.9765    7.3817 N   0  0  0  0  0  0  0  0  0  0  0  0
  2  1  1  1  0  0  0
  2  3  1  0  0  0  0
  2  5  1  0  0  0  0
  3  4  1  0  0  0  0
  3 17  1  0  0  0  0
  5  6  1  0  0  0  0
  7  6  1  1  0  0  0
  7  8  1  0  0  0  0
  7  9  1  0  0  0  0
 10  9  1  6  0  0  0
 10 11  1  0  0  0  0
 10 12  1  0  0  0  0
 11 16  1  0  0  0  0
 12 13  1  1  0  0  0
 12 14  1  0  0  0  0
 14 15  1  1  0  0  0
 14 16  1  0  0  0  0
 16 27  1  6  0  0  0
 18 19  2  0  0  0  0
 18 23  1  0  0  0  0
 19 20  1  0  0  0  0
 20 21  2  0  0  0  0
 21 22  1  0  0  0  0
 21 27  1  0  0  0  0
 22 23  2  0  0  0  0
 22 25  1  0  0  0  0
 23 24  1  0  0  0  0
 25 26  2  0  0  0  0
 26 27  1  0  0  0  0
M  END
>  <CHROM.1>
81.90249586,-61.94018534,176.88473054,175.83907082,173.78160743,39.06350448
-67.37357107,15.69306990,-5.97894770,9.21365087,-2.83765130,0.57522184,-0.04909692

>  <Name>
ligand

>  <RI>
0

>  <Rbt.Current_Directory>
/home/itssahil/PROJECTS/Mol_Feturizer/New_Systems/rnas/3GX5

>  <Rbt.Executable>
rbdock ($Id: //depot/dev/client3/rdock/2013.1/src/exe/rbdock.cxx#4 $)

>  <Rbt.Library>
libRbt.so (2013.1, Build901 2013/11/27)

>  <Rbt.Parameter_File>
/export/apps/rDock/src/rDock_2013.1_src/data/scripts/dock_solv.prm

>  <Rbt.Receptor>
prm/pocket_docking_6.prm

>  <SCORE>
-14.8828

>  <SCORE.INTER>
-15.9373

>  <SCORE.INTER.CONST>
1

>  <SCORE.INTER.POLAR>
0

>  <SCORE.INTER.ROT>
7

>  <SCORE.INTER.SOLV>
10.1335

>  <SCORE.INTER.VDW>
-22.2694

>  <SCORE.INTER.norm>
-0.590271

>  <SCORE.INTRA>
1.04942

>  <SCORE.INTRA.DIHEDRAL>
0.736494

>  <SCORE.INTRA.DIHEDRAL.0>
4.28829

>  <SCORE.INTRA.POLAR>
0

>  <SCORE.INTRA.POLAR.0>
0

>  <SCORE.INTRA.REPUL>
0

>  <SCORE.INTRA.REPUL.0>
0

>  <SCORE.INTRA.SOLV>
-0.566546

>  <SCORE.INTRA.SOLV.lig_0>
-48.6018

>  <SCORE.INTRA.VDW>
0.964443

>  <SCORE.INTRA.VDW.0>
-2.1506

>  <SCORE.INTRA.norm>
0.0388673

>  <SCORE.RESTR>
0.00509099

>  <SCORE.RESTR.CAVITY>
0.00509099

>  <SCORE.RESTR.norm>
0.000188555

>  <SCORE.SYSTEM>
0

>  <SCORE.SYSTEM.CONST>
0

>  <SCORE.SYSTEM.DIHEDRAL>
0

>  <SCORE.SYSTEM.SOLV>
0

>  <SCORE.SYSTEM.norm>
0

>  <SCORE.heavy>
27

>  <SCORE.norm>
-0.551215

>  <RMSD>
5.376

$$$$
ligand
 OpenBabel11021811483D
libRbt.so/2013.1/901 2013/11/27
 27 29  0  0  0  0  0  0  0  0999 V2000
   11.1819   -7.5219   13.4810 N   0  0  0  0  0  0  0  0  0  0  0  0
   11.2874   -7.7207   12.0342 C   0  0  2  0  0  0  0  0  0  0  0  0
   10.8390   -9.0899   11.5174 C   0  0  0  0  0  0  0  0  0  0  0  0
   10.7301   -9.2584   10.3036 O   0  0  0  0  0  0  0  0  0  0  0  0
   12.6880   -7.3968   11.5419 C   0  0  0  0  0  0  0  0  0  0  0  0
   13.0665   -5.9567   11.8423 C   0  0  0  0  0  0  0  0  0  0  0  0
   14.7315   -5.6002   11.2540 S   0  0  2  0  0  0  0  0  0  0  0  0
   15.3238   -4.5578   12.6036 C   0  0  0  0  0  0  0  0  0  0  0  0
   14.3795   -4.3256   10.0210 C   0  0  0  0  0  0  0  0  0  0  0  0
   15.6647   -3.7483    9.4570 C   0  0  1  0  0  0  0  0  0  0  0  0
   16.5557   -4.7789    9.0964 O   0  0  0  0  0  0  0  0  0  0  0  0
   15.4429   -2.9549    8.1844 C   0  0  1  0  0  0  0  0  0  0  0  0
   15.2668   -1.6040    8.5293 O   0  0  0  0  0  0  0  0  0  0  0  0
   16.7307   -3.1567    7.4117 C   0  0  1  0  0  0  0  0  0  0  0  0
   17.5230   -2.0069    7.6073 O   0  0  0  0  0  0  0  0  0  0  0  0
   17.3998   -4.3869    8.0284 C   0  0  2  0  0  0  0  0  0  0  0  0
   10.5751  -10.0357   12.2648 O   0  0  0  0  0  0  0  0  0  0  0  0
   14.4774   -7.4250    4.9224 N   0  0  0  0  0  0  0  0  0  0  0  0
   14.0618   -6.3832    5.7156 C   0  0  0  0  0  0  0  0  0  0  0  0
   14.9898   -5.6988    6.4692 N   0  0  0  0  0  0  0  0  0  0  0  0
   16.2994   -6.0331    6.4384 C   0  0  0  0  0  0  0  0  0  0  0  0
   16.7362   -7.0738    5.6316 C   0  0  0  0  0  0  0  0  0  0  0  0
   15.8080   -7.7822    4.8714 C   0  0  0  0  0  0  0  0  0  0  0  0
   16.1877   -8.7928    4.0889 N   0  0  0  0  0  0  0  0  0  0  0  0
   18.0807   -7.1854    5.7858 N   0  0  0  0  0  0  0  0  0  0  0  0
   18.4879   -6.2306    6.6536 C   0  0  0  0  0  0  0  0  0  0  0  0
   17.3971   -5.5032    7.0620 N   0  0  0  0  0  0  0  0  0  0  0  0
  2  1  1  1  0  0  0
  2  3  1  0  0  0  0
  2  5  1  0  0  0  0
  3  4  1  0  0  0  0
  3 17  1  0  0  0  0
  5  6  1  0  0  0  0
  7  6  1  1  0  0  0
  7  8  1  0  0  0  0
  7  9  1  0  0  0  0
 10  9  1  6  0  0  0
 10 11  1  0  0  0  0
 10 12  1  0  0  0  0
 11 16  1  0  0  0  0
 12 13  1  1  0  0  0
 12 14  1  0  0  0  0
 14 15  1  1  0  0  0
 14 16  1  0  0  0  0
 16 27  1  6  0  0  0
 18 19  2  0  0  0  0
 18 23  1  0  0  0  0
 19 20  1  0  0  0  0
 20 21  2  0  0  0  0
 21 22  1  0  0  0  0
 21 27  1  0  0  0  0
 22 23  2  0  0  0  0
 22 25  1  0  0  0  0
 23 24  1  0  0  0  0
 25 26  2  0  0  0  0
 26 27  1  0  0  0  0
M  END
>  <CHROM.1>
170.22201084,-59.73995404,179.81976575,-140.97659158,174.49081362,47.57460874
58.04361862,14.83992024,-5.95996787,8.83005173,-2.85057885,-0.84388808,-2.30811724

>  <Name>
ligand

>  <RI>
0

>  <Rbt.Current_Directory>
/home/itssahil/PROJECTS/Mol_Feturizer/New_Systems/rnas/3GX5

>  <Rbt.Executable>
rbdock ($Id: //depot/dev/client3/rdock/2013.1/src/exe/rbdock.cxx#4 $)

>  <Rbt.Library>
libRbt.so (2013.1, Build901 2013/11/27)

>  <Rbt.Parameter_File>
/export/apps/rDock/src/rDock_2013.1_src/data/scripts/dock_solv.prm

>  <Rbt.Receptor>
prm/pocket_docking_4.prm

>  <SCORE>
-13.8951

>  <SCORE.INTER>
-14.8043

>  <SCORE.INTER.CONST>
1

>  <SCORE.INTER.POLAR>
0

>  <SCORE.INTER.ROT>
7

>  <SCORE.INTER.SOLV>
15.1609

>  <SCORE.INTER.VDW>
-23.1898

>  <SCORE.INTER.norm>
-0.548308

>  <SCORE.INTRA>
0.909212

>  <SCORE.INTRA.DIHEDRAL>
3.59808

>  <SCORE.INTRA.DIHEDRAL.0>
4.28829

>  <SCORE.INTRA.POLAR>
0

>  <SCORE.INTRA.POLAR.0>
0

>  <SCORE.INTRA.REPUL>
0

>  <SCORE.INTRA.REPUL.0>
0

>  <SCORE.INTRA.SOLV>
-0.524538

>  <SCORE.INTRA.SOLV.lig_0>
-48.6018

>  <SCORE.INTRA.VDW>
-0.62756

>  <SCORE.INTRA.VDW.0>
-2.1506

>  <SCORE.INTRA.norm>
0.0336745

>  <SCORE.RESTR>
0

>  <SCORE.RESTR.CAVITY>
0

>  <SCORE.RESTR.norm>
0

>  <SCORE.SYSTEM>
0

>  <SCORE.SYSTEM.CONST>
0

>  <SCORE.SYSTEM.DIHEDRAL>
0

>  <SCORE.SYSTEM.SOLV>
0

>  <SCORE.SYSTEM.norm>
0

>  <SCORE.heavy>
27

>  <SCORE.norm>
-0.514634

>  <RMSD>
5.383

$$$$
ligand
 OpenBabel11021811483D
libRbt.so/2013.1/901 2013/11/27
 27 29  0  0  0  0  0  0  0  0999 V2000
   15.8320  -10.4059   12.8395 N   0  0  0  0  0  0  0  0  0  0  0  0
   14.4763  -10.1367   13.3228 C   0  0  2  0  0  0  0  0  0  0  0  0
   14.2670  -10.2873   14.8316 C   0  0  0  0  0  0  0  0  0  0  0  0
   15.2447  -10.5024   15.5468 O   0  0  0  0  0  0  0  0  0  0  0  0
   13.4532  -10.9590   12.5573 C   0  0  0  0  0  0  0  0  0  0  0  0
   13.6343  -10.8185   11.0557 C   0  0  0  0  0  0  0  0  0  0  0  0
   13.3559   -9.1158   10.5374 S   0  0  2  0  0  0  0  0  0  0  0  0
   11.5671   -9.1505   10.2964 C   0  0  0  0  0  0  0  0  0  0  0  0
   13.8940   -9.2038    8.8136 C   0  0  0  0  0  0  0  0  0  0  0  0
   14.1161   -7.8147    8.2442 C   0  0  1  0  0  0  0  0  0  0  0  0
   14.8700   -7.8802    7.0553 O   0  0  0  0  0  0  0  0  0  0  0  0
   12.8227   -7.1266    7.8542 C   0  0  1  0  0  0  0  0  0  0  0  0
   12.3869   -6.3522    8.9429 O   0  0  0  0  0  0  0  0  0  0  0  0
   13.2263   -6.2481    6.6874 C   0  0  1  0  0  0  0  0  0  0  0  0
   13.3955   -4.9397    7.1848 O   0  0  0  0  0  0  0  0  0  0  0  0
   14.5559   -6.8109    6.1806 C   0  0  2  0  0  0  0  0  0  0  0  0
   13.1577  -10.2083   15.3663 O   0  0  0  0  0  0  0  0  0  0  0  0
   16.6839   -9.7994    2.4444 N   0  0  0  0  0  0  0  0  0  0  0  0
   17.2137   -9.4777    3.6704 C   0  0  0  0  0  0  0  0  0  0  0  0
   16.4954   -8.6687    4.5232 N   0  0  0  0  0  0  0  0  0  0  0  0
   15.2799   -8.1903    4.1750 C   0  0  0  0  0  0  0  0  0  0  0  0
   14.7257   -8.5178    2.9461 C   0  0  0  0  0  0  0  0  0  0  0  0
   15.4445   -9.3267    2.0684 C   0  0  0  0  0  0  0  0  0  0  0  0
   14.9488   -9.6581    0.8759 N   0  0  0  0  0  0  0  0  0  0  0  0
   13.5108   -7.9168    2.8625 N   0  0  0  0  0  0  0  0  0  0  0  0
   13.2932   -7.2405    4.0140 C   0  0  0  0  0  0  0  0  0  0  0  0
   14.3769   -7.4056    4.8411 N   0  0  0  0  0  0  0  0  0  0  0  0
  2  1  1  1  0  0  0
  2  3  1  0  0  0  0
  2  5  1  0  0  0  0
  3  4  1  0  0  0  0
  3 17  1  0  0  0  0
  5  6  1  0  0  0  0
  7  6  1  1  0  0  0
  7  8  1  0  0  0  0
  7  9  1  0  0  0  0
 10  9  1  6  0  0  0
 10 11  1  0  0  0  0
 10 12  1  0  0  0  0
 11 16  1  0  0  0  0
 12 13  1  1  0  0  0
 12 14  1  0  0  0  0
 14 15  1  1  0  0  0
 14 16  1  0  0  0  0
 16 27  1  6  0  0  0
 18 19  2  0  0  0  0
 18 23  1  0  0  0  0
 19 20  1  0  0  0  0
 20 21  2  0  0  0  0
 21 22  1  0  0  0  0
 21 27  1  0  0  0  0
 22 23  2  0  0  0  0
 22 25  1  0  0  0  0
 23 24  1  0  0  0  0
 25 26  2  0  0  0  0
 26 27  1  0  0  0  0
M  END
>  <CHROM.1>
6.22912229,-50.60055380,-63.18545430,-86.93959683,-164.56558697,163.92313742
-54.74842986,14.22437367,-8.68501365,8.04860987,-1.73440054,0.88549656,-1.27597109

>  <Name>
ligand

>  <RI>
0

>  <Rbt.Current_Directory>
/home/itssahil/PROJECTS/Mol_Feturizer/New_Systems/rnas/3GX5

>  <Rbt.Executable>
rbdock ($Id: //depot/dev/client3/rdock/2013.1/src/exe/rbdock.cxx#4 $)

>  <Rbt.Library>
libRbt.so (2013.1, Build901 2013/11/27)

>  <Rbt.Parameter_File>
/export/apps/rDock/src/rDock_2013.1_src/data/scripts/dock_solv.prm

>  <Rbt.Receptor>
prm/pocket_docking_7.prm

>  <SCORE>
-10.7818

>  <SCORE.INTER>
-12.8648

>  <SCORE.INTER.CONST>
1

>  <SCORE.INTER.POLAR>
0

>  <SCORE.INTER.ROT>
7

>  <SCORE.INTER.SOLV>
15.9787

>  <SCORE.INTER.VDW>
-22.1694

>  <SCORE.INTER.norm>
-0.476475

>  <SCORE.INTRA>
2.08298

>  <SCORE.INTRA.DIHEDRAL>
2.70637

>  <SCORE.INTRA.DIHEDRAL.0>
4.28829

>  <SCORE.INTRA.POLAR>
0

>  <SCORE.INTRA.POLAR.0>
0

>  <SCORE.INTRA.REPUL>
0

>  <SCORE.INTRA.REPUL.0>
0

>  <SCORE.INTRA.SOLV>
0.619498

>  <SCORE.INTRA.SOLV.lig_0>
-48.6018

>  <SCORE.INTRA.VDW>
0.420044

>  <SCORE.INTRA.VDW.0>
-2.1506

>  <SCORE.INTRA.norm>
0.0771473

>  <SCORE.RESTR>
0

>  <SCORE.RESTR.CAVITY>
0

>  <SCORE.RESTR.norm>
0

>  <SCORE.SYSTEM>
0

>  <SCORE.SYSTEM.CONST>
0

>  <SCORE.SYSTEM.DIHEDRAL>
0

>  <SCORE.SYSTEM.SOLV>
0

>  <SCORE.SYSTEM.norm>
0

>  <SCORE.heavy>
27

>  <SCORE.norm>
-0.399327

>  <RMSD>
5.388

$$$$
ligand
 OpenBabel11021811483D
libRbt.so/2013.1/901 2013/11/27
 27 29  0  0  0  0  0  0  0  0999 V2000
   16.3556   -8.6067    8.8205 N   0  0  0  0  0  0  0  0  0  0  0  0
   14.9383   -8.6684    9.1829 C   0  0  2  0  0  0  0  0  0  0  0  0
   14.4900   -9.9466    9.8958 C   0  0  0  0  0  0  0  0  0  0  0  0
   13.3747   -9.9757   10.4142 O   0  0  0  0  0  0  0  0  0  0  0  0
   14.0564   -8.3928    7.9766 C   0  0  0  0  0  0  0  0  0  0  0  0
   14.3721   -7.0455    7.3501 C   0  0  0  0  0  0  0  0  0  0  0  0
   12.9731   -6.4489    6.3846 S   0  0  2  0  0  0  0  0  0  0  0  0
   13.1802   -7.4386    4.8890 C   0  0  0  0  0  0  0  0  0  0  0  0
   13.6287   -4.8706    5.7947 C   0  0  0  0  0  0  0  0  0  0  0  0
   13.9259   -3.9399    6.9559 C   0  0  1  0  0  0  0  0  0  0  0  0
   13.0732   -4.2153    8.0437 O   0  0  0  0  0  0  0  0  0  0  0  0
   15.3299   -4.1119    7.5014 C   0  0  1  0  0  0  0  0  0  0  0  0
   16.1720   -3.1901    6.8562 O   0  0  0  0  0  0  0  0  0  0  0  0
   15.1823   -3.7784    8.9721 C   0  0  1  0  0  0  0  0  0  0  0  0
   15.6234   -2.4510    9.1488 O   0  0  0  0  0  0  0  0  0  0  0  0
   13.6882   -3.8981    9.2800 C   0  0  2  0  0  0  0  0  0  0  0  0
   15.2003  -10.9521    9.9802 O   0  0  0  0  0  0  0  0  0  0  0  0
   14.7873   -6.1035   13.9002 N   0  0  0  0  0  0  0  0  0  0  0  0
   15.2409   -4.9031   13.4099 C   0  0  0  0  0  0  0  0  0  0  0  0
   14.8367   -4.4905   12.1592 N   0  0  0  0  0  0  0  0  0  0  0  0
   14.0010   -5.2445   11.4104 C   0  0  0  0  0  0  0  0  0  0  0  0
   13.5235   -6.4524   11.8978 C   0  0  0  0  0  0  0  0  0  0  0  0
   13.9314   -6.8882   13.1567 C   0  0  0  0  0  0  0  0  0  0  0  0
   13.4997   -8.0462   13.6570 N   0  0  0  0  0  0  0  0  0  0  0  0
   12.7069   -6.9894   10.9549 N   0  0  0  0  0  0  0  0  0  0  0  0
   12.6546   -6.1372    9.9054 C   0  0  0  0  0  0  0  0  0  0  0  0
   13.4454   -5.0473   10.1746 N   0  0  0  0  0  0  0  0  0  0  0  0
  2  1  1  6  0  0  0
  2  3  1  0  0  0  0
  2  5  1  0  0  0  0
  3  4  1  0  0  0  0
  3 17  1  0  0  0  0
  5  6  1  0  0  0  0
  7  6  1  1  0  0  0
  7  8  1  0  0  0  0
  7  9  1  0  0  0  0
 10  9  1  6  0  0  0
 10 11  1  0  0  0  0
 10 12  1  0  0  0  0
 11 16  1  0  0  0  0
 12 13  1  6  0  0  0
 12 14  1  0  0  0  0
 14 15  1  6  0  0  0
 14 16  1  0  0  0  0
 16 27  1  1  0  0  0
 18 19  2  0  0  0  0
 18 23  1  0  0  0  0
 19 20  1  0  0  0  0
 20 21  2  0  0  0  0
 21 22  1  0  0  0  0
 21 27  1  0  0  0  0
 22 23  2  0  0  0  0
 22 25  1  0  0  0  0
 23 24  1  0  0  0  0
 25 26  2  0  0  0  0
 26 27  1  0  0  0  0
M  END
>  <CHROM.1>
168.53943660,-57.06833957,-157.95249461,-78.60778769,-62.49843909,-28.62046841
171.25934568,14.18314652,-6.24822600,9.33361252,1.47299790,1.45795000,2.14684523

>  <Name>
ligand

>  <RI>
0

>  <Rbt.Current_Directory>
/home/itssahil/PROJECTS/Mol_Feturizer/New_Systems/rnas/3GX5

>  <Rbt.Executable>
rbdock ($Id: //depot/dev/client3/rdock/2013.1/src/exe/rbdock.cxx#4 $)

>  <Rbt.Library>
libRbt.so (2013.1, Build901 2013/11/27)

>  <Rbt.Parameter_File>
/export/apps/rDock/src/rDock_2013.1_src/data/scripts/dock_solv.prm

>  <Rbt.Receptor>
prm/pocket_docking_3.prm

>  <SCORE>
-14.6494

>  <SCORE.INTER>
-15.2669

>  <SCORE.INTER.CONST>
1

>  <SCORE.INTER.POLAR>
0

>  <SCORE.INTER.ROT>
7

>  <SCORE.INTER.SOLV>
8.44238

>  <SCORE.INTER.VDW>
-21.2587

>  <SCORE.INTER.norm>
-0.565442

>  <SCORE.INTRA>
0.522583

>  <SCORE.INTRA.DIHEDRAL>
4.06632

>  <SCORE.INTRA.DIHEDRAL.0>
4.28829

>  <SCORE.INTRA.POLAR>
0

>  <SCORE.INTRA.POLAR.0>
0

>  <SCORE.INTRA.REPUL>
0

>  <SCORE.INTRA.REPUL.0>
0

>  <SCORE.INTRA.SOLV>
0.0140149

>  <SCORE.INTRA.SOLV.lig_0>
-48.6018

>  <SCORE.INTRA.VDW>
-1.51758

>  <SCORE.INTRA.VDW.0>
-2.1506

>  <SCORE.INTRA.norm>
0.0193549

>  <SCORE.RESTR>
0.0949049

>  <SCORE.RESTR.CAVITY>
0.0949049

>  <SCORE.RESTR.norm>
0.003515

>  <SCORE.SYSTEM>
0

>  <SCORE.SYSTEM.CONST>
0

>  <SCORE.SYSTEM.DIHEDRAL>
0

>  <SCORE.SYSTEM.SOLV>
0

>  <SCORE.SYSTEM.norm>
0

>  <SCORE.heavy>
27

>  <SCORE.norm>
-0.542572

>  <RMSD>
5.398

$$$$
ligand
 OpenBabel11021811483D
libRbt.so/2013.1/901 2013/11/27
 27 29  0  0  0  0  0  0  0  0999 V2000
   11.2449   -8.0624   11.3346 N   0  0  0  0  0  0  0  0  0  0  0  0
   12.4641   -8.7568   10.9157 C   0  0  2  0  0  0  0  0  0  0  0  0
   12.6605   -8.9009    9.4046 C   0  0  0  0  0  0  0  0  0  0  0  0
   11.9910   -9.7354    8.7971 O   0  0  0  0  0  0  0  0  0  0  0  0
   12.5824  -10.1080   11.6007 C   0  0  0  0  0  0  0  0  0  0  0  0
   13.9611  -10.7148   11.4045 C   0  0  0  0  0  0  0  0  0  0  0  0
   15.0425  -10.2973   12.7835 S   0  0  2  0  0  0  0  0  0  0  0  0
   13.9801  -10.7633   14.1667 C   0  0  0  0  0  0  0  0  0  0  0  0
   14.8334   -8.5022   12.8345 C   0  0  0  0  0  0  0  0  0  0  0  0
   16.0838   -7.7972   12.3419 C   0  0  1  0  0  0  0  0  0  0  0  0
   16.6734   -8.5149   11.2820 O   0  0  0  0  0  0  0  0  0  0  0  0
   15.7967   -6.4208   11.7751 C   0  0  1  0  0  0  0  0  0  0  0  0
   15.9563   -5.4760   12.8032 O   0  0  0  0  0  0  0  0  0  0  0  0
   16.8579   -6.2486   10.7073 C   0  0  1  0  0  0  0  0  0  0  0  0
   17.8839   -5.4536   11.2582 O   0  0  0  0  0  0  0  0  0  0  0  0
   17.3711   -7.6564   10.3970 C   0  0  2  0  0  0  0  0  0  0  0  0
   13.4667   -8.2202    8.7649 O   0  0  0  0  0  0  0  0  0  0  0  0
   17.4041   -6.3555    5.3251 N   0  0  0  0  0  0  0  0  0  0  0  0
   17.9562   -5.6645    6.3762 C   0  0  0  0  0  0  0  0  0  0  0  0
   17.8405   -6.1729    7.6513 N   0  0  0  0  0  0  0  0  0  0  0  0
   17.1968   -7.3388    7.8835 C   0  0  0  0  0  0  0  0  0  0  0  0
   16.6462   -8.0549    6.8305 C   0  0  0  0  0  0  0  0  0  0  0  0
   16.7461   -7.5485    5.5363 C   0  0  0  0  0  0  0  0  0  0  0  0
   16.2242   -8.2039    4.4991 N   0  0  0  0  0  0  0  0  0  0  0  0
   16.0756   -9.1762    7.3415 N   0  0  0  0  0  0  0  0  0  0  0  0
   16.2737   -9.1796    8.6799 C   0  0  0  0  0  0  0  0  0  0  0  0
   16.9732   -8.0513    9.0311 N   0  0  0  0  0  0  0  0  0  0  0  0
  2  1  1  6  0  0  0
  2  3  1  0  0  0  0
  2  5  1  0  0  0  0
  3  4  1  0  0  0  0
  3 17  1  0  0  0  0
  5  6  1  0  0  0  0
  7  6  1  6  0  0  0
  7  8  1  0  0  0  0
  7  9  1  0  0  0  0
 10  9  1  6  0  0  0
 10 11  1  0  0  0  0
 10 12  1  0  0  0  0
 11 16  1  0  0  0  0
 12 13  1  1  0  0  0
 12 14  1  0  0  0  0
 14 15  1  1  0  0  0
 14 16  1  0  0  0  0
 16 27  1  6  0  0  0
 18 19  2  0  0  0  0
 18 23  1  0  0  0  0
 19 20  1  0  0  0  0
 20 21  2  0  0  0  0
 21 22  1  0  0  0  0
 21 27  1  0  0  0  0
 22 23  2  0  0  0  0
 22 25  1  0  0  0  0
 23 24  1  0  0  0  0
 25 26  2  0  0  0  0
 26 27  1  0  0  0  0
M  END
>  <CHROM.1>
-75.39130344,-168.36075954,93.67282451,50.08398815,-108.32139129,36.70540511
166.57651615,15.42989813,-8.16446145,9.92058591,2.18984137,0.63938025,1.56089386

>  <Name>
ligand

>  <RI>
0

>  <Rbt.Current_Directory>
/home/itssahil/PROJECTS/Mol_Feturizer/New_Systems/rnas/3GX5

>  <Rbt.Executable>
rbdock ($Id: //depot/dev/client3/rdock/2013.1/src/exe/rbdock.cxx#4 $)

>  <Rbt.Library>
libRbt.so (2013.1, Build901 2013/11/27)

>  <Rbt.Parameter_File>
/export/apps/rDock/src/rDock_2013.1_src/data/scripts/dock_solv.prm

>  <Rbt.Receptor>
prm/pocket_docking_6.prm

>  <SCORE>
-1.59468

>  <SCORE.INTER>
-6.31166

>  <SCORE.INTER.CONST>
1

>  <SCORE.INTER.POLAR>
0

>  <SCORE.INTER.ROT>
7

>  <SCORE.INTER.SOLV>
13.2809

>  <SCORE.INTER.VDW>
-16.9014

>  <SCORE.INTER.norm>
-0.233765

>  <SCORE.INTRA>
4.71698

>  <SCORE.INTRA.DIHEDRAL>
7.79059

>  <SCORE.INTRA.DIHEDRAL.0>
4.28829

>  <SCORE.INTRA.POLAR>
0

>  <SCORE.INTRA.POLAR.0>
0

>  <SCORE.INTRA.REPUL>
0

>  <SCORE.INTRA.REPUL.0>
0

>  <SCORE.INTRA.SOLV>
-0.443852

>  <SCORE.INTRA.SOLV.lig_0>
-48.6018

>  <SCORE.INTRA.VDW>
1.04361

>  <SCORE.INTRA.VDW.0>
-2.1506

>  <SCORE.INTRA.norm>
0.174703

>  <SCORE.RESTR>
0

>  <SCORE.RESTR.CAVITY>
0

>  <SCORE.RESTR.norm>
0

>  <SCORE.SYSTEM>
0

>  <SCORE.SYSTEM.CONST>
0

>  <SCORE.SYSTEM.DIHEDRAL>
0

>  <SCORE.SYSTEM.SOLV>
0

>  <SCORE.SYSTEM.norm>
0

>  <SCORE.heavy>
27

>  <SCORE.norm>
-0.0590621

>  <RMSD>
5.401

$$$$
ligand
 OpenBabel11021811483D
libRbt.so/2013.1/901 2013/11/27
 27 29  0  0  0  0  0  0  0  0999 V2000
   16.0659   -8.1122   10.2892 N   0  0  0  0  0  0  0  0  0  0  0  0
   14.9418   -8.4708    9.4223 C   0  0  2  0  0  0  0  0  0  0  0  0
   14.1205   -9.6835    9.8671 C   0  0  0  0  0  0  0  0  0  0  0  0
   14.6923  -10.6060   10.4463 O   0  0  0  0  0  0  0  0  0  0  0  0
   15.3968   -8.6335    7.9817 C   0  0  0  0  0  0  0  0  0  0  0  0
   15.6589   -7.2899    7.3235 C   0  0  0  0  0  0  0  0  0  0  0  0
   14.1184   -6.3875    7.0830 S   0  0  2  0  0  0  0  0  0  0  0  0
   13.4305   -7.3081    5.6908 C   0  0  0  0  0  0  0  0  0  0  0  0
   14.7254   -4.9266    6.2077 C   0  0  0  0  0  0  0  0  0  0  0  0
   15.2291   -3.8804    7.1849 C   0  0  1  0  0  0  0  0  0  0  0  0
   14.3835   -3.8036    8.3097 O   0  0  0  0  0  0  0  0  0  0  0  0
   16.5995   -4.2103    7.7430 C   0  0  1  0  0  0  0  0  0  0  0  0
   17.5678   -3.5834    6.9402 O   0  0  0  0  0  0  0  0  0  0  0  0
   16.5709   -3.6075    9.1329 C   0  0  1  0  0  0  0  0  0  0  0  0
   17.2493   -2.3731    9.0701 O   0  0  0  0  0  0  0  0  0  0  0  0
   15.0925   -3.3966    9.4667 C   0  0  2  0  0  0  0  0  0  0  0  0
   12.9070   -9.7823    9.6660 O   0  0  0  0  0  0  0  0  0  0  0  0
   11.9301   -7.3319   10.8560 N   0  0  0  0  0  0  0  0  0  0  0  0
   12.0305   -6.7245    9.6280 C   0  0  0  0  0  0  0  0  0  0  0  0
   12.9295   -5.6947    9.4575 N   0  0  0  0  0  0  0  0  0  0  0  0
   13.7141   -5.2757   10.4756 C   0  0  0  0  0  0  0  0  0  0  0  0
   13.6339   -5.8886   11.7176 C   0  0  0  0  0  0  0  0  0  0  0  0
   12.7222   -6.9247   11.9085 C   0  0  0  0  0  0  0  0  0  0  0  0
   12.6109   -7.5343   13.0891 N   0  0  0  0  0  0  0  0  0  0  0  0
   14.5283   -5.2828   12.5405 N   0  0  0  0  0  0  0  0  0  0  0  0
   15.1701   -4.3232   11.8349 C   0  0  0  0  0  0  0  0  0  0  0  0
   14.6823   -4.3106   10.5513 N   0  0  0  0  0  0  0  0  0  0  0  0
  2  1  1  1  0  0  0
  2  3  1  0  0  0  0
  2  5  1  0  0  0  0
  3  4  1  0  0  0  0
  3 17  1  0  0  0  0
  5  6  1  0  0  0  0
  7  6  1  6  0  0  0
  7  8  1  0  0  0  0
  7  9  1  0  0  0  0
 10  9  1  6  0  0  0
 10 11  1  0  0  0  0
 10 12  1  0  0  0  0
 11 16  1  0  0  0  0
 12 13  1  6  0  0  0
 12 14  1  0  0  0  0
 14 15  1  6  0  0  0
 14 16  1  0  0  0  0
 16 27  1  1  0  0  0
 18 19  2  0  0  0  0
 18 23  1  0  0  0  0
 19 20  1  0  0  0  0
 20 21  2  0  0  0  0
 21 22  1  0  0  0  0
 21 27  1  0  0  0  0
 22 23  2  0  0  0  0
 22 25  1  0  0  0  0
 23 24  1  0  0  0  0
 25 26  2  0  0  0  0
 26 27  1  0  0  0  0
M  END
>  <CHROM.1>
-33.17071428,-75.04684030,-68.90522559,-74.64422753,-84.40406882,-40.03231068
-5.56468276,14.55839804,-6.14419638,9.23672701,-3.00048685,1.12689305,0.89732743

>  <Name>
ligand

>  <RI>
0

>  <Rbt.Current_Directory>
/home/itssahil/PROJECTS/Mol_Feturizer/New_Systems/rnas/3GX5

>  <Rbt.Executable>
rbdock ($Id: //depot/dev/client3/rdock/2013.1/src/exe/rbdock.cxx#4 $)

>  <Rbt.Library>
libRbt.so (2013.1, Build901 2013/11/27)

>  <Rbt.Parameter_File>
/export/apps/rDock/src/rDock_2013.1_src/data/scripts/dock_solv.prm

>  <Rbt.Receptor>
prm/pocket_docking_3.prm

>  <SCORE>
-12.5692

>  <SCORE.INTER>
-10.9128

>  <SCORE.INTER.CONST>
1

>  <SCORE.INTER.POLAR>
0

>  <SCORE.INTER.ROT>
7

>  <SCORE.INTER.SOLV>
8.35215

>  <SCORE.INTER.VDW>
-18.3259

>  <SCORE.INTER.norm>
-0.404179

>  <SCORE.INTRA>
-1.65643

>  <SCORE.INTRA.DIHEDRAL>
2.35732

>  <SCORE.INTRA.DIHEDRAL.0>
4.28829

>  <SCORE.INTRA.POLAR>
0

>  <SCORE.INTRA.POLAR.0>
0

>  <SCORE.INTRA.REPUL>
0

>  <SCORE.INTRA.REPUL.0>
0

>  <SCORE.INTRA.SOLV>
0.824884

>  <SCORE.INTRA.SOLV.lig_0>
-48.6018

>  <SCORE.INTRA.VDW>
-3.24753

>  <SCORE.INTRA.VDW.0>
-2.1506

>  <SCORE.INTRA.norm>
-0.0613492

>  <SCORE.RESTR>
0

>  <SCORE.RESTR.CAVITY>
0

>  <SCORE.RESTR.norm>
0

>  <SCORE.SYSTEM>
0

>  <SCORE.SYSTEM.CONST>
0

>  <SCORE.SYSTEM.DIHEDRAL>
0

>  <SCORE.SYSTEM.SOLV>
0

>  <SCORE.SYSTEM.norm>
0

>  <SCORE.heavy>
27

>  <SCORE.norm>
-0.465528

>  <RMSD>
5.410

$$$$
ligand
 OpenBabel11021811483D
libRbt.so/2013.1/901 2013/11/27
 27 29  0  0  0  0  0  0  0  0999 V2000
   13.2472   -9.5080   12.1938 N   0  0  0  0  0  0  0  0  0  0  0  0
   11.8182   -9.3043   12.4394 C   0  0  2  0  0  0  0  0  0  0  0  0
   11.0510  -10.5268   12.9492 C   0  0  0  0  0  0  0  0  0  0  0  0
   10.0476  -10.3512   13.6391 O   0  0  0  0  0  0  0  0  0  0  0  0
   11.1347   -8.7173   11.2159 C   0  0  0  0  0  0  0  0  0  0  0  0
   11.4313   -7.2349   11.0678 C   0  0  0  0  0  0  0  0  0  0  0  0
   13.1351   -6.9758   10.5429 S   0  0  2  0  0  0  0  0  0  0  0  0
   13.6746   -5.7988   11.8009 C   0  0  0  0  0  0  0  0  0  0  0  0
   12.8844   -5.8420    9.1572 C   0  0  0  0  0  0  0  0  0  0  0  0
   14.1820   -5.1505    8.7819 C   0  0  1  0  0  0  0  0  0  0  0  0
   15.1251   -6.0860    8.3112 O   0  0  0  0  0  0  0  0  0  0  0  0
   14.0116   -4.1576    7.6490 C   0  0  1  0  0  0  0  0  0  0  0  0
   13.7725   -2.8887    8.2038 O   0  0  0  0  0  0  0  0  0  0  0  0
   15.3489   -4.1981    6.9377 C   0  0  1  0  0  0  0  0  0  0  0  0
   16.0914   -3.0818    7.3740 O   0  0  0  0  0  0  0  0  0  0  0  0
   16.0187   -5.5007    7.3806 C   0  0  2  0  0  0  0  0  0  0  0  0
   11.3963  -11.6858   12.7041 O   0  0  0  0  0  0  0  0  0  0  0  0
   13.3531   -8.3239    3.8674 N   0  0  0  0  0  0  0  0  0  0  0  0
   12.8497   -7.4833    4.8303 C   0  0  0  0  0  0  0  0  0  0  0  0
   13.7199   -6.8234    5.6699 N   0  0  0  0  0  0  0  0  0  0  0  0
   15.0573   -6.9871    5.5597 C   0  0  0  0  0  0  0  0  0  0  0  0
   15.5811   -7.8218    4.5832 C   0  0  0  0  0  0  0  0  0  0  0  0
   14.7134   -8.5041    3.7331 C   0  0  0  0  0  0  0  0  0  0  0  0
   15.1779   -9.3202    2.7866 N   0  0  0  0  0  0  0  0  0  0  0  0
   16.9345   -7.7932    4.6917 N   0  0  0  0  0  0  0  0  0  0  0  0
   17.2605   -6.9503    5.6985 C   0  0  0  0  0  0  0  0  0  0  0  0
   16.1090   -6.4368    6.2423 N   0  0  0  0  0  0  0  0  0  0  0  0
  2  1  1  6  0  0  0
  2  3  1  0  0  0  0
  2  5  1  0  0  0  0
  3  4  1  0  0  0  0
  3 17  1  0  0  0  0
  5  6  1  0  0  0  0
  7  6  1  1  0  0  0
  7  8  1  0  0  0  0
  7  9  1  0  0  0  0
 10  9  1  6  0  0  0
 10 11  1  0  0  0  0
 10 12  1  0  0  0  0
 11 16  1  0  0  0  0
 12 13  1  1  0  0  0
 12 14  1  0  0  0  0
 14 15  1  1  0  0  0
 14 16  1  0  0  0  0
 16 27  1  6  0  0  0
 18 19  2  0  0  0  0
 18 23  1  0  0  0  0
 19 20  1  0  0  0  0
 20 21  2  0  0  0  0
 21 22  1  0  0  0  0
 21 27  1  0  0  0  0
 22 23  2  0  0  0  0
 22 25  1  0  0  0  0
 23 24  1  0  0  0  0
 25 26  2  0  0  0  0
 26 27  1  0  0  0  0
M  END
>  <CHROM.1>
152.58551486,-76.50519976,72.25277435,-127.86027972,163.61250835,64.32585291
50.59242108,13.82117014,-7.13573891,8.37050503,2.84365292,1.08535253,0.70458141

>  <Name>
ligand

>  <RI>
0

>  <Rbt.Current_Directory>
/home/itssahil/PROJECTS/Mol_Feturizer/New_Systems/rnas/3GX5

>  <Rbt.Executable>
rbdock ($Id: //depot/dev/client3/rdock/2013.1/src/exe/rbdock.cxx#4 $)

>  <Rbt.Library>
libRbt.so (2013.1, Build901 2013/11/27)

>  <Rbt.Parameter_File>
/export/apps/rDock/src/rDock_2013.1_src/data/scripts/dock_solv.prm

>  <Rbt.Receptor>
prm/pocket_docking_6.prm

>  <SCORE>
-10.9127

>  <SCORE.INTER>
-13.196

>  <SCORE.INTER.CONST>
1

>  <SCORE.INTER.POLAR>
0

>  <SCORE.INTER.ROT>
7

>  <SCORE.INTER.SOLV>
12.0977

>  <SCORE.INTER.VDW>
-21.0966

>  <SCORE.INTER.norm>
-0.488742

>  <SCORE.INTRA>
2.28335

>  <SCORE.INTRA.DIHEDRAL>
5.24876

>  <SCORE.INTRA.DIHEDRAL.0>
4.28829

>  <SCORE.INTRA.POLAR>
0

>  <SCORE.INTRA.POLAR.0>
0

>  <SCORE.INTRA.REPUL>
0

>  <SCORE.INTRA.REPUL.0>
0

>  <SCORE.INTRA.SOLV>
1.28535

>  <SCORE.INTRA.SOLV.lig_0>
-48.6018

>  <SCORE.INTRA.VDW>
-0.983707

>  <SCORE.INTRA.VDW.0>
-2.1506

>  <SCORE.INTRA.norm>
0.0845686

>  <SCORE.RESTR>
0

>  <SCORE.RESTR.CAVITY>
0

>  <SCORE.RESTR.norm>
0

>  <SCORE.SYSTEM>
0

>  <SCORE.SYSTEM.CONST>
0

>  <SCORE.SYSTEM.DIHEDRAL>
0

>  <SCORE.SYSTEM.SOLV>
0

>  <SCORE.SYSTEM.norm>
0

>  <SCORE.heavy>
27

>  <SCORE.norm>
-0.404174

>  <RMSD>
5.416

$$$$
ligand
 OpenBabel11021811483D
libRbt.so/2013.1/901 2013/11/27
 27 29  0  0  0  0  0  0  0  0999 V2000
   16.4830   -5.4974   10.5120 N   0  0  0  0  0  0  0  0  0  0  0  0
   15.4803   -5.0995   11.5021 C   0  0  2  0  0  0  0  0  0  0  0  0
   14.8946   -6.2334   12.3470 C   0  0  0  0  0  0  0  0  0  0  0  0
   15.6632   -6.9751   12.9576 O   0  0  0  0  0  0  0  0  0  0  0  0
   14.3706   -4.2875   10.8555 C   0  0  0  0  0  0  0  0  0  0  0  0
   13.7126   -5.0480    9.7171 C   0  0  0  0  0  0  0  0  0  0  0  0
   14.5238   -4.6782    8.1517 S   0  0  2  0  0  0  0  0  0  0  0  0
   13.7875   -3.0701    7.7899 C   0  0  0  0  0  0  0  0  0  0  0  0
   13.5571   -5.7122    7.0270 C   0  0  0  0  0  0  0  0  0  0  0  0
   14.3596   -6.9187    6.5762 C   0  0  1  0  0  0  0  0  0  0  0  0
   15.0800   -7.4675    7.6560 O   0  0  0  0  0  0  0  0  0  0  0  0
   13.4854   -8.0490    6.0697 C   0  0  1  0  0  0  0  0  0  0  0  0
   13.3511   -7.9156    4.6772 O   0  0  0  0  0  0  0  0  0  0  0  0
   14.2739   -9.2934    6.4244 C   0  0  1  0  0  0  0  0  0  0  0  0
   14.9402   -9.7164    5.2560 O   0  0  0  0  0  0  0  0  0  0  0  0
   15.2788   -8.8608    7.4942 C   0  0  2  0  0  0  0  0  0  0  0  0
   13.6822   -6.4432   12.4405 O   0  0  0  0  0  0  0  0  0  0  0  0
   11.5262   -9.7179   11.0441 N   0  0  0  0  0  0  0  0  0  0  0  0
   11.4186   -9.0510    9.8480 C   0  0  0  0  0  0  0  0  0  0  0  0
   12.5302   -8.9269    9.0438 N   0  0  0  0  0  0  0  0  0  0  0  0
   13.7207   -9.4520    9.4105 C   0  0  0  0  0  0  0  0  0  0  0  0
   13.8415  -10.1403   10.6090 C   0  0  0  0  0  0  0  0  0  0  0  0
   12.7287  -10.2652   11.4381 C   0  0  0  0  0  0  0  0  0  0  0  0
   12.8063  -10.9135   12.6005 N   0  0  0  0  0  0  0  0  0  0  0  0
   15.1273  -10.5627   10.7200 N   0  0  0  0  0  0  0  0  0  0  0  0
   15.7994  -10.1678    9.6141 C   0  0  0  0  0  0  0  0  0  0  0  0
   14.9404   -9.4844    8.7891 N   0  0  0  0  0  0  0  0  0  0  0  0
  2  1  1  6  0  0  0
  2  3  1  0  0  0  0
  2  5  1  0  0  0  0
  3  4  1  0  0  0  0
  3 17  1  0  0  0  0
  5  6  1  0  0  0  0
  7  6  1  1  0  0  0
  7  8  1  0  0  0  0
  7  9  1  0  0  0  0
 10  9  1  1  0  0  0
 10 11  1  0  0  0  0
 10 12  1  0  0  0  0
 11 16  1  0  0  0  0
 12 13  1  6  0  0  0
 12 14  1  0  0  0  0
 14 15  1  6  0  0  0
 14 16  1  0  0  0  0
 16 27  1  1  0  0  0
 18 19  2  0  0  0  0
 18 23  1  0  0  0  0
 19 20  1  0  0  0  0
 20 21  2  0  0  0  0
 21 22  1  0  0  0  0
 21 27  1  0  0  0  0
 22 23  2  0  0  0  0
 22 25  1  0  0  0  0
 23 24  1  0  0  0  0
 25 26  2  0  0  0  0
 26 27  1  0  0  0  0
M  END
>  <CHROM.1>
53.92440116,56.62505500,-91.35827595,-78.71142645,-106.96200282,41.68253582
61.59505631,14.15906401,-7.57534973,9.18916737,-1.96101953,-1.39489082,-1.53699000

>  <Name>
ligand

>  <RI>
0

>  <Rbt.Current_Directory>
/home/itssahil/PROJECTS/Mol_Feturizer/New_Systems/rnas/3GX5

>  <Rbt.Executable>
rbdock ($Id: //depot/dev/client3/rdock/2013.1/src/exe/rbdock.cxx#4 $)

>  <Rbt.Library>
libRbt.so (2013.1, Build901 2013/11/27)

>  <Rbt.Parameter_File>
/export/apps/rDock/src/rDock_2013.1_src/data/scripts/dock_solv.prm

>  <Rbt.Receptor>
prm/pocket_docking_8.prm

>  <SCORE>
-10.3453

>  <SCORE.INTER>
-13.2147

>  <SCORE.INTER.CONST>
1

>  <SCORE.INTER.POLAR>
0

>  <SCORE.INTER.ROT>
7

>  <SCORE.INTER.SOLV>
10.1667

>  <SCORE.INTER.VDW>
-20.4654

>  <SCORE.INTER.norm>
-0.489435

>  <SCORE.INTRA>
2.86945

>  <SCORE.INTRA.DIHEDRAL>
6.55572

>  <SCORE.INTRA.DIHEDRAL.0>
4.28829

>  <SCORE.INTRA.POLAR>
0

>  <SCORE.INTRA.POLAR.0>
0

>  <SCORE.INTRA.REPUL>
0

>  <SCORE.INTRA.REPUL.0>
0

>  <SCORE.INTRA.SOLV>
1.27508

>  <SCORE.INTRA.SOLV.lig_0>
-48.6018

>  <SCORE.INTRA.VDW>
-1.04595

>  <SCORE.INTRA.VDW.0>
-2.1506

>  <SCORE.INTRA.norm>
0.106276

>  <SCORE.RESTR>
0

>  <SCORE.RESTR.CAVITY>
0

>  <SCORE.RESTR.norm>
0

>  <SCORE.SYSTEM>
0

>  <SCORE.SYSTEM.CONST>
0

>  <SCORE.SYSTEM.DIHEDRAL>
0

>  <SCORE.SYSTEM.SOLV>
0

>  <SCORE.SYSTEM.norm>
0

>  <SCORE.heavy>
27

>  <SCORE.norm>
-0.383159

>  <RMSD>
5.416

$$$$
ligand
 OpenBabel11021811483D
libRbt.so/2013.1/901 2013/11/27
 27 29  0  0  0  0  0  0  0  0999 V2000
   16.8185   -7.3045    9.0851 N   0  0  0  0  0  0  0  0  0  0  0  0
   15.6793   -8.0856    8.5993 C   0  0  2  0  0  0  0  0  0  0  0  0
   15.4258   -9.4106    9.3224 C   0  0  0  0  0  0  0  0  0  0  0  0
   14.2674   -9.8064    9.4452 O   0  0  0  0  0  0  0  0  0  0  0  0
   15.7715   -8.3055    7.0987 C   0  0  0  0  0  0  0  0  0  0  0  0
   15.4564   -7.0352    6.3276 C   0  0  0  0  0  0  0  0  0  0  0  0
   13.7006   -6.6460    6.4322 S   0  0  2  0  0  0  0  0  0  0  0  0
   13.1129   -7.4431    4.9227 C   0  0  0  0  0  0  0  0  0  0  0  0
   13.7111   -4.9246    5.8794 C   0  0  0  0  0  0  0  0  0  0  0  0
   14.0173   -3.9874    7.0331 C   0  0  1  0  0  0  0  0  0  0  0  0
   13.1661   -4.2497    8.1252 O   0  0  0  0  0  0  0  0  0  0  0  0
   15.4218   -4.1641    7.5758 C   0  0  1  0  0  0  0  0  0  0  0  0
   16.2677   -3.2522    6.9216 O   0  0  0  0  0  0  0  0  0  0  0  0
   15.2805   -3.8192    9.0445 C   0  0  1  0  0  0  0  0  0  0  0  0
   15.7303   -2.4932    9.2103 O   0  0  0  0  0  0  0  0  0  0  0  0
   13.7866   -3.9274    9.3574 C   0  0  2  0  0  0  0  0  0  0  0  0
   16.3327  -10.1013    9.7950 O   0  0  0  0  0  0  0  0  0  0  0  0
   14.8821   -6.1042   13.9920 N   0  0  0  0  0  0  0  0  0  0  0  0
   15.3412   -4.9099   13.4920 C   0  0  0  0  0  0  0  0  0  0  0  0
   14.9370   -4.5045   12.2390 N   0  0  0  0  0  0  0  0  0  0  0  0
   14.0960   -5.2595   11.4973 C   0  0  0  0  0  0  0  0  0  0  0  0
   13.6130   -6.4613   11.9944 C   0  0  0  0  0  0  0  0  0  0  0  0
   14.0208   -6.8898   13.2559 C   0  0  0  0  0  0  0  0  0  0  0  0
   13.5839   -8.0418   13.7655 N   0  0  0  0  0  0  0  0  0  0  0  0
   12.7920   -7.0010   11.0570 N   0  0  0  0  0  0  0  0  0  0  0  0
   12.7423   -6.1563   10.0012 C   0  0  0  0  0  0  0  0  0  0  0  0
   13.5393   -5.0687   10.2609 N   0  0  0  0  0  0  0  0  0  0  0  0
  2  1  1  1  0  0  0
  2  3  1  0  0  0  0
  2  5  1  0  0  0  0
  3  4  1  0  0  0  0
  3 17  1  0  0  0  0
  5  6  1  0  0  0  0
  7  6  1  6  0  0  0
  7  8  1  0  0  0  0
  7  9  1  0  0  0  0
 10  9  1  6  0  0  0
 10 11  1  0  0  0  0
 10 12  1  0  0  0  0
 11 16  1  0  0  0  0
 12 13  1  6  0  0  0
 12 14  1  0  0  0  0
 14 15  1  6  0  0  0
 14 16  1  0  0  0  0
 16 27  1  1  0  0  0
 18 19  2  0  0  0  0
 18 23  1  0  0  0  0
 19 20  1  0  0  0  0
 20 21  2  0  0  0  0
 21 22  1  0  0  0  0
 21 27  1  0  0  0  0
 22 23  2  0  0  0  0
 22 25  1  0  0  0  0
 23 24  1  0  0  0  0
 25 26  2  0  0  0  0
 26 27  1  0  0  0  0
M  END
>  <CHROM.1>
146.98219791,-73.42056004,-71.38299236,-93.82551151,-84.74198930,-51.58180301
171.34211226,14.55241164,-6.15304014,9.24824167,-1.26867259,-1.52029575,2.01136005

>  <Name>
ligand

>  <RI>
0

>  <Rbt.Current_Directory>
/home/itssahil/PROJECTS/Mol_Feturizer/New_Systems/rnas/3GX5

>  <Rbt.Executable>
rbdock ($Id: //depot/dev/client3/rdock/2013.1/src/exe/rbdock.cxx#4 $)

>  <Rbt.Library>
libRbt.so (2013.1, Build901 2013/11/27)

>  <Rbt.Parameter_File>
/export/apps/rDock/src/rDock_2013.1_src/data/scripts/dock_solv.prm

>  <Rbt.Receptor>
prm/pocket_docking_5.prm

>  <SCORE>
-14.3137

>  <SCORE.INTER>
-14.0005

>  <SCORE.INTER.CONST>
1

>  <SCORE.INTER.POLAR>
0

>  <SCORE.INTER.ROT>
7

>  <SCORE.INTER.SOLV>
6.88311

>  <SCORE.INTER.VDW>
-19.8947

>  <SCORE.INTER.norm>
-0.518537

>  <SCORE.INTRA>
-0.313206

>  <SCORE.INTRA.DIHEDRAL>
2.86844

>  <SCORE.INTRA.DIHEDRAL.0>
4.28829

>  <SCORE.INTRA.POLAR>
0

>  <SCORE.INTRA.POLAR.0>
0

>  <SCORE.INTRA.REPUL>
0

>  <SCORE.INTRA.REPUL.0>
0

>  <SCORE.INTRA.SOLV>
1.25343

>  <SCORE.INTRA.SOLV.lig_0>
-48.6018

>  <SCORE.INTRA.VDW>
-2.37414

>  <SCORE.INTRA.VDW.0>
-2.1506

>  <SCORE.INTRA.norm>
-0.0116002

>  <SCORE.RESTR>
0

>  <SCORE.RESTR.CAVITY>
0

>  <SCORE.RESTR.norm>
0

>  <SCORE.SYSTEM>
0

>  <SCORE.SYSTEM.CONST>
0

>  <SCORE.SYSTEM.DIHEDRAL>
0

>  <SCORE.SYSTEM.SOLV>
0

>  <SCORE.SYSTEM.norm>
0

>  <SCORE.heavy>
27

>  <SCORE.norm>
-0.530137

>  <RMSD>
5.423

$$$$
ligand
 OpenBabel11021811483D
libRbt.so/2013.1/901 2013/11/27
 27 29  0  0  0  0  0  0  0  0999 V2000
   12.9545   -8.5662   15.3319 N   0  0  0  0  0  0  0  0  0  0  0  0
   13.9696   -8.9767   14.3598 C   0  0  2  0  0  0  0  0  0  0  0  0
   14.6168  -10.3408   14.6112 C   0  0  0  0  0  0  0  0  0  0  0  0
   14.1135  -11.3390   14.0975 O   0  0  0  0  0  0  0  0  0  0  0  0
   15.0328   -7.9031   14.1982 C   0  0  0  0  0  0  0  0  0  0  0  0
   15.4570   -7.7509   12.7476 C   0  0  0  0  0  0  0  0  0  0  0  0
   16.5798   -9.0763   12.2703 S   0  0  2  0  0  0  0  0  0  0  0  0
   17.2574   -8.3798   10.7489 C   0  0  0  0  0  0  0  0  0  0  0  0
   15.4105  -10.2609   11.5647 C   0  0  0  0  0  0  0  0  0  0  0  0
   14.2202   -9.5469   10.9510 C   0  0  1  0  0  0  0  0  0  0  0  0
   14.6040   -8.8534    9.7857 O   0  0  0  0  0  0  0  0  0  0  0  0
   13.1310  -10.5010   10.5020 C   0  0  1  0  0  0  0  0  0  0  0  0
   12.2050  -10.6413   11.5497 O   0  0  0  0  0  0  0  0  0  0  0  0
   12.5080   -9.7945    9.3150 C   0  0  1  0  0  0  0  0  0  0  0  0
   11.3274   -9.1713    9.7687 O   0  0  0  0  0  0  0  0  0  0  0  0
   13.5326   -8.7511    8.8646 C   0  0  2  0  0  0  0  0  0  0  0  0
   15.6213  -10.4878   15.3127 O   0  0  0  0  0  0  0  0  0  0  0  0
   17.7818   -8.8314    5.8058 N   0  0  0  0  0  0  0  0  0  0  0  0
   17.6856   -8.3918    7.1038 C   0  0  0  0  0  0  0  0  0  0  0  0
   16.4684   -8.4503    7.7461 N   0  0  0  0  0  0  0  0  0  0  0  0
   15.3711   -8.9347    7.1224 C   0  0  0  0  0  0  0  0  0  0  0  0
   15.4557   -9.3952    5.8165 C   0  0  0  0  0  0  0  0  0  0  0  0
   16.6777   -9.3330    5.1499 C   0  0  0  0  0  0  0  0  0  0  0  0
   16.7978   -9.7595    3.8924 N   0  0  0  0  0  0  0  0  0  0  0  0
   14.2232   -9.8283    5.4459 N   0  0  0  0  0  0  0  0  0  0  0  0
   13.3837   -9.6628    6.4940 C   0  0  0  0  0  0  0  0  0  0  0  0
   14.0810   -9.1166    7.5433 N   0  0  0  0  0  0  0  0  0  0  0  0
  2  1  1  1  0  0  0
  2  3  1  0  0  0  0
  2  5  1  0  0  0  0
  3  4  1  0  0  0  0
  3 17  1  0  0  0  0
  5  6  1  0  0  0  0
  7  6  1  1  0  0  0
  7  8  1  0  0  0  0
  7  9  1  0  0  0  0
 10  9  1  6  0  0  0
 10 11  1  0  0  0  0
 10 12  1  0  0  0  0
 11 16  1  0  0  0  0
 12 13  1  1  0  0  0
 12 14  1  0  0  0  0
 14 15  1  1  0  0  0
 14 16  1  0  0  0  0
 16 27  1  6  0  0  0
 18 19  2  0  0  0  0
 18 23  1  0  0  0  0
 19 20  1  0  0  0  0
 20 21  2  0  0  0  0
 21 22  1  0  0  0  0
 21 27  1  0  0  0  0
 22 23  2  0  0  0  0
 22 25  1  0  0  0  0
 23 24  1  0  0  0  0
 25 26  2  0  0  0  0
 26 27  1  0  0  0  0
M  END
>  <CHROM.1>
90.87259687,-140.28544933,-77.68939355,-164.31891377,30.31313170,69.82479622
-29.78504823,14.88303883,-9.33738081,10.15285138,1.73847415,0.21821575,1.57336840

>  <Name>
ligand

>  <RI>
0

>  <Rbt.Current_Directory>
/home/itssahil/PROJECTS/Mol_Feturizer/New_Systems/rnas/3GX5

>  <Rbt.Executable>
rbdock ($Id: //depot/dev/client3/rdock/2013.1/src/exe/rbdock.cxx#4 $)

>  <Rbt.Library>
libRbt.so (2013.1, Build901 2013/11/27)

>  <Rbt.Parameter_File>
/export/apps/rDock/src/rDock_2013.1_src/data/scripts/dock_solv.prm

>  <Rbt.Receptor>
prm/pocket_docking_6.prm

>  <SCORE>
-3.49381

>  <SCORE.INTER>
-7.06034

>  <SCORE.INTER.CONST>
1

>  <SCORE.INTER.POLAR>
0

>  <SCORE.INTER.ROT>
7

>  <SCORE.INTER.SOLV>
12.5566

>  <SCORE.INTER.VDW>
-17.1591

>  <SCORE.INTER.norm>
-0.261494

>  <SCORE.INTRA>
3.56653

>  <SCORE.INTRA.DIHEDRAL>
7.12932

>  <SCORE.INTRA.DIHEDRAL.0>
4.28829

>  <SCORE.INTRA.POLAR>
0

>  <SCORE.INTRA.POLAR.0>
0

>  <SCORE.INTRA.REPUL>
0

>  <SCORE.INTRA.REPUL.0>
0

>  <SCORE.INTRA.SOLV>
-0.597136

>  <SCORE.INTRA.SOLV.lig_0>
-48.6018

>  <SCORE.INTRA.VDW>
0.300435

>  <SCORE.INTRA.VDW.0>
-2.1506

>  <SCORE.INTRA.norm>
0.132094

>  <SCORE.RESTR>
0

>  <SCORE.RESTR.CAVITY>
0

>  <SCORE.RESTR.norm>
0

>  <SCORE.SYSTEM>
0

>  <SCORE.SYSTEM.CONST>
0

>  <SCORE.SYSTEM.DIHEDRAL>
0

>  <SCORE.SYSTEM.SOLV>
0

>  <SCORE.SYSTEM.norm>
0

>  <SCORE.heavy>
27

>  <SCORE.norm>
-0.1294

>  <RMSD>
5.442

$$$$
ligand
 OpenBabel11021811483D
libRbt.so/2013.1/901 2013/11/27
 27 29  0  0  0  0  0  0  0  0999 V2000
   16.9199   -4.8471   11.1031 N   0  0  0  0  0  0  0  0  0  0  0  0
   15.5989   -4.6198   10.5140 C   0  0  2  0  0  0  0  0  0  0  0  0
   14.4854   -5.5503   11.0010 C   0  0  0  0  0  0  0  0  0  0  0  0
   13.4363   -5.0550   11.4106 O   0  0  0  0  0  0  0  0  0  0  0  0
   15.6727   -4.6245    8.9963 C   0  0  0  0  0  0  0  0  0  0  0  0
   14.3418   -4.2431    8.3711 C   0  0  0  0  0  0  0  0  0  0  0  0
   14.4293   -4.3467    6.5748 S   0  0  2  0  0  0  0  0  0  0  0  0
   12.8332   -3.6230    6.1415 C   0  0  0  0  0  0  0  0  0  0  0  0
   14.0446   -6.0956    6.3263 C   0  0  0  0  0  0  0  0  0  0  0  0
   15.3043   -6.9401    6.3808 C   0  0  1  0  0  0  0  0  0  0  0  0
   15.6665   -7.2059    7.7166 O   0  0  0  0  0  0  0  0  0  0  0  0
   15.1252   -8.3032    5.7417 C   0  0  1  0  0  0  0  0  0  0  0  0
   15.5253   -8.2183    4.3972 O   0  0  0  0  0  0  0  0  0  0  0  0
   16.0622   -9.1922    6.5340 C   0  0  1  0  0  0  0  0  0  0  0  0
   17.2388   -9.3475    5.7727 O   0  0  0  0  0  0  0  0  0  0  0  0
   16.3536   -8.4392    7.8338 C   0  0  2  0  0  0  0  0  0  0  0  0
   14.5930   -6.7796   11.0073 O   0  0  0  0  0  0  0  0  0  0  0  0
   11.9036   -9.6840   10.2966 N   0  0  0  0  0  0  0  0  0  0  0  0
   12.0521   -8.9602    9.1386 C   0  0  0  0  0  0  0  0  0  0  0  0
   13.3175   -8.7342    8.6432 N   0  0  0  0  0  0  0  0  0  0  0  0
   14.4118   -9.2146    9.2752 C   0  0  0  0  0  0  0  0  0  0  0  0
   14.2769   -9.9591   10.4380 C   0  0  0  0  0  0  0  0  0  0  0  0
   13.0042  -10.1873   10.9570 C   0  0  0  0  0  0  0  0  0  0  0  0
   12.8339  -10.8924   12.0757 N   0  0  0  0  0  0  0  0  0  0  0  0
   15.5200  -10.3183   10.8503 N   0  0  0  0  0  0  0  0  0  0  0  0
   16.4175   -9.8292    9.9638 C   0  0  0  0  0  0  0  0  0  0  0  0
   15.7467   -9.1487    8.9776 N   0  0  0  0  0  0  0  0  0  0  0  0
  2  1  1  1  0  0  0
  2  3  1  0  0  0  0
  2  5  1  0  0  0  0
  3  4  1  0  0  0  0
  3 17  1  0  0  0  0
  5  6  1  0  0  0  0
  7  6  1  1  0  0  0
  7  8  1  0  0  0  0
  7  9  1  0  0  0  0
 10  9  1  1  0  0  0
 10 11  1  0  0  0  0
 10 12  1  0  0  0  0
 11 16  1  0  0  0  0
 12 13  1  6  0  0  0
 12 14  1  0  0  0  0
 14 15  1  6  0  0  0
 14 16  1  0  0  0  0
 16 27  1  1  0  0  0
 18 19  2  0  0  0  0
 18 23  1  0  0  0  0
 19 20  1  0  0  0  0
 20 21  2  0  0  0  0
 21 22  1  0  0  0  0
 21 27  1  0  0  0  0
 22 23  2  0  0  0  0
 22 25  1  0  0  0  0
 23 24  1  0  0  0  0
 25 26  2  0  0  0  0
 26 27  1  0  0  0  0
M  END
>  <CHROM.1>
128.25100295,-173.89980370,-176.78897766,-172.19638953,-88.21863571,81.56543382
41.29532494,14.71105165,-7.36124428,8.60636564,1.07588954,1.29185082,-0.20751755

>  <Name>
ligand

>  <RI>
0

>  <Rbt.Current_Directory>
/home/itssahil/PROJECTS/Mol_Feturizer/New_Systems/rnas/3GX5

>  <Rbt.Executable>
rbdock ($Id: //depot/dev/client3/rdock/2013.1/src/exe/rbdock.cxx#4 $)

>  <Rbt.Library>
libRbt.so (2013.1, Build901 2013/11/27)

>  <Rbt.Parameter_File>
/export/apps/rDock/src/rDock_2013.1_src/data/scripts/dock_solv.prm

>  <Rbt.Receptor>
prm/pocket_docking_8.prm

>  <SCORE>
-12.2159

>  <SCORE.INTER>
-10.4271

>  <SCORE.INTER.CONST>
1

>  <SCORE.INTER.POLAR>
0

>  <SCORE.INTER.ROT>
7

>  <SCORE.INTER.SOLV>
12.1643

>  <SCORE.INTER.VDW>
-19.2728

>  <SCORE.INTER.norm>
-0.386189

>  <SCORE.INTRA>
-1.7888

>  <SCORE.INTRA.DIHEDRAL>
2.66804

>  <SCORE.INTRA.DIHEDRAL.0>
4.28829

>  <SCORE.INTRA.POLAR>
0

>  <SCORE.INTRA.POLAR.0>
0

>  <SCORE.INTRA.REPUL>
0

>  <SCORE.INTRA.REPUL.0>
0

>  <SCORE.INTRA.SOLV>
-1.04293

>  <SCORE.INTRA.SOLV.lig_0>
-48.6018

>  <SCORE.INTRA.VDW>
-2.60136

>  <SCORE.INTRA.VDW.0>
-2.1506

>  <SCORE.INTRA.norm>
-0.066252

>  <SCORE.RESTR>
0

>  <SCORE.RESTR.CAVITY>
0

>  <SCORE.RESTR.norm>
0

>  <SCORE.SYSTEM>
0

>  <SCORE.SYSTEM.CONST>
0

>  <SCORE.SYSTEM.DIHEDRAL>
0

>  <SCORE.SYSTEM.SOLV>
0

>  <SCORE.SYSTEM.norm>
0

>  <SCORE.heavy>
27

>  <SCORE.norm>
-0.452441

>  <RMSD>
5.461

$$$$
ligand
 OpenBabel11021811483D
libRbt.so/2013.1/901 2013/11/27
 27 29  0  0  0  0  0  0  0  0999 V2000
   12.9449   -3.0291    7.1637 N   0  0  0  0  0  0  0  0  0  0  0  0
   13.9824   -3.9331    7.6638 C   0  0  2  0  0  0  0  0  0  0  0  0
   13.5144   -4.9923    8.6647 C   0  0  0  0  0  0  0  0  0  0  0  0
   13.7654   -4.8314    9.8584 O   0  0  0  0  0  0  0  0  0  0  0  0
   15.1594   -3.1523    8.2242 C   0  0  0  0  0  0  0  0  0  0  0  0
   16.4820   -3.6779    7.6931 C   0  0  0  0  0  0  0  0  0  0  0  0
   16.5306   -5.4769    7.7737 S   0  0  2  0  0  0  0  0  0  0  0  0
   18.2743   -5.7255    8.1696 C   0  0  0  0  0  0  0  0  0  0  0  0
   16.5604   -5.8850    6.0126 C   0  0  0  0  0  0  0  0  0  0  0  0
   15.6073   -7.0253    5.7049 C   0  0  1  0  0  0  0  0  0  0  0  0
   15.9017   -8.1479    6.5044 O   0  0  0  0  0  0  0  0  0  0  0  0
   14.1638   -6.6846    6.0189 C   0  0  1  0  0  0  0  0  0  0  0  0
   13.5630   -6.1824    4.8520 O   0  0  0  0  0  0  0  0  0  0  0  0
   13.5618   -8.0187    6.4110 C   0  0  1  0  0  0  0  0  0  0  0  0
   12.8638   -8.5112    5.2892 O   0  0  0  0  0  0  0  0  0  0  0  0
   14.7448   -8.9266    6.7541 C   0  0  2  0  0  0  0  0  0  0  0  0
   12.8991   -6.0077    8.3285 O   0  0  0  0  0  0  0  0  0  0  0  0
   11.8944   -9.1749   11.1395 N   0  0  0  0  0  0  0  0  0  0  0  0
   11.4700   -8.8430    9.8758 C   0  0  0  0  0  0  0  0  0  0  0  0
   12.3793   -8.8322    8.8411 N   0  0  0  0  0  0  0  0  0  0  0  0
   13.6781   -9.1449    9.0484 C   0  0  0  0  0  0  0  0  0  0  0  0
   14.1188   -9.4956   10.3162 C   0  0  0  0  0  0  0  0  0  0  0  0
   13.2131   -9.5012   11.3750 C   0  0  0  0  0  0  0  0  0  0  0  0
   13.5995   -9.8262   12.6090 N   0  0  0  0  0  0  0  0  0  0  0  0
   15.4472   -9.7659   10.2365 N   0  0  0  0  0  0  0  0  0  0  0  0
   15.8348   -9.6073    8.9499 C   0  0  0  0  0  0  0  0  0  0  0  0
   14.7489   -9.2295    8.1992 N   0  0  0  0  0  0  0  0  0  0  0  0
  2  1  1  1  0  0  0
  2  3  1  0  0  0  0
  2  5  1  0  0  0  0
  3  4  1  0  0  0  0
  3 17  1  0  0  0  0
  5  6  1  0  0  0  0
  7  6  1  6  0  0  0
  7  8  1  0  0  0  0
  7  9  1  0  0  0  0
 10  9  1  1  0  0  0
 10 11  1  0  0  0  0
 10 12  1  0  0  0  0
 11 16  1  0  0  0  0
 12 13  1  6  0  0  0
 12 14  1  0  0  0  0
 14 15  1  6  0  0  0
 14 16  1  0  0  0  0
 16 27  1  1  0  0  0
 18 19  2  0  0  0  0
 18 23  1  0  0  0  0
 19 20  1  0  0  0  0
 20 21  2  0  0  0  0
 21 22  1  0  0  0  0
 21 27  1  0  0  0  0
 22 23  2  0  0  0  0
 22 25  1  0  0  0  0
 23 24  1  0  0  0  0
 25 26  2  0  0  0  0
 26 27  1  0  0  0  0
M  END
>  <CHROM.1>
-103.64219667,-131.87616502,-45.87321858,-144.56604284,-135.86797093,-55.51878198
134.98091757,14.44880219,-7.03716646,8.13373844,0.53600635,1.17386443,0.38209302

>  <Name>
ligand

>  <RI>
0

>  <Rbt.Current_Directory>
/home/itssahil/PROJECTS/Mol_Feturizer/New_Systems/rnas/3GX5

>  <Rbt.Executable>
rbdock ($Id: //depot/dev/client3/rdock/2013.1/src/exe/rbdock.cxx#4 $)

>  <Rbt.Library>
libRbt.so (2013.1, Build901 2013/11/27)

>  <Rbt.Parameter_File>
/export/apps/rDock/src/rDock_2013.1_src/data/scripts/dock_solv.prm

>  <Rbt.Receptor>
prm/pocket_docking_2.prm

>  <SCORE>
-2.5339

>  <SCORE.INTER>
-9.76162

>  <SCORE.INTER.CONST>
1

>  <SCORE.INTER.POLAR>
0

>  <SCORE.INTER.ROT>
7

>  <SCORE.INTER.SOLV>
11.9786

>  <SCORE.INTER.VDW>
-18.7673

>  <SCORE.INTER.norm>
-0.361541

>  <SCORE.INTRA>
5.45498

>  <SCORE.INTRA.DIHEDRAL>
12.5556

>  <SCORE.INTRA.DIHEDRAL.0>
4.28829

>  <SCORE.INTRA.POLAR>
0

>  <SCORE.INTRA.POLAR.0>
0

>  <SCORE.INTRA.REPUL>
0

>  <SCORE.INTRA.REPUL.0>
0

>  <SCORE.INTRA.SOLV>
0.427007

>  <SCORE.INTRA.SOLV.lig_0>
-48.6018

>  <SCORE.INTRA.VDW>
-1.03633

>  <SCORE.INTRA.VDW.0>
-2.1506

>  <SCORE.INTRA.norm>
0.202036

>  <SCORE.RESTR>
1.77274

>  <SCORE.RESTR.CAVITY>
1.77274

>  <SCORE.RESTR.norm>
0.0656571

>  <SCORE.SYSTEM>
0

>  <SCORE.SYSTEM.CONST>
0

>  <SCORE.SYSTEM.DIHEDRAL>
0

>  <SCORE.SYSTEM.SOLV>
0

>  <SCORE.SYSTEM.norm>
0

>  <SCORE.heavy>
27

>  <SCORE.norm>
-0.0938481

>  <RMSD>
5.481

$$$$
ligand
 OpenBabel11021811483D
libRbt.so/2013.1/901 2013/11/27
 27 29  0  0  0  0  0  0  0  0999 V2000
   18.0736   -4.2710    7.2673 N   0  0  0  0  0  0  0  0  0  0  0  0
   16.8030   -3.6598    7.6621 C   0  0  2  0  0  0  0  0  0  0  0  0
   16.9023   -2.2659    8.2867 C   0  0  0  0  0  0  0  0  0  0  0  0
   16.8542   -1.2817    7.5500 O   0  0  0  0  0  0  0  0  0  0  0  0
   16.0075   -4.5919    8.5606 C   0  0  0  0  0  0  0  0  0  0  0  0
   14.5269   -4.5647    8.2225 C   0  0  0  0  0  0  0  0  0  0  0  0
   14.2826   -4.4154    6.4439 S   0  0  2  0  0  0  0  0  0  0  0  0
   13.0201   -3.1255    6.4085 C   0  0  0  0  0  0  0  0  0  0  0  0
   13.2442   -5.8620    6.1312 C   0  0  0  0  0  0  0  0  0  0  0  0
   14.0937   -7.0916    5.8677 C   0  0  1  0  0  0  0  0  0  0  0  0
   14.8337   -7.4392    7.0157 O   0  0  0  0  0  0  0  0  0  0  0  0
   13.2650   -8.3194    5.5454 C   0  0  1  0  0  0  0  0  0  0  0  0
   13.1274   -8.4074    4.1496 O   0  0  0  0  0  0  0  0  0  0  0  0
   14.1010   -9.4629    6.0836 C   0  0  1  0  0  0  0  0  0  0  0  0
   14.7848  -10.0346    4.9911 O   0  0  0  0  0  0  0  0  0  0  0  0
   15.0868   -8.8320    7.0694 C   0  0  2  0  0  0  0  0  0  0  0  0
   17.0345   -2.0820    9.4998 O   0  0  0  0  0  0  0  0  0  0  0  0
   12.0380   -8.0684   11.2574 N   0  0  0  0  0  0  0  0  0  0  0  0
   11.9900   -7.4158   10.0495 C   0  0  0  0  0  0  0  0  0  0  0  0
   12.8864   -7.7604    9.0618 N   0  0  0  0  0  0  0  0  0  0  0  0
   13.8076   -8.7296    9.2608 C   0  0  0  0  0  0  0  0  0  0  0  0
   13.8593   -9.4071   10.4704 C   0  0  0  0  0  0  0  0  0  0  0  0
   12.9660   -9.0628   11.4827 C   0  0  0  0  0  0  0  0  0  0  0  0
   12.9885   -9.6861   12.6612 N   0  0  0  0  0  0  0  0  0  0  0  0
   14.8600  -10.3219   10.3941 N   0  0  0  0  0  0  0  0  0  0  0  0
   15.4166  -10.2384    9.1637 C   0  0  0  0  0  0  0  0  0  0  0  0
   14.7714   -9.2614    8.4464 N   0  0  0  0  0  0  0  0  0  0  0  0
  2  1  1  1  0  0  0
  2  3  1  0  0  0  0
  2  5  1  0  0  0  0
  3  4  1  0  0  0  0
  3 17  1  0  0  0  0
  5  6  1  0  0  0  0
  7  6  1  1  0  0  0
  7  8  1  0  0  0  0
  7  9  1  0  0  0  0
 10  9  1  1  0  0  0
 10 11  1  0  0  0  0
 10 12  1  0  0  0  0
 11 16  1  0  0  0  0
 12 13  1  6  0  0  0
 12 14  1  0  0  0  0
 14 15  1  6  0  0  0
 14 16  1  0  0  0  0
 16 27  1  1  0  0  0
 18 19  2  0  0  0  0
 18 23  1  0  0  0  0
 19 20  1  0  0  0  0
 20 21  2  0  0  0  0
 21 22  1  0  0  0  0
 21 27  1  0  0  0  0
 22 23  2  0  0  0  0
 22 25  1  0  0  0  0
 23 24  1  0  0  0  0
 25 26  2  0  0  0  0
 26 27  1  0  0  0  0
M  END
>  <CHROM.1>
89.81318983,-139.64539497,37.12880202,-133.78722615,-87.71360702,64.90589462
32.38104050,14.52002907,-6.68854132,7.96175389,-0.24610012,1.21373961,1.57601771

>  <Name>
ligand

>  <RI>
0

>  <Rbt.Current_Directory>
/home/itssahil/PROJECTS/Mol_Feturizer/New_Systems/rnas/3GX5

>  <Rbt.Executable>
rbdock ($Id: //depot/dev/client3/rdock/2013.1/src/exe/rbdock.cxx#4 $)

>  <Rbt.Library>
libRbt.so (2013.1, Build901 2013/11/27)

>  <Rbt.Parameter_File>
/export/apps/rDock/src/rDock_2013.1_src/data/scripts/dock_solv.prm

>  <Rbt.Receptor>
prm/pocket_docking_2.prm

>  <SCORE>
-8.2402

>  <SCORE.INTER>
-13.111

>  <SCORE.INTER.CONST>
1

>  <SCORE.INTER.POLAR>
0

>  <SCORE.INTER.ROT>
7

>  <SCORE.INTER.SOLV>
13.1185

>  <SCORE.INTER.VDW>
-21.3802

>  <SCORE.INTER.norm>
-0.485594

>  <SCORE.INTRA>
3.8519

>  <SCORE.INTRA.DIHEDRAL>
10.1911

>  <SCORE.INTRA.DIHEDRAL.0>
4.28829

>  <SCORE.INTRA.POLAR>
0

>  <SCORE.INTRA.POLAR.0>
0

>  <SCORE.INTRA.REPUL>
0

>  <SCORE.INTRA.REPUL.0>
0

>  <SCORE.INTRA.SOLV>
-0.362679

>  <SCORE.INTRA.SOLV.lig_0>
-48.6018

>  <SCORE.INTRA.VDW>
-1.06231

>  <SCORE.INTRA.VDW.0>
-2.1506

>  <SCORE.INTRA.norm>
0.142663

>  <SCORE.RESTR>
1.01895

>  <SCORE.RESTR.CAVITY>
1.01895

>  <SCORE.RESTR.norm>
0.0377388

>  <SCORE.SYSTEM>
0

>  <SCORE.SYSTEM.CONST>
0

>  <SCORE.SYSTEM.DIHEDRAL>
0

>  <SCORE.SYSTEM.SOLV>
0

>  <SCORE.SYSTEM.norm>
0

>  <SCORE.heavy>
27

>  <SCORE.norm>
-0.305193

>  <RMSD>
5.541

$$$$
ligand
 OpenBabel11021811483D
libRbt.so/2013.1/901 2013/11/27
 27 29  0  0  0  0  0  0  0  0999 V2000
   18.1060   -6.3279    9.0777 N   0  0  0  0  0  0  0  0  0  0  0  0
   16.9986   -5.6660    8.3853 C   0  0  2  0  0  0  0  0  0  0  0  0
   17.3892   -4.7936    7.1899 C   0  0  0  0  0  0  0  0  0  0  0  0
   17.7259   -3.6276    7.3923 O   0  0  0  0  0  0  0  0  0  0  0  0
   16.1394   -4.8802    9.3615 C   0  0  0  0  0  0  0  0  0  0  0  0
   15.4563   -5.7934   10.3649 C   0  0  0  0  0  0  0  0  0  0  0  0
   14.4232   -4.8410   11.4922 S   0  0  2  0  0  0  0  0  0  0  0  0
   15.6709   -4.3023   12.6806 C   0  0  0  0  0  0  0  0  0  0  0  0
   13.6571   -6.1742   12.4432 C   0  0  0  0  0  0  0  0  0  0  0  0
   12.5452   -6.8354   11.6498 C   0  0  1  0  0  0  0  0  0  0  0  0
   12.7937   -6.7328   10.2664 O   0  0  0  0  0  0  0  0  0  0  0  0
   12.4346   -8.3227   11.9218 C   0  0  1  0  0  0  0  0  0  0  0  0
   11.4946   -8.5168   12.9483 O   0  0  0  0  0  0  0  0  0  0  0  0
   11.9317   -8.8870   10.6085 C   0  0  1  0  0  0  0  0  0  0  0  0
   10.5423   -9.0872   10.7413 O   0  0  0  0  0  0  0  0  0  0  0  0
   12.2265   -7.8181    9.5540 C   0  0  2  0  0  0  0  0  0  0  0  0
   17.3770   -5.2049    6.0265 O   0  0  0  0  0  0  0  0  0  0  0  0
   14.2692   -7.4104    4.7499 N   0  0  0  0  0  0  0  0  0  0  0  0
   13.2196   -6.7020    5.2826 C   0  0  0  0  0  0  0  0  0  0  0  0
   12.8239   -6.9560    6.5774 N   0  0  0  0  0  0  0  0  0  0  0  0
   13.4520   -7.8864    7.3308 C   0  0  0  0  0  0  0  0  0  0  0  0
   14.5224   -8.5999    6.8114 C   0  0  0  0  0  0  0  0  0  0  0  0
   14.9278   -8.3616    5.4998 C   0  0  0  0  0  0  0  0  0  0  0  0
   15.9478   -9.0314    4.9627 N   0  0  0  0  0  0  0  0  0  0  0  0
   14.9641   -9.4497    7.7741 N   0  0  0  0  0  0  0  0  0  0  0  0
   14.2053   -9.2680    8.8794 C   0  0  0  0  0  0  0  0  0  0  0  0
   13.2681   -8.2975    8.6238 N   0  0  0  0  0  0  0  0  0  0  0  0
  2  1  1  1  0  0  0
  2  3  1  0  0  0  0
  2  5  1  0  0  0  0
  3  4  1  0  0  0  0
  3 17  1  0  0  0  0
  5  6  1  0  0  0  0
  7  6  1  6  0  0  0
  7  8  1  0  0  0  0
  7  9  1  0  0  0  0
 10  9  1  1  0  0  0
 10 11  1  0  0  0  0
 10 12  1  0  0  0  0
 11 16  1  0  0  0  0
 12 13  1  1  0  0  0
 12 14  1  0  0  0  0
 14 15  1  1  0  0  0
 14 16  1  0  0  0  0
 16 27  1  6  0  0  0
 18 19  2  0  0  0  0
 18 23  1  0  0  0  0
 19 20  1  0  0  0  0
 20 21  2  0  0  0  0
 21 22  1  0  0  0  0
 21 27  1  0  0  0  0
 22 23  2  0  0  0  0
 22 25  1  0  0  0  0
 23 24  1  0  0  0  0
 25 26  2  0  0  0  0
 26 27  1  0  0  0  0
M  END
>  <CHROM.1>
-85.25091917,-64.38141338,-179.05227473,-82.72520937,-77.26583570,28.21104430
-91.73512383,14.39176679,-6.88640838,9.02780691,-0.73645424,0.69415984,1.15536011

>  <Name>
ligand

>  <RI>
0

>  <Rbt.Current_Directory>
/home/itssahil/PROJECTS/Mol_Feturizer/New_Systems/rnas/3GX5

>  <Rbt.Executable>
rbdock ($Id: //depot/dev/client3/rdock/2013.1/src/exe/rbdock.cxx#4 $)

>  <Rbt.Library>
libRbt.so (2013.1, Build901 2013/11/27)

>  <Rbt.Parameter_File>
/export/apps/rDock/src/rDock_2013.1_src/data/scripts/dock_solv.prm

>  <Rbt.Receptor>
prm/pocket_docking_5.prm

>  <SCORE>
-10.5285

>  <SCORE.INTER>
-11.6263

>  <SCORE.INTER.CONST>
1

>  <SCORE.INTER.POLAR>
0

>  <SCORE.INTER.ROT>
7

>  <SCORE.INTER.SOLV>
10.2054

>  <SCORE.INTER.VDW>
-19.4194

>  <SCORE.INTER.norm>
-0.430605

>  <SCORE.INTRA>
1.09788

>  <SCORE.INTRA.DIHEDRAL>
2.90825

>  <SCORE.INTRA.DIHEDRAL.0>
4.28829

>  <SCORE.INTRA.POLAR>
0

>  <SCORE.INTRA.POLAR.0>
0

>  <SCORE.INTRA.REPUL>
0

>  <SCORE.INTRA.REPUL.0>
0

>  <SCORE.INTRA.SOLV>
-0.473026

>  <SCORE.INTRA.SOLV.lig_0>
-48.6018

>  <SCORE.INTRA.VDW>
-0.119732

>  <SCORE.INTRA.VDW.0>
-2.1506

>  <SCORE.INTRA.norm>
0.0406623

>  <SCORE.RESTR>
0

>  <SCORE.RESTR.CAVITY>
0

>  <SCORE.RESTR.norm>
0

>  <SCORE.SYSTEM>
0

>  <SCORE.SYSTEM.CONST>
0

>  <SCORE.SYSTEM.DIHEDRAL>
0

>  <SCORE.SYSTEM.SOLV>
0

>  <SCORE.SYSTEM.norm>
0

>  <SCORE.heavy>
27

>  <SCORE.norm>
-0.389943

>  <RMSD>
5.544

$$$$
ligand
 OpenBabel11021811483D
libRbt.so/2013.1/901 2013/11/27
 27 29  0  0  0  0  0  0  0  0999 V2000
   16.6716   -6.5613    9.9628 N   0  0  0  0  0  0  0  0  0  0  0  0
   17.6680   -5.5385    9.6389 C   0  0  2  0  0  0  0  0  0  0  0  0
   19.1169   -5.8891    9.9861 C   0  0  0  0  0  0  0  0  0  0  0  0
   19.7466   -6.6247    9.2271 O   0  0  0  0  0  0  0  0  0  0  0  0
   17.2847   -4.1968   10.2404 C   0  0  0  0  0  0  0  0  0  0  0  0
   16.0611   -3.6084    9.5592 C   0  0  0  0  0  0  0  0  0  0  0  0
   16.3851   -3.3139    7.8118 S   0  0  2  0  0  0  0  0  0  0  0  0
   17.1689   -1.6905    7.9080 C   0  0  0  0  0  0  0  0  0  0  0  0
   14.7390   -2.8210    7.2497 C   0  0  0  0  0  0  0  0  0  0  0  0
   13.9333   -4.0290    6.8083 C   0  0  1  0  0  0  0  0  0  0  0  0
   14.5654   -4.6803    5.7302 O   0  0  0  0  0  0  0  0  0  0  0  0
   13.8146   -5.0829    7.8916 C   0  0  1  0  0  0  0  0  0  0  0  0
   12.6281   -4.8506    8.6079 O   0  0  0  0  0  0  0  0  0  0  0  0
   13.7371   -6.3820    7.1154 C   0  0  1  0  0  0  0  0  0  0  0  0
   12.3787   -6.7548    7.0539 O   0  0  0  0  0  0  0  0  0  0  0  0
   14.2760   -6.0671    5.7184 C   0  0  2  0  0  0  0  0  0  0  0  0
   19.6841   -5.4713   10.9992 O   0  0  0  0  0  0  0  0  0  0  0  0
   16.6557  -10.2368    3.6280 N   0  0  0  0  0  0  0  0  0  0  0  0
   15.3205   -9.9170    3.5819 C   0  0  0  0  0  0  0  0  0  0  0  0
   14.8818   -8.7665    4.1996 N   0  0  0  0  0  0  0  0  0  0  0  0
   15.7422   -7.9483    4.8460 C   0  0  0  0  0  0  0  0  0  0  0  0
   17.0954   -8.2507    4.8892 C   0  0  0  0  0  0  0  0  0  0  0  0
   17.5529   -9.4161    4.2779 C   0  0  0  0  0  0  0  0  0  0  0  0
   18.8449   -9.7446    4.3034 N   0  0  0  0  0  0  0  0  0  0  0  0
   17.7209   -7.2670    5.5858 N   0  0  0  0  0  0  0  0  0  0  0  0
   16.7921   -6.3569    5.9596 C   0  0  0  0  0  0  0  0  0  0  0  0
   15.5616   -6.7605    5.5029 N   0  0  0  0  0  0  0  0  0  0  0  0
  2  1  1  1  0  0  0
  2  3  1  0  0  0  0
  2  5  1  0  0  0  0
  3  4  1  0  0  0  0
  3 17  1  0  0  0  0
  5  6  1  0  0  0  0
  7  6  1  1  0  0  0
  7  8  1  0  0  0  0
  7  9  1  0  0  0  0
 10  9  1  1  0  0  0
 10 11  1  0  0  0  0
 10 12  1  0  0  0  0
 11 16  1  0  0  0  0
 12 13  1  6  0  0  0
 12 14  1  0  0  0  0
 14 15  1  6  0  0  0
 14 16  1  0  0  0  0
 16 27  1  1  0  0  0
 18 19  2  0  0  0  0
 18 23  1  0  0  0  0
 19 20  1  0  0  0  0
 20 21  2  0  0  0  0
 21 22  1  0  0  0  0
 21 27  1  0  0  0  0
 22 23  2  0  0  0  0
 22 25  1  0  0  0  0
 23 24  1  0  0  0  0
 25 26  2  0  0  0  0
 26 27  1  0  0  0  0
M  END
>  <CHROM.1>
79.65057592,-69.09462861,-61.51106604,-84.61096135,-89.46942116,-61.12229502
-148.44704350,16.14819990,-6.02632834,7.08606828,-1.49377316,0.41286008,-2.39974042

>  <Name>
ligand

>  <RI>
0

>  <Rbt.Current_Directory>
/home/itssahil/PROJECTS/Mol_Feturizer/New_Systems/rnas/3GX5

>  <Rbt.Executable>
rbdock ($Id: //depot/dev/client3/rdock/2013.1/src/exe/rbdock.cxx#4 $)

>  <Rbt.Library>
libRbt.so (2013.1, Build901 2013/11/27)

>  <Rbt.Parameter_File>
/export/apps/rDock/src/rDock_2013.1_src/data/scripts/dock_solv.prm

>  <Rbt.Receptor>
prm/pocket_docking_8.prm

>  <SCORE>
-19.204

>  <SCORE.INTER>
-19.3265

>  <SCORE.INTER.CONST>
1

>  <SCORE.INTER.POLAR>
0

>  <SCORE.INTER.ROT>
7

>  <SCORE.INTER.SOLV>
12.6485

>  <SCORE.INTER.VDW>
-25.3671

>  <SCORE.INTER.norm>
-0.715795

>  <SCORE.INTRA>
0.122448

>  <SCORE.INTRA.DIHEDRAL>
1.22707

>  <SCORE.INTRA.DIHEDRAL.0>
4.28829

>  <SCORE.INTRA.POLAR>
0

>  <SCORE.INTRA.POLAR.0>
0

>  <SCORE.INTRA.REPUL>
0

>  <SCORE.INTRA.REPUL.0>
0

>  <SCORE.INTRA.SOLV>
1.12103

>  <SCORE.INTRA.SOLV.lig_0>
-48.6018

>  <SCORE.INTRA.VDW>
-1.0516

>  <SCORE.INTRA.VDW.0>
-2.1506

>  <SCORE.INTRA.norm>
0.0045351

>  <SCORE.RESTR>
0

>  <SCORE.RESTR.CAVITY>
0

>  <SCORE.RESTR.norm>
0

>  <SCORE.SYSTEM>
0

>  <SCORE.SYSTEM.CONST>
0

>  <SCORE.SYSTEM.DIHEDRAL>
0

>  <SCORE.SYSTEM.SOLV>
0

>  <SCORE.SYSTEM.norm>
0

>  <SCORE.heavy>
27

>  <SCORE.norm>
-0.71126

>  <RMSD>
5.550

$$$$
ligand
 OpenBabel11021811483D
libRbt.so/2013.1/901 2013/11/27
 27 29  0  0  0  0  0  0  0  0999 V2000
   18.6035   -5.7782   11.2831 N   0  0  0  0  0  0  0  0  0  0  0  0
   17.4682   -5.4187   10.4314 C   0  0  2  0  0  0  0  0  0  0  0  0
   17.5255   -5.9398    8.9933 C   0  0  0  0  0  0  0  0  0  0  0  0
   16.5996   -6.6354    8.5779 O   0  0  0  0  0  0  0  0  0  0  0  0
   17.2314   -3.9179   10.4462 C   0  0  0  0  0  0  0  0  0  0  0  0
   15.9811   -3.5419    9.6699 C   0  0  0  0  0  0  0  0  0  0  0  0
   16.3569   -3.3318    7.9207 S   0  0  2  0  0  0  0  0  0  0  0  0
   17.1611   -1.7161    7.9652 C   0  0  0  0  0  0  0  0  0  0  0  0
   14.7340   -2.8433    7.2912 C   0  0  0  0  0  0  0  0  0  0  0  0
   13.9322   -4.0577    6.8608 C   0  0  1  0  0  0  0  0  0  0  0  0
   14.5359   -4.6837    5.7517 O   0  0  0  0  0  0  0  0  0  0  0  0
   13.8683   -5.1285    7.9321 C   0  0  1  0  0  0  0  0  0  0  0  0
   12.7043   -4.9254    8.6929 O   0  0  0  0  0  0  0  0  0  0  0  0
   13.7836   -6.4177    7.1403 C   0  0  1  0  0  0  0  0  0  0  0  0
   12.4299   -6.8114    7.1210 O   0  0  0  0  0  0  0  0  0  0  0  0
   14.2679   -6.0746    5.7299 C   0  0  2  0  0  0  0  0  0  0  0  0
   18.4639   -5.6985    8.2291 O   0  0  0  0  0  0  0  0  0  0  0  0
   16.6258  -10.2481    3.6225 N   0  0  0  0  0  0  0  0  0  0  0  0
   15.2826   -9.9608    3.6454 C   0  0  0  0  0  0  0  0  0  0  0  0
   14.8519   -8.8030    4.2550 N   0  0  0  0  0  0  0  0  0  0  0  0
   15.7275   -7.9463    4.8268 C   0  0  0  0  0  0  0  0  0  0  0  0
   17.0881   -8.2159    4.7994 C   0  0  0  0  0  0  0  0  0  0  0  0
   17.5384   -9.3880    4.1956 C   0  0  0  0  0  0  0  0  0  0  0  0
   18.8374   -9.6857    4.1548 N   0  0  0  0  0  0  0  0  0  0  0  0
   17.7282   -7.1979    5.4303 N   0  0  0  0  0  0  0  0  0  0  0  0
   16.8002   -6.2989    5.8319 C   0  0  0  0  0  0  0  0  0  0  0  0
   15.5558   -6.7441    5.4593 N   0  0  0  0  0  0  0  0  0  0  0  0
  2  1  1  6  0  0  0
  2  3  1  0  0  0  0
  2  5  1  0  0  0  0
  3  4  1  0  0  0  0
  3 17  1  0  0  0  0
  5  6  1  0  0  0  0
  7  6  1  1  0  0  0
  7  8  1  0  0  0  0
  7  9  1  0  0  0  0
 10  9  1  1  0  0  0
 10 11  1  0  0  0  0
 10 12  1  0  0  0  0
 11 16  1  0  0  0  0
 12 13  1  1  0  0  0
 12 14  1  0  0  0  0
 14 15  1  6  0  0  0
 14 16  1  0  0  0  0
 16 27  1  1  0  0  0
 18 19  2  0  0  0  0
 18 23  1  0  0  0  0
 19 20  1  0  0  0  0
 20 21  2  0  0  0  0
 21 22  1  0  0  0  0
 21 27  1  0  0  0  0
 22 23  2  0  0  0  0
 22 25  1  0  0  0  0
 23 24  1  0  0  0  0
 25 26  2  0  0  0  0
 26 27  1  0  0  0  0
M  END
>  <CHROM.1>
123.18858116,-174.79639790,-86.26023371,-76.24467362,-90.42267184,-65.95701365
-151.28601240,15.97795662,-5.99992682,7.00606772,-1.59774837,0.34367682,-2.38721931

>  <Name>
ligand

>  <RI>
0

>  <Rbt.Current_Directory>
/home/itssahil/PROJECTS/Mol_Feturizer/New_Systems/rnas/3GX5

>  <Rbt.Executable>
rbdock ($Id: //depot/dev/client3/rdock/2013.1/src/exe/rbdock.cxx#4 $)

>  <Rbt.Library>
libRbt.so (2013.1, Build901 2013/11/27)

>  <Rbt.Parameter_File>
/export/apps/rDock/src/rDock_2013.1_src/data/scripts/dock_solv.prm

>  <Rbt.Receptor>
prm/pocket_docking_8.prm

>  <SCORE>
-16.5595

>  <SCORE.INTER>
-15.4398

>  <SCORE.INTER.CONST>
1

>  <SCORE.INTER.POLAR>
0

>  <SCORE.INTER.ROT>
7

>  <SCORE.INTER.SOLV>
17.884

>  <SCORE.INTER.VDW>
-24.5212

>  <SCORE.INTER.norm>
-0.571845

>  <SCORE.INTRA>
-1.11972

>  <SCORE.INTRA.DIHEDRAL>
2.88332

>  <SCORE.INTRA.DIHEDRAL.0>
4.28829

>  <SCORE.INTRA.POLAR>
0

>  <SCORE.INTRA.POLAR.0>
0

>  <SCORE.INTRA.REPUL>
0

>  <SCORE.INTRA.REPUL.0>
0

>  <SCORE.INTRA.SOLV>
-0.818237

>  <SCORE.INTRA.SOLV.lig_0>
-48.6018

>  <SCORE.INTRA.VDW>
-2.15226

>  <SCORE.INTRA.VDW.0>
-2.1506

>  <SCORE.INTRA.norm>
-0.0414711

>  <SCORE.RESTR>
0

>  <SCORE.RESTR.CAVITY>
0

>  <SCORE.RESTR.norm>
0

>  <SCORE.SYSTEM>
0

>  <SCORE.SYSTEM.CONST>
0

>  <SCORE.SYSTEM.DIHEDRAL>
0

>  <SCORE.SYSTEM.SOLV>
0

>  <SCORE.SYSTEM.norm>
0

>  <SCORE.heavy>
27

>  <SCORE.norm>
-0.613316

>  <RMSD>
5.555

$$$$
ligand
 OpenBabel11021811483D
libRbt.so/2013.1/901 2013/11/27
 27 29  0  0  0  0  0  0  0  0999 V2000
   14.4938   -8.2163   13.3906 N   0  0  0  0  0  0  0  0  0  0  0  0
   14.6031   -9.6348   13.7365 C   0  0  2  0  0  0  0  0  0  0  0  0
   15.9633  -10.0841   14.2756 C   0  0  0  0  0  0  0  0  0  0  0  0
   16.9362  -10.0603   13.5229 O   0  0  0  0  0  0  0  0  0  0  0  0
   14.1738  -10.5125   12.5728 C   0  0  0  0  0  0  0  0  0  0  0  0
   12.6832  -10.3957   12.3051 C   0  0  0  0  0  0  0  0  0  0  0  0
   12.3169   -8.8879   11.3900 S   0  0  2  0  0  0  0  0  0  0  0  0
   10.5183   -9.0091   11.2938 C   0  0  0  0  0  0  0  0  0  0  0  0
   12.7441   -9.4086    9.7122 C   0  0  0  0  0  0  0  0  0  0  0  0
   13.7682   -8.4716    9.0987 C   0  0  1  0  0  0  0  0  0  0  0  0
   14.8578   -8.2859    9.9730 O   0  0  0  0  0  0  0  0  0  0  0  0
   14.3752   -9.0201    7.8223 C   0  0  1  0  0  0  0  0  0  0  0  0
   13.6303   -8.5356    6.7335 O   0  0  0  0  0  0  0  0  0  0  0  0
   15.7776   -8.4464    7.8215 C   0  0  1  0  0  0  0  0  0  0  0  0
   15.7753   -7.3309    6.9591 O   0  0  0  0  0  0  0  0  0  0  0  0
   16.0539   -8.0155    9.2635 C   0  0  2  0  0  0  0  0  0  0  0  0
   16.1298  -10.4763   15.4338 O   0  0  0  0  0  0  0  0  0  0  0  0
   21.1661   -8.5837   10.2434 N   0  0  0  0  0  0  0  0  0  0  0  0
   20.5373   -7.5260    9.6325 C   0  0  0  0  0  0  0  0  0  0  0  0
   19.1708   -7.5622    9.4621 N   0  0  0  0  0  0  0  0  0  0  0  0
   18.4408   -8.6174    9.8878 C   0  0  0  0  0  0  0  0  0  0  0  0
   19.0599   -9.6865   10.5189 C   0  0  0  0  0  0  0  0  0  0  0  0
   20.4426   -9.6692   10.6894 C   0  0  0  0  0  0  0  0  0  0  0  0
   21.0749  -10.6807   11.2851 N   0  0  0  0  0  0  0  0  0  0  0  0
   18.1008  -10.5907   10.8456 N   0  0  0  0  0  0  0  0  0  0  0  0
   16.9041  -10.1006   10.4476 C   0  0  0  0  0  0  0  0  0  0  0  0
   17.0964   -8.8752    9.8586 N   0  0  0  0  0  0  0  0  0  0  0  0
  2  1  1  6  0  0  0
  2  3  1  0  0  0  0
  2  5  1  0  0  0  0
  3  4  1  0  0  0  0
  3 17  1  0  0  0  0
  5  6  1  0  0  0  0
  7  6  1  1  0  0  0
  7  8  1  0  0  0  0
  7  9  1  0  0  0  0
 10  9  1  1  0  0  0
 10 11  1  0  0  0  0
 10 12  1  0  0  0  0
 11 16  1  0  0  0  0
 12 13  1  6  0  0  0
 12 14  1  0  0  0  0
 14 15  1  6  0  0  0
 14 16  1  0  0  0  0
 16 27  1  1  0  0  0
 18 19  2  0  0  0  0
 18 23  1  0  0  0  0
 19 20  1  0  0  0  0
 20 21  2  0  0  0  0
 21 22  1  0  0  0  0
 21 27  1  0  0  0  0
 22 23  2  0  0  0  0
 22 25  1  0  0  0  0
 23 24  1  0  0  0  0
 25 26  2  0  0  0  0
 26 27  1  0  0  0  0
M  END
>  <CHROM.1>
-66.62942764,-68.31357802,78.93640420,-177.88513404,-124.47257177,50.45424907
-152.67408781,15.90846111,-9.12056707,10.71131309,-3.04839919,0.02017702
-1.25711338

>  <Name>
ligand

>  <RI>
0

>  <Rbt.Current_Directory>
/home/itssahil/PROJECTS/Mol_Feturizer/New_Systems/rnas/3GX5

>  <Rbt.Executable>
rbdock ($Id: //depot/dev/client3/rdock/2013.1/src/exe/rbdock.cxx#4 $)

>  <Rbt.Library>
libRbt.so (2013.1, Build901 2013/11/27)

>  <Rbt.Parameter_File>
/export/apps/rDock/src/rDock_2013.1_src/data/scripts/dock_solv.prm

>  <Rbt.Receptor>
prm/pocket_docking_8.prm

>  <SCORE>
-5.71814

>  <SCORE.INTER>
-7.46713

>  <SCORE.INTER.CONST>
1

>  <SCORE.INTER.POLAR>
0

>  <SCORE.INTER.ROT>
7

>  <SCORE.INTER.SOLV>
8.73966

>  <SCORE.INTER.VDW>
-16.158

>  <SCORE.INTER.norm>
-0.27656

>  <SCORE.INTRA>
1.74899

>  <SCORE.INTRA.DIHEDRAL>
5.53217

>  <SCORE.INTRA.DIHEDRAL.0>
4.28829

>  <SCORE.INTRA.POLAR>
0

>  <SCORE.INTRA.POLAR.0>
0

>  <SCORE.INTRA.REPUL>
0

>  <SCORE.INTRA.REPUL.0>
0

>  <SCORE.INTRA.SOLV>
1.95711

>  <SCORE.INTRA.SOLV.lig_0>
-48.6018

>  <SCORE.INTRA.VDW>
-1.99565

>  <SCORE.INTRA.VDW.0>
-2.1506

>  <SCORE.INTRA.norm>
0.0647775

>  <SCORE.RESTR>
0

>  <SCORE.RESTR.CAVITY>
0

>  <SCORE.RESTR.norm>
0

>  <SCORE.SYSTEM>
0

>  <SCORE.SYSTEM.CONST>
0

>  <SCORE.SYSTEM.DIHEDRAL>
0

>  <SCORE.SYSTEM.SOLV>
0

>  <SCORE.SYSTEM.norm>
0

>  <SCORE.heavy>
27

>  <SCORE.norm>
-0.211783

>  <RMSD>
5.569

$$$$
ligand
 OpenBabel11021811483D
libRbt.so/2013.1/901 2013/11/27
 27 29  0  0  0  0  0  0  0  0999 V2000
   17.0041   -5.4570   11.5661 N   0  0  0  0  0  0  0  0  0  0  0  0
   17.5870   -5.8918   10.2952 C   0  0  2  0  0  0  0  0  0  0  0  0
   19.0611   -6.3006   10.3459 C   0  0  0  0  0  0  0  0  0  0  0  0
   19.3573   -7.4764   10.1372 O   0  0  0  0  0  0  0  0  0  0  0  0
   17.3579   -4.8541    9.2091 C   0  0  0  0  0  0  0  0  0  0  0  0
   17.9054   -5.3169    7.8699 C   0  0  0  0  0  0  0  0  0  0  0  0
   16.9450   -6.7020    7.2340 S   0  0  2  0  0  0  0  0  0  0  0  0
   18.2220   -7.5615    6.2907 C   0  0  0  0  0  0  0  0  0  0  0  0
   16.0609   -5.8955    5.8788 C   0  0  0  0  0  0  0  0  0  0  0  0
   14.6602   -5.4980    6.3068 C   0  0  1  0  0  0  0  0  0  0  0  0
   13.8686   -6.6408    6.5380 O   0  0  0  0  0  0  0  0  0  0  0  0
   14.6414   -4.7334    7.6158 C   0  0  1  0  0  0  0  0  0  0  0  0
   14.6869   -3.3588    7.3268 O   0  0  0  0  0  0  0  0  0  0  0  0
   13.3111   -5.1170    8.2315 C   0  0  1  0  0  0  0  0  0  0  0  0
   12.4097   -4.0635    7.9756 O   0  0  0  0  0  0  0  0  0  0  0  0
   12.8703   -6.3937    7.5124 C   0  0  2  0  0  0  0  0  0  0  0  0
   19.9703   -5.5037   10.5929 O   0  0  0  0  0  0  0  0  0  0  0  0
   11.3217   -8.2477   12.1581 N   0  0  0  0  0  0  0  0  0  0  0  0
   11.0284   -7.0287   11.5967 C   0  0  0  0  0  0  0  0  0  0  0  0
   11.5355   -6.7204   10.3535 N   0  0  0  0  0  0  0  0  0  0  0  0
   12.3123   -7.5968    9.6782 C   0  0  0  0  0  0  0  0  0  0  0  0
   12.6057   -8.8371   10.2261 C   0  0  0  0  0  0  0  0  0  0  0  0
   12.1086   -9.1596   11.4872 C   0  0  0  0  0  0  0  0  0  0  0  0
   12.3738  -10.3387   12.0502 N   0  0  0  0  0  0  0  0  0  0  0  0
   13.3863   -9.5100    9.3419 N   0  0  0  0  0  0  0  0  0  0  0  0
   13.5690   -8.7245    8.2555 C   0  0  0  0  0  0  0  0  0  0  0  0
   12.9040   -7.5381    8.4448 N   0  0  0  0  0  0  0  0  0  0  0  0
  2  1  1  1  0  0  0
  2  3  1  0  0  0  0
  2  5  1  0  0  0  0
  3  4  1  0  0  0  0
  3 17  1  0  0  0  0
  5  6  1  0  0  0  0
  7  6  1  1  0  0  0
  7  8  1  0  0  0  0
  7  9  1  0  0  0  0
 10  9  1  1  0  0  0
 10 11  1  0  0  0  0
 10 12  1  0  0  0  0
 11 16  1  0  0  0  0
 12 13  1  6  0  0  0
 12 14  1  0  0  0  0
 14 15  1  6  0  0  0
 14 16  1  0  0  0  0
 16 27  1  1  0  0  0
 18 19  2  0  0  0  0
 18 23  1  0  0  0  0
 19 20  1  0  0  0  0
 20 21  2  0  0  0  0
 21 22  1  0  0  0  0
 21 27  1  0  0  0  0
 22 23  2  0  0  0  0
 22 25  1  0  0  0  0
 23 24  1  0  0  0  0
 25 26  2  0  0  0  0
 26 27  1  0  0  0  0
M  END
>  <CHROM.1>
113.74077541,-177.58296380,68.25335159,-150.18699707,-97.88333812,-67.42365255
165.71840204,14.96532345,-6.63040414,8.92702961,-0.42117091,0.12880262,2.14396511

>  <Name>
ligand

>  <RI>
0

>  <Rbt.Current_Directory>
/home/itssahil/PROJECTS/Mol_Feturizer/New_Systems/rnas/3GX5

>  <Rbt.Executable>
rbdock ($Id: //depot/dev/client3/rdock/2013.1/src/exe/rbdock.cxx#4 $)

>  <Rbt.Library>
libRbt.so (2013.1, Build901 2013/11/27)

>  <Rbt.Parameter_File>
/export/apps/rDock/src/rDock_2013.1_src/data/scripts/dock_solv.prm

>  <Rbt.Receptor>
prm/pocket_docking_5.prm

>  <SCORE>
-8.2523

>  <SCORE.INTER>
-9.63576

>  <SCORE.INTER.CONST>
1

>  <SCORE.INTER.POLAR>
0

>  <SCORE.INTER.ROT>
7

>  <SCORE.INTER.SOLV>
11.6133

>  <SCORE.INTER.VDW>
-18.5616

>  <SCORE.INTER.norm>
-0.35688

>  <SCORE.INTRA>
1.38346

>  <SCORE.INTRA.DIHEDRAL>
4.77179

>  <SCORE.INTRA.DIHEDRAL.0>
4.28829

>  <SCORE.INTRA.POLAR>
0

>  <SCORE.INTRA.POLAR.0>
0

>  <SCORE.INTRA.REPUL>
0

>  <SCORE.INTRA.REPUL.0>
0

>  <SCORE.INTRA.SOLV>
-0.656048

>  <SCORE.INTRA.SOLV.lig_0>
-48.6018

>  <SCORE.INTRA.VDW>
-0.674416

>  <SCORE.INTRA.VDW.0>
-2.1506

>  <SCORE.INTRA.norm>
0.0512392

>  <SCORE.RESTR>
0

>  <SCORE.RESTR.CAVITY>
0

>  <SCORE.RESTR.norm>
0

>  <SCORE.SYSTEM>
0

>  <SCORE.SYSTEM.CONST>
0

>  <SCORE.SYSTEM.DIHEDRAL>
0

>  <SCORE.SYSTEM.SOLV>
0

>  <SCORE.SYSTEM.norm>
0

>  <SCORE.heavy>
27

>  <SCORE.norm>
-0.305641

>  <RMSD>
5.575

$$$$
ligand
 OpenBabel11021811483D
libRbt.so/2013.1/901 2013/11/27
 27 29  0  0  0  0  0  0  0  0999 V2000
   16.7658   -4.3550    8.5988 N   0  0  0  0  0  0  0  0  0  0  0  0
   16.6115   -3.2155    7.6924 C   0  0  2  0  0  0  0  0  0  0  0  0
   16.9869   -1.8498    8.2726 C   0  0  0  0  0  0  0  0  0  0  0  0
   17.1569   -1.7484    9.4869 O   0  0  0  0  0  0  0  0  0  0  0  0
   15.2126   -3.1776    7.1003 C   0  0  0  0  0  0  0  0  0  0  0  0
   14.8220   -4.5189    6.5040 C   0  0  0  0  0  0  0  0  0  0  0  0
   13.1813   -4.4335    5.7650 S   0  0  2  0  0  0  0  0  0  0  0  0
   12.2651   -3.6758    7.1236 C   0  0  0  0  0  0  0  0  0  0  0  0
   12.6430   -6.1486    5.9581 C   0  0  0  0  0  0  0  0  0  0  0  0
   13.8067   -7.1052    5.7747 C   0  0  1  0  0  0  0  0  0  0  0  0
   14.5017   -7.2800    6.9882 O   0  0  0  0  0  0  0  0  0  0  0  0
   13.3638   -8.4973    5.3694 C   0  0  1  0  0  0  0  0  0  0  0  0
   13.3848   -8.5781    3.9665 O   0  0  0  0  0  0  0  0  0  0  0  0
   14.4172   -9.3973    5.9829 C   0  0  1  0  0  0  0  0  0  0  0  0
   15.3260   -9.7388    4.9604 O   0  0  0  0  0  0  0  0  0  0  0  0
   15.1062   -8.5592    7.0620 C   0  0  2  0  0  0  0  0  0  0  0  0
   17.1224   -0.8395    7.5771 O   0  0  0  0  0  0  0  0  0  0  0  0
   11.9513   -8.2259   11.2277 N   0  0  0  0  0  0  0  0  0  0  0  0
   11.8929   -7.4959   10.0655 C   0  0  0  0  0  0  0  0  0  0  0  0
   12.8220   -7.7301    9.0757 N   0  0  0  0  0  0  0  0  0  0  0  0
   13.7855   -8.6660    9.2284 C   0  0  0  0  0  0  0  0  0  0  0  0
   13.8487   -9.4208   10.3907 C   0  0  0  0  0  0  0  0  0  0  0  0
   12.9223   -9.1885   11.4052 C   0  0  0  0  0  0  0  0  0  0  0  0
   12.9543   -9.8885   12.5395 N   0  0  0  0  0  0  0  0  0  0  0  0
   14.8937  -10.2802   10.2741 N   0  0  0  0  0  0  0  0  0  0  0  0
   15.4670  -10.0873    9.0638 C   0  0  0  0  0  0  0  0  0  0  0  0
   14.7878   -9.0953    8.4003 N   0  0  0  0  0  0  0  0  0  0  0  0
  2  1  1  1  0  0  0
  2  3  1  0  0  0  0
  2  5  1  0  0  0  0
  3  4  1  0  0  0  0
  3 17  1  0  0  0  0
  5  6  1  0  0  0  0
  7  6  1  1  0  0  0
  7  8  1  0  0  0  0
  7  9  1  0  0  0  0
 10  9  1  1  0  0  0
 10 11  1  0  0  0  0
 10 12  1  0  0  0  0
 11 16  1  0  0  0  0
 12 13  1  6  0  0  0
 12 14  1  0  0  0  0
 14 15  1  6  0  0  0
 14 16  1  0  0  0  0
 16 27  1  1  0  0  0
 18 19  2  0  0  0  0
 18 23  1  0  0  0  0
 19 20  1  0  0  0  0
 20 21  2  0  0  0  0
 21 22  1  0  0  0  0
 21 27  1  0  0  0  0
 22 23  2  0  0  0  0
 22 25  1  0  0  0  0
 23 24  1  0  0  0  0
 25 26  2  0  0  0  0
 26 27  1  0  0  0  0
M  END
>  <CHROM.1>
-12.68452628,-50.82332240,-178.27377612,-49.62502924,-35.92877028,85.87620562
18.80829697,14.34164929,-6.60062247,7.82026166,-0.44445267,1.23850124,1.78548777

>  <Name>
ligand

>  <RI>
0

>  <Rbt.Current_Directory>
/home/itssahil/PROJECTS/Mol_Feturizer/New_Systems/rnas/3GX5

>  <Rbt.Executable>
rbdock ($Id: //depot/dev/client3/rdock/2013.1/src/exe/rbdock.cxx#4 $)

>  <Rbt.Library>
libRbt.so (2013.1, Build901 2013/11/27)

>  <Rbt.Parameter_File>
/export/apps/rDock/src/rDock_2013.1_src/data/scripts/dock_solv.prm

>  <Rbt.Receptor>
prm/pocket_docking_2.prm

>  <SCORE>
-12.3352

>  <SCORE.INTER>
-18.2705

>  <SCORE.INTER.CONST>
1

>  <SCORE.INTER.POLAR>
0

>  <SCORE.INTER.ROT>
7

>  <SCORE.INTER.SOLV>
9.41075

>  <SCORE.INTER.VDW>
-23.5839

>  <SCORE.INTER.norm>
-0.676683

>  <SCORE.INTRA>
4.82443

>  <SCORE.INTRA.DIHEDRAL>
5.05712

>  <SCORE.INTRA.DIHEDRAL.0>
4.28829

>  <SCORE.INTRA.POLAR>
0

>  <SCORE.INTRA.POLAR.0>
0

>  <SCORE.INTRA.REPUL>
0

>  <SCORE.INTRA.REPUL.0>
0

>  <SCORE.INTRA.SOLV>
-0.121479

>  <SCORE.INTRA.SOLV.lig_0>
-48.6018

>  <SCORE.INTRA.VDW>
2.35661

>  <SCORE.INTRA.VDW.0>
-2.1506

>  <SCORE.INTRA.norm>
0.178682

>  <SCORE.RESTR>
1.11082

>  <SCORE.RESTR.CAVITY>
1.11082

>  <SCORE.RESTR.norm>
0.0411415

>  <SCORE.SYSTEM>
0

>  <SCORE.SYSTEM.CONST>
0

>  <SCORE.SYSTEM.DIHEDRAL>
0

>  <SCORE.SYSTEM.SOLV>
0

>  <SCORE.SYSTEM.norm>
0

>  <SCORE.heavy>
27

>  <SCORE.norm>
-0.456859

>  <RMSD>
5.576

$$$$
ligand
 OpenBabel11021811483D
libRbt.so/2013.1/901 2013/11/27
 27 29  0  0  0  0  0  0  0  0999 V2000
   18.2595   -5.0193   11.0917 N   0  0  0  0  0  0  0  0  0  0  0  0
   18.2026   -5.8799    9.9085 C   0  0  2  0  0  0  0  0  0  0  0  0
   19.4586   -6.7088    9.6291 C   0  0  0  0  0  0  0  0  0  0  0  0
   20.5607   -6.2026    9.8360 O   0  0  0  0  0  0  0  0  0  0  0  0
   17.8030   -5.0846    8.6769 C   0  0  0  0  0  0  0  0  0  0  0  0
   16.5262   -4.2958    8.9113 C   0  0  0  0  0  0  0  0  0  0  0  0
   16.1431   -3.2658    7.4839 S   0  0  2  0  0  0  0  0  0  0  0  0
   16.6488   -1.6526    8.1171 C   0  0  0  0  0  0  0  0  0  0  0  0
   14.3506   -3.1106    7.6609 C   0  0  0  0  0  0  0  0  0  0  0  0
   13.6568   -4.4133    7.3075 C   0  0  1  0  0  0  0  0  0  0  0  0
   14.1819   -4.9475    6.1138 O   0  0  0  0  0  0  0  0  0  0  0  0
   13.8693   -5.4930    8.3503 C   0  0  1  0  0  0  0  0  0  0  0  0
   12.8000   -5.4463    9.2610 O   0  0  0  0  0  0  0  0  0  0  0  0
   13.8422   -6.7754    7.5435 C   0  0  1  0  0  0  0  0  0  0  0  0
   12.5576   -7.3377    7.6904 O   0  0  0  0  0  0  0  0  0  0  0  0
   14.0891   -6.3610    6.0913 C   0  0  2  0  0  0  0  0  0  0  0  0
   19.4177   -7.8647    9.1989 O   0  0  0  0  0  0  0  0  0  0  0  0
   16.6556  -10.2060    3.6323 N   0  0  0  0  0  0  0  0  0  0  0  0
   15.3026  -10.0959    3.8431 C   0  0  0  0  0  0  0  0  0  0  0  0
   14.8134   -9.0000    4.5193 N   0  0  0  0  0  0  0  0  0  0  0  0
   15.6408   -8.0327    4.9748 C   0  0  0  0  0  0  0  0  0  0  0  0
   17.0080   -8.1231    4.7574 C   0  0  0  0  0  0  0  0  0  0  0  0
   17.5191   -9.2307    4.0841 C   0  0  0  0  0  0  0  0  0  0  0  0
   18.8276   -9.3569    3.8615 N   0  0  0  0  0  0  0  0  0  0  0  0
   17.5913   -7.0262    5.3057 N   0  0  0  0  0  0  0  0  0  0  0  0
   16.6187   -6.2529    5.8413 C   0  0  0  0  0  0  0  0  0  0  0  0
   15.4033   -6.8589    5.6385 N   0  0  0  0  0  0  0  0  0  0  0  0
  2  1  1  1  0  0  0
  2  3  1  0  0  0  0
  2  5  1  0  0  0  0
  3  4  1  0  0  0  0
  3 17  1  0  0  0  0
  5  6  1  0  0  0  0
  7  6  1  1  0  0  0
  7  8  1  0  0  0  0
  7  9  1  0  0  0  0
 10  9  1  1  0  0  0
 10 11  1  0  0  0  0
 10 12  1  0  0  0  0
 11 16  1  0  0  0  0
 12 13  1  1  0  0  0
 12 14  1  0  0  0  0
 14 15  1  6  0  0  0
 14 16  1  0  0  0  0
 16 27  1  1  0  0  0
 18 19  2  0  0  0  0
 18 23  1  0  0  0  0
 19 20  1  0  0  0  0
 20 21  2  0  0  0  0
 21 22  1  0  0  0  0
 21 27  1  0  0  0  0
 22 23  2  0  0  0  0
 22 25  1  0  0  0  0
 23 24  1  0  0  0  0
 25 26  2  0  0  0  0
 26 27  1  0  0  0  0
M  END
>  <CHROM.1>
-38.09205915,-52.49125969,175.67199385,-103.90910539,-72.64108211,-45.70292799
-152.25822620,16.19982830,-6.24219846,7.10835167,-1.53523535,0.34069836,-2.39464267

>  <Name>
ligand

>  <RI>
0

>  <Rbt.Current_Directory>
/home/itssahil/PROJECTS/Mol_Feturizer/New_Systems/rnas/3GX5

>  <Rbt.Executable>
rbdock ($Id: //depot/dev/client3/rdock/2013.1/src/exe/rbdock.cxx#4 $)

>  <Rbt.Library>
libRbt.so (2013.1, Build901 2013/11/27)

>  <Rbt.Parameter_File>
/export/apps/rDock/src/rDock_2013.1_src/data/scripts/dock_solv.prm

>  <Rbt.Receptor>
prm/pocket_docking_7.prm

>  <SCORE>
-15.4352

>  <SCORE.INTER>
-15.9046

>  <SCORE.INTER.CONST>
1

>  <SCORE.INTER.POLAR>
0

>  <SCORE.INTER.ROT>
7

>  <SCORE.INTER.SOLV>
16.5257

>  <SCORE.INTER.VDW>
-24.3783

>  <SCORE.INTER.norm>
-0.589059

>  <SCORE.INTRA>
0.469413

>  <SCORE.INTRA.DIHEDRAL>
2.74483

>  <SCORE.INTRA.DIHEDRAL.0>
4.28829

>  <SCORE.INTRA.POLAR>
0

>  <SCORE.INTRA.POLAR.0>
0

>  <SCORE.INTRA.REPUL>
0

>  <SCORE.INTRA.REPUL.0>
0

>  <SCORE.INTRA.SOLV>
-0.107817

>  <SCORE.INTRA.SOLV.lig_0>
-48.6018

>  <SCORE.INTRA.VDW>
-0.849092

>  <SCORE.INTRA.VDW.0>
-2.1506

>  <SCORE.INTRA.norm>
0.0173857

>  <SCORE.RESTR>
0

>  <SCORE.RESTR.CAVITY>
0

>  <SCORE.RESTR.norm>
0

>  <SCORE.SYSTEM>
0

>  <SCORE.SYSTEM.CONST>
0

>  <SCORE.SYSTEM.DIHEDRAL>
0

>  <SCORE.SYSTEM.SOLV>
0

>  <SCORE.SYSTEM.norm>
0

>  <SCORE.heavy>
27

>  <SCORE.norm>
-0.571673

>  <RMSD>
5.600

$$$$
ligand
 OpenBabel11021811483D
libRbt.so/2013.1/901 2013/11/27
 27 29  0  0  0  0  0  0  0  0999 V2000
   14.7011   -2.1584    7.0840 N   0  0  0  0  0  0  0  0  0  0  0  0
   14.5809   -3.6074    6.9111 C   0  0  2  0  0  0  0  0  0  0  0  0
   13.2187   -4.1074    6.4241 C   0  0  0  0  0  0  0  0  0  0  0  0
   12.6624   -3.5093    5.5040 O   0  0  0  0  0  0  0  0  0  0  0  0
   14.9988   -4.3419    8.1739 C   0  0  0  0  0  0  0  0  0  0  0  0
   16.5029   -4.5468    8.2292 C   0  0  0  0  0  0  0  0  0  0  0  0
   16.9039   -6.3012    8.3087 S   0  0  2  0  0  0  0  0  0  0  0  0
   18.6945   -6.2039    8.5165 C   0  0  0  0  0  0  0  0  0  0  0  0
   16.8272   -6.7367    6.5556 C   0  0  0  0  0  0  0  0  0  0  0  0
   15.7598   -7.7858    6.3045 C   0  0  1  0  0  0  0  0  0  0  0  0
   15.4281   -8.4529    7.5009 O   0  0  0  0  0  0  0  0  0  0  0  0
   14.4563   -7.1902    5.8102 C   0  0  1  0  0  0  0  0  0  0  0  0
   14.4663   -7.2063    4.4050 O   0  0  0  0  0  0  0  0  0  0  0  0
   13.4048   -8.1335    6.3585 C   0  0  1  0  0  0  0  0  0  0  0  0
   13.0313   -9.0012    5.3118 O   0  0  0  0  0  0  0  0  0  0  0  0
   14.0870   -8.9091    7.4875 C   0  0  2  0  0  0  0  0  0  0  0  0
   12.6468   -5.0835    6.9170 O   0  0  0  0  0  0  0  0  0  0  0  0
   13.0005  -10.4554   12.3708 N   0  0  0  0  0  0  0  0  0  0  0  0
   13.6350  -11.1679   11.3824 C   0  0  0  0  0  0  0  0  0  0  0  0
   13.8290  -10.5839   10.1499 N   0  0  0  0  0  0  0  0  0  0  0  0
   13.4088   -9.3236    9.8995 C   0  0  0  0  0  0  0  0  0  0  0  0
   12.7790   -8.5867   10.8919 C   0  0  0  0  0  0  0  0  0  0  0  0
   12.5663   -9.1673   12.1404 C   0  0  0  0  0  0  0  0  0  0  0  0
   11.9589   -8.4938   13.1177 N   0  0  0  0  0  0  0  0  0  0  0  0
   12.4751   -7.3673   10.3771 N   0  0  0  0  0  0  0  0  0  0  0  0
   12.9155   -7.3262    9.0984 C   0  0  0  0  0  0  0  0  0  0  0  0
   13.5029   -8.5281    8.7890 N   0  0  0  0  0  0  0  0  0  0  0  0
  2  1  1  1  0  0  0
  2  3  1  0  0  0  0
  2  5  1  0  0  0  0
  3  4  1  0  0  0  0
  3 17  1  0  0  0  0
  5  6  1  0  0  0  0
  7  6  1  6  0  0  0
  7  8  1  0  0  0  0
  7  9  1  0  0  0  0
 10  9  1  1  0  0  0
 10 11  1  0  0  0  0
 10 12  1  0  0  0  0
 11 16  1  0  0  0  0
 12 13  1  6  0  0  0
 12 14  1  0  0  0  0
 14 15  1  6  0  0  0
 14 16  1  0  0  0  0
 16 27  1  1  0  0  0
 18 19  2  0  0  0  0
 18 23  1  0  0  0  0
 19 20  1  0  0  0  0
 20 21  2  0  0  0  0
 21 22  1  0  0  0  0
 21 27  1  0  0  0  0
 22 23  2  0  0  0  0
 22 25  1  0  0  0  0
 23 24  1  0  0  0  0
 25 26  2  0  0  0  0
 26 27  1  0  0  0  0
M  END
>  <CHROM.1>
44.35943342,-84.47213893,-120.28556473,-175.00353338,-118.93047196,-19.37473436
-95.71045850,14.31955370,-7.10484709,8.20794983,0.23701305,1.28704953,0.54735451

>  <Name>
ligand

>  <RI>
0

>  <Rbt.Current_Directory>
/home/itssahil/PROJECTS/Mol_Feturizer/New_Systems/rnas/3GX5

>  <Rbt.Executable>
rbdock ($Id: //depot/dev/client3/rdock/2013.1/src/exe/rbdock.cxx#4 $)

>  <Rbt.Library>
libRbt.so (2013.1, Build901 2013/11/27)

>  <Rbt.Parameter_File>
/export/apps/rDock/src/rDock_2013.1_src/data/scripts/dock_solv.prm

>  <Rbt.Receptor>
prm/pocket_docking_3.prm

>  <SCORE>
1.27754

>  <SCORE.INTER>
-4.92115

>  <SCORE.INTER.CONST>
1

>  <SCORE.INTER.POLAR>
0

>  <SCORE.INTER.ROT>
7

>  <SCORE.INTER.SOLV>
12.6677

>  <SCORE.INTER.VDW>
-15.77

>  <SCORE.INTER.norm>
-0.182265

>  <SCORE.INTRA>
6.03316

>  <SCORE.INTRA.DIHEDRAL>
15.3234

>  <SCORE.INTRA.DIHEDRAL.0>
4.28829

>  <SCORE.INTRA.POLAR>
0

>  <SCORE.INTRA.POLAR.0>
0

>  <SCORE.INTRA.REPUL>
0

>  <SCORE.INTRA.REPUL.0>
0

>  <SCORE.INTRA.SOLV>
-0.422907

>  <SCORE.INTRA.SOLV.lig_0>
-48.6018

>  <SCORE.INTRA.VDW>
-1.41708

>  <SCORE.INTRA.VDW.0>
-2.1506

>  <SCORE.INTRA.norm>
0.22345

>  <SCORE.RESTR>
0.165531

>  <SCORE.RESTR.CAVITY>
0.165531

>  <SCORE.RESTR.norm>
0.00613077

>  <SCORE.SYSTEM>
0

>  <SCORE.SYSTEM.CONST>
0

>  <SCORE.SYSTEM.DIHEDRAL>
0

>  <SCORE.SYSTEM.SOLV>
0

>  <SCORE.SYSTEM.norm>
0

>  <SCORE.heavy>
27

>  <SCORE.norm>
0.0473164

>  <RMSD>
5.608

$$$$
ligand
 OpenBabel11021811483D
libRbt.so/2013.1/901 2013/11/27
 27 29  0  0  0  0  0  0  0  0999 V2000
   19.5169   -7.2251    8.7968 N   0  0  0  0  0  0  0  0  0  0  0  0
   18.7216   -6.0710    9.2202 C   0  0  2  0  0  0  0  0  0  0  0  0
   18.0830   -6.1773   10.6072 C   0  0  0  0  0  0  0  0  0  0  0  0
   18.3132   -5.2962   11.4345 O   0  0  0  0  0  0  0  0  0  0  0  0
   17.6750   -5.7197    8.1761 C   0  0  0  0  0  0  0  0  0  0  0  0
   16.8754   -4.4922    8.5777 C   0  0  0  0  0  0  0  0  0  0  0  0
   15.9427   -3.8532    7.1752 S   0  0  2  0  0  0  0  0  0  0  0  0
   15.3079   -2.3230    7.8925 C   0  0  0  0  0  0  0  0  0  0  0  0
   14.4539   -4.8739    7.2768 C   0  0  0  0  0  0  0  0  0  0  0  0
   14.6948   -6.2446    6.6715 C   0  0  1  0  0  0  0  0  0  0  0  0
   15.1053   -7.1595    7.6617 O   0  0  0  0  0  0  0  0  0  0  0  0
   13.4412   -6.8493    6.0705 C   0  0  1  0  0  0  0  0  0  0  0  0
   13.3986   -6.5160    4.7059 O   0  0  0  0  0  0  0  0  0  0  0  0
   13.6395   -8.3393    6.2617 C   0  0  1  0  0  0  0  0  0  0  0  0
   14.0924   -8.8643    5.0340 O   0  0  0  0  0  0  0  0  0  0  0  0
   14.7141   -8.4829    7.3415 C   0  0  2  0  0  0  0  0  0  0  0  0
   17.3489   -7.1124   10.9380 O   0  0  0  0  0  0  0  0  0  0  0  0
   15.6779  -10.5566   12.0520 N   0  0  0  0  0  0  0  0  0  0  0  0
   16.5869  -10.0819   11.1379 C   0  0  0  0  0  0  0  0  0  0  0  0
   16.1344   -9.5707    9.9414 N   0  0  0  0  0  0  0  0  0  0  0  0
   14.8141   -9.5262    9.6546 C   0  0  0  0  0  0  0  0  0  0  0  0
   13.8834   -9.9890   10.5735 C   0  0  0  0  0  0  0  0  0  0  0  0
   14.3260  -10.5185   11.7839 C   0  0  0  0  0  0  0  0  0  0  0  0
   13.4630  -10.9793   12.6897 N   0  0  0  0  0  0  0  0  0  0  0  0
   12.6473   -9.8189   10.0374 N   0  0  0  0  0  0  0  0  0  0  0  0
   12.7894   -9.2481    8.8190 C   0  0  0  0  0  0  0  0  0  0  0  0
   14.1256   -9.0535    8.5695 N   0  0  0  0  0  0  0  0  0  0  0  0
  2  1  1  6  0  0  0
  2  3  1  0  0  0  0
  2  5  1  0  0  0  0
  3  4  1  0  0  0  0
  3 17  1  0  0  0  0
  5  6  1  0  0  0  0
  7  6  1  1  0  0  0
  7  8  1  0  0  0  0
  7  9  1  0  0  0  0
 10  9  1  1  0  0  0
 10 11  1  0  0  0  0
 10 12  1  0  0  0  0
 11 16  1  0  0  0  0
 12 13  1  6  0  0  0
 12 14  1  0  0  0  0
 14 15  1  6  0  0  0
 14 16  1  0  0  0  0
 16 27  1  1  0  0  0
 18 19  2  0  0  0  0
 18 23  1  0  0  0  0
 19 20  1  0  0  0  0
 20 21  2  0  0  0  0
 21 22  1  0  0  0  0
 21 27  1  0  0  0  0
 22 23  2  0  0  0  0
 22 25  1  0  0  0  0
 23 24  1  0  0  0  0
 25 26  2  0  0  0  0
 26 27  1  0  0  0  0
M  END
>  <CHROM.1>
124.59482145,-177.89212677,165.87075963,-172.69706610,-80.15477651,92.65341918
-77.81604562,15.44475766,-7.34189598,8.72597901,-1.31407086,0.71348680,2.37694758

>  <Name>
ligand

>  <RI>
0

>  <Rbt.Current_Directory>
/home/itssahil/PROJECTS/Mol_Feturizer/New_Systems/rnas/3GX5

>  <Rbt.Executable>
rbdock ($Id: //depot/dev/client3/rdock/2013.1/src/exe/rbdock.cxx#4 $)

>  <Rbt.Library>
libRbt.so (2013.1, Build901 2013/11/27)

>  <Rbt.Parameter_File>
/export/apps/rDock/src/rDock_2013.1_src/data/scripts/dock_solv.prm

>  <Rbt.Receptor>
prm/pocket_docking_6.prm

>  <SCORE>
-11.8138

>  <SCORE.INTER>
-12.51

>  <SCORE.INTER.CONST>
1

>  <SCORE.INTER.POLAR>
0

>  <SCORE.INTER.ROT>
7

>  <SCORE.INTER.SOLV>
11.6291

>  <SCORE.INTER.VDW>
-20.483

>  <SCORE.INTER.norm>
-0.463332

>  <SCORE.INTRA>
0.696208

>  <SCORE.INTRA.DIHEDRAL>
4.0456

>  <SCORE.INTRA.DIHEDRAL.0>
4.28829

>  <SCORE.INTRA.POLAR>
0

>  <SCORE.INTRA.POLAR.0>
0

>  <SCORE.INTRA.REPUL>
0

>  <SCORE.INTRA.REPUL.0>
0

>  <SCORE.INTRA.SOLV>
-1.16912

>  <SCORE.INTRA.SOLV.lig_0>
-48.6018

>  <SCORE.INTRA.VDW>
-0.742032

>  <SCORE.INTRA.VDW.0>
-2.1506

>  <SCORE.INTRA.norm>
0.0257855

>  <SCORE.RESTR>
0

>  <SCORE.RESTR.CAVITY>
0

>  <SCORE.RESTR.norm>
0

>  <SCORE.SYSTEM>
0

>  <SCORE.SYSTEM.CONST>
0

>  <SCORE.SYSTEM.DIHEDRAL>
0

>  <SCORE.SYSTEM.SOLV>
0

>  <SCORE.SYSTEM.norm>
0

>  <SCORE.heavy>
27

>  <SCORE.norm>
-0.437547

>  <RMSD>
5.620

$$$$
ligand
 OpenBabel11021811483D
libRbt.so/2013.1/901 2013/11/27
 27 29  0  0  0  0  0  0  0  0999 V2000
   15.5256   -5.2478    9.2165 N   0  0  0  0  0  0  0  0  0  0  0  0
   15.7628   -3.9116    8.6667 C   0  0  2  0  0  0  0  0  0  0  0  0
   14.5405   -2.9925    8.6042 C   0  0  0  0  0  0  0  0  0  0  0  0
   13.4628   -3.4104    9.0256 O   0  0  0  0  0  0  0  0  0  0  0  0
   16.4379   -3.9951    7.3080 C   0  0  0  0  0  0  0  0  0  0  0  0
   17.7448   -4.7660    7.3800 C   0  0  0  0  0  0  0  0  0  0  0  0
   17.4351   -6.5395    7.4443 S   0  0  2  0  0  0  0  0  0  0  0  0
   19.1310   -7.1499    7.5464 C   0  0  0  0  0  0  0  0  0  0  0  0
   17.0972   -6.8786    5.7009 C   0  0  0  0  0  0  0  0  0  0  0  0
   15.9151   -7.8185    5.5514 C   0  0  1  0  0  0  0  0  0  0  0  0
   16.0152   -8.8906    6.4606 O   0  0  0  0  0  0  0  0  0  0  0  0
   14.5914   -7.1521    5.8709 C   0  0  1  0  0  0  0  0  0  0  0  0
   14.0447   -6.6563    4.6750 O   0  0  0  0  0  0  0  0  0  0  0  0
   13.7501   -8.2832    6.4269 C   0  0  1  0  0  0  0  0  0  0  0  0
   12.9066   -8.7295    5.3890 O   0  0  0  0  0  0  0  0  0  0  0  0
   14.7382   -9.3795    6.8311 C   0  0  2  0  0  0  0  0  0  0  0  0
   14.5841   -1.8484    8.1437 O   0  0  0  0  0  0  0  0  0  0  0  0
   11.8738   -9.5243   11.2120 N   0  0  0  0  0  0  0  0  0  0  0  0
   11.4308   -9.3808    9.9196 C   0  0  0  0  0  0  0  0  0  0  0  0
   12.3476   -9.3642    8.8914 N   0  0  0  0  0  0  0  0  0  0  0  0
   13.6717   -9.4896    9.1332 C   0  0  0  0  0  0  0  0  0  0  0  0
   14.1330   -9.6492   10.4318 C   0  0  0  0  0  0  0  0  0  0  0  0
   13.2189   -9.6576   11.4833 C   0  0  0  0  0  0  0  0  0  0  0  0
   13.6236   -9.8021   12.7455 N   0  0  0  0  0  0  0  0  0  0  0  0
   15.4857   -9.7588   10.3839 N   0  0  0  0  0  0  0  0  0  0  0  0
   15.8703   -9.6876    9.0886 C   0  0  0  0  0  0  0  0  0  0  0  0
   14.7576   -9.5279    8.3000 N   0  0  0  0  0  0  0  0  0  0  0  0
  2  1  1  6  0  0  0
  2  3  1  0  0  0  0
  2  5  1  0  0  0  0
  3  4  1  0  0  0  0
  3 17  1  0  0  0  0
  5  6  1  0  0  0  0
  7  6  1  6  0  0  0
  7  8  1  0  0  0  0
  7  9  1  0  0  0  0
 10  9  1  1  0  0  0
 10 11  1  0  0  0  0
 10 12  1  0  0  0  0
 11 16  1  0  0  0  0
 12 13  1  6  0  0  0
 12 14  1  0  0  0  0
 14 15  1  6  0  0  0
 14 16  1  0  0  0  0
 16 27  1  1  0  0  0
 18 19  2  0  0  0  0
 18 23  1  0  0  0  0
 19 20  1  0  0  0  0
 20 21  2  0  0  0  0
 21 22  1  0  0  0  0
 21 27  1  0  0  0  0
 22 23  2  0  0  0  0
 22 25  1  0  0  0  0
 23 24  1  0  0  0  0
 25 26  2  0  0  0  0
 26 27  1  0  0  0  0
M  END
>  <CHROM.1>
1.01252874,-56.99654183,77.77747236,-179.20370720,-137.30237420,-44.98678594
154.35550076,14.96460002,-7.27816262,8.11226111,0.70217963,0.95243942,0.26035111

>  <Name>
ligand

>  <RI>
0

>  <Rbt.Current_Directory>
/home/itssahil/PROJECTS/Mol_Feturizer/New_Systems/rnas/3GX5

>  <Rbt.Executable>
rbdock ($Id: //depot/dev/client3/rdock/2013.1/src/exe/rbdock.cxx#4 $)

>  <Rbt.Library>
libRbt.so (2013.1, Build901 2013/11/27)

>  <Rbt.Parameter_File>
/export/apps/rDock/src/rDock_2013.1_src/data/scripts/dock_solv.prm

>  <Rbt.Receptor>
prm/pocket_docking_7.prm

>  <SCORE>
-8.85804

>  <SCORE.INTER>
-11.9009

>  <SCORE.INTER.CONST>
1

>  <SCORE.INTER.POLAR>
0

>  <SCORE.INTER.ROT>
7

>  <SCORE.INTER.SOLV>
6.39994

>  <SCORE.INTER.VDW>
-18.3339

>  <SCORE.INTER.norm>
-0.440775

>  <SCORE.INTRA>
3.04288

>  <SCORE.INTRA.DIHEDRAL>
5.5014

>  <SCORE.INTRA.DIHEDRAL.0>
4.28829

>  <SCORE.INTRA.POLAR>
0

>  <SCORE.INTRA.POLAR.0>
0

>  <SCORE.INTRA.REPUL>
0

>  <SCORE.INTRA.REPUL.0>
0

>  <SCORE.INTRA.SOLV>
2.14978

>  <SCORE.INTRA.SOLV.lig_0>
-48.6018

>  <SCORE.INTRA.VDW>
-0.782716

>  <SCORE.INTRA.VDW.0>
-2.1506

>  <SCORE.INTRA.norm>
0.112699

>  <SCORE.RESTR>
0

>  <SCORE.RESTR.CAVITY>
0

>  <SCORE.RESTR.norm>
0

>  <SCORE.SYSTEM>
0

>  <SCORE.SYSTEM.CONST>
0

>  <SCORE.SYSTEM.DIHEDRAL>
0

>  <SCORE.SYSTEM.SOLV>
0

>  <SCORE.SYSTEM.norm>
0

>  <SCORE.heavy>
27

>  <SCORE.norm>
-0.328076

>  <RMSD>
5.627

$$$$
ligand
 OpenBabel11021811483D
libRbt.so/2013.1/901 2013/11/27
 27 29  0  0  0  0  0  0  0  0999 V2000
   12.6180   -3.5410    6.0476 N   0  0  0  0  0  0  0  0  0  0  0  0
   13.3616   -3.2855    7.2827 C   0  0  2  0  0  0  0  0  0  0  0  0
   14.8581   -3.0125    7.1126 C   0  0  0  0  0  0  0  0  0  0  0  0
   15.2978   -1.9067    7.4248 O   0  0  0  0  0  0  0  0  0  0  0  0
   13.1332   -4.3961    8.2942 C   0  0  0  0  0  0  0  0  0  0  0  0
   13.8494   -4.1149    9.6039 C   0  0  0  0  0  0  0  0  0  0  0  0
   13.9815   -5.6152   10.5922 S   0  0  2  0  0  0  0  0  0  0  0  0
   15.0314   -5.0155   11.9328 C   0  0  0  0  0  0  0  0  0  0  0  0
   15.2100   -6.5334    9.6350 C   0  0  0  0  0  0  0  0  0  0  0  0
   14.5674   -7.2141    8.4405 C   0  0  1  0  0  0  0  0  0  0  0  0
   15.3893   -7.0985    7.3016 O   0  0  0  0  0  0  0  0  0  0  0  0
   14.3822   -8.7050    8.6441 C   0  0  1  0  0  0  0  0  0  0  0  0
   13.0944   -8.9250    9.1619 O   0  0  0  0  0  0  0  0  0  0  0  0
   14.5115   -9.2727    7.2452 C   0  0  1  0  0  0  0  0  0  0  0  0
   13.2069   -9.5036    6.7627 O   0  0  0  0  0  0  0  0  0  0  0  0
   15.2113   -8.1918    6.4184 C   0  0  2  0  0  0  0  0  0  0  0  0
   15.6471   -3.8516    6.6698 O   0  0  0  0  0  0  0  0  0  0  0  0
   18.2983   -9.7943    2.5043 N   0  0  0  0  0  0  0  0  0  0  0  0
   16.9823   -9.4062    2.4352 C   0  0  0  0  0  0  0  0  0  0  0  0
   16.3342   -9.0156    3.5863 N   0  0  0  0  0  0  0  0  0  0  0  0
   16.9714   -9.0054    4.7785 C   0  0  0  0  0  0  0  0  0  0  0  0
   18.3043   -9.3813    4.8618 C   0  0  0  0  0  0  0  0  0  0  0  0
   18.9706   -9.7888    3.7080 C   0  0  0  0  0  0  0  0  0  0  0  0
   20.2494  -10.1636    3.7482 N   0  0  0  0  0  0  0  0  0  0  0  0
   18.6892   -9.2698    6.1593 N   0  0  0  0  0  0  0  0  0  0  0  0
   17.6340   -8.8193    6.8764 C   0  0  0  0  0  0  0  0  0  0  0  0
   16.5636   -8.6435    6.0345 N   0  0  0  0  0  0  0  0  0  0  0  0
  2  1  1  6  0  0  0
  2  3  1  0  0  0  0
  2  5  1  0  0  0  0
  3  4  1  0  0  0  0
  3 17  1  0  0  0  0
  5  6  1  0  0  0  0
  7  6  1  6  0  0  0
  7  8  1  0  0  0  0
  7  9  1  0  0  0  0
 10  9  1  1  0  0  0
 10 11  1  0  0  0  0
 10 12  1  0  0  0  0
 11 16  1  0  0  0  0
 12 13  1  6  0  0  0
 12 14  1  0  0  0  0
 14 15  1  6  0  0  0
 14 16  1  0  0  0  0
 16 27  1  1  0  0  0
 18 19  2  0  0  0  0
 18 23  1  0  0  0  0
 19 20  1  0  0  0  0
 20 21  2  0  0  0  0
 21 22  1  0  0  0  0
 21 27  1  0  0  0  0
 22 23  2  0  0  0  0
 22 25  1  0  0  0  0
 23 24  1  0  0  0  0
 25 26  2  0  0  0  0
 26 27  1  0  0  0  0
M  END
>  <CHROM.1>
115.78136658,-177.48629766,-163.24428121,173.13354364,-80.32743376,138.70190686
-137.60629304,15.50059199,-7.02974645,7.04027213,-2.73555188,-1.01350955
2.81295844

>  <Name>
ligand

>  <RI>
0

>  <Rbt.Current_Directory>
/home/itssahil/PROJECTS/Mol_Feturizer/New_Systems/rnas/3GX5

>  <Rbt.Executable>
rbdock ($Id: //depot/dev/client3/rdock/2013.1/src/exe/rbdock.cxx#4 $)

>  <Rbt.Library>
libRbt.so (2013.1, Build901 2013/11/27)

>  <Rbt.Parameter_File>
/export/apps/rDock/src/rDock_2013.1_src/data/scripts/dock_solv.prm

>  <Rbt.Receptor>
prm/pocket_docking_7.prm

>  <SCORE>
-10.7866

>  <SCORE.INTER>
-11.8439

>  <SCORE.INTER.CONST>
1

>  <SCORE.INTER.POLAR>
0

>  <SCORE.INTER.ROT>
7

>  <SCORE.INTER.SOLV>
14.7054

>  <SCORE.INTER.VDW>
-21.0644

>  <SCORE.INTER.norm>
-0.438663

>  <SCORE.INTRA>
1.05732

>  <SCORE.INTRA.DIHEDRAL>
4.57315

>  <SCORE.INTRA.DIHEDRAL.0>
4.28829

>  <SCORE.INTRA.POLAR>
0

>  <SCORE.INTRA.POLAR.0>
0

>  <SCORE.INTRA.REPUL>
0

>  <SCORE.INTRA.REPUL.0>
0

>  <SCORE.INTRA.SOLV>
-1.13039

>  <SCORE.INTRA.SOLV.lig_0>
-48.6018

>  <SCORE.INTRA.VDW>
-0.66406

>  <SCORE.INTRA.VDW.0>
-2.1506

>  <SCORE.INTRA.norm>
0.03916

>  <SCORE.RESTR>
0

>  <SCORE.RESTR.CAVITY>
0

>  <SCORE.RESTR.norm>
0

>  <SCORE.SYSTEM>
0

>  <SCORE.SYSTEM.CONST>
0

>  <SCORE.SYSTEM.DIHEDRAL>
0

>  <SCORE.SYSTEM.SOLV>
0

>  <SCORE.SYSTEM.norm>
0

>  <SCORE.heavy>
27

>  <SCORE.norm>
-0.399503

>  <RMSD>
5.638

$$$$
ligand
 OpenBabel11021811483D
libRbt.so/2013.1/901 2013/11/27
 27 29  0  0  0  0  0  0  0  0999 V2000
   18.4032   -5.1238    7.9251 N   0  0  0  0  0  0  0  0  0  0  0  0
   17.1017   -4.4662    7.7929 C   0  0  2  0  0  0  0  0  0  0  0  0
   17.0136   -3.0474    8.3606 C   0  0  0  0  0  0  0  0  0  0  0  0
   16.7616   -2.1177    7.5953 O   0  0  0  0  0  0  0  0  0  0  0  0
   15.9927   -5.3373    8.3588 C   0  0  0  0  0  0  0  0  0  0  0  0
   14.6250   -4.7149    8.1366 C   0  0  0  0  0  0  0  0  0  0  0  0
   14.3048   -4.4928    6.3778 S   0  0  2  0  0  0  0  0  0  0  0  0
   12.9777   -3.2712    6.4530 C   0  0  0  0  0  0  0  0  0  0  0  0
   13.3302   -5.9754    6.0303 C   0  0  0  0  0  0  0  0  0  0  0  0
   14.2317   -7.1511    5.7013 C   0  0  1  0  0  0  0  0  0  0  0  0
   15.0554   -7.4679    6.8001 O   0  0  0  0  0  0  0  0  0  0  0  0
   13.4568   -8.4211    5.4095 C   0  0  1  0  0  0  0  0  0  0  0  0
   13.2439   -8.5017    4.0228 O   0  0  0  0  0  0  0  0  0  0  0  0
   14.3863   -9.5202    5.8829 C   0  0  1  0  0  0  0  0  0  0  0  0
   15.0371  -10.0398    4.7451 O   0  0  0  0  0  0  0  0  0  0  0  0
   15.3900   -8.8444    6.8196 C   0  0  2  0  0  0  0  0  0  0  0  0
   17.1898   -2.7904    9.5546 O   0  0  0  0  0  0  0  0  0  0  0  0
   11.8902   -9.7087   10.6172 N   0  0  0  0  0  0  0  0  0  0  0  0
   11.6553   -9.2575    9.3411 C   0  0  0  0  0  0  0  0  0  0  0  0
   12.7173   -9.0903    8.4798 N   0  0  0  0  0  0  0  0  0  0  0  0
   13.9827   -9.3651    8.8683 C   0  0  0  0  0  0  0  0  0  0  0  0
   14.2340   -9.8348   10.1493 C   0  0  0  0  0  0  0  0  0  0  0  0
   13.1714   -9.9992   11.0354 C   0  0  0  0  0  0  0  0  0  0  0  0
   13.3731  -10.4420   12.2767 N   0  0  0  0  0  0  0  0  0  0  0  0
   15.5722  -10.0341   10.2657 N   0  0  0  0  0  0  0  0  0  0  0  0
   16.1517   -9.7158    9.0853 C   0  0  0  0  0  0  0  0  0  0  0  0
   15.1797   -9.3061    8.2061 N   0  0  0  0  0  0  0  0  0  0  0  0
  2  1  1  1  0  0  0
  2  3  1  0  0  0  0
  2  5  1  0  0  0  0
  3  4  1  0  0  0  0
  3 17  1  0  0  0  0
  5  6  1  0  0  0  0
  7  6  1  1  0  0  0
  7  8  1  0  0  0  0
  7  9  1  0  0  0  0
 10  9  1  1  0  0  0
 10 11  1  0  0  0  0
 10 12  1  0  0  0  0
 11 16  1  0  0  0  0
 12 13  1  6  0  0  0
 12 14  1  0  0  0  0
 14 15  1  6  0  0  0
 14 16  1  0  0  0  0
 16 27  1  1  0  0  0
 18 19  2  0  0  0  0
 18 23  1  0  0  0  0
 19 20  1  0  0  0  0
 20 21  2  0  0  0  0
 21 22  1  0  0  0  0
 21 27  1  0  0  0  0
 22 23  2  0  0  0  0
 22 25  1  0  0  0  0
 23 24  1  0  0  0  0
 25 26  2  0  0  0  0
 26 27  1  0  0  0  0
M  END
>  <CHROM.1>
117.83353174,-175.78277695,60.03501404,-161.12636481,-86.60042376,62.31437374
65.08279143,14.68710598,-7.12162811,7.79838972,-0.69409945,1.10823147,2.06517423

>  <Name>
ligand

>  <RI>
0

>  <Rbt.Current_Directory>
/home/itssahil/PROJECTS/Mol_Feturizer/New_Systems/rnas/3GX5

>  <Rbt.Executable>
rbdock ($Id: //depot/dev/client3/rdock/2013.1/src/exe/rbdock.cxx#4 $)

>  <Rbt.Library>
libRbt.so (2013.1, Build901 2013/11/27)

>  <Rbt.Parameter_File>
/export/apps/rDock/src/rDock_2013.1_src/data/scripts/dock_solv.prm

>  <Rbt.Receptor>
prm/pocket_docking_4.prm

>  <SCORE>
-15.5601

>  <SCORE.INTER>
-14.9809

>  <SCORE.INTER.CONST>
1

>  <SCORE.INTER.POLAR>
0

>  <SCORE.INTER.ROT>
7

>  <SCORE.INTER.SOLV>
13.6624

>  <SCORE.INTER.VDW>
-22.8081

>  <SCORE.INTER.norm>
-0.554848

>  <SCORE.INTRA>
-0.579198

>  <SCORE.INTRA.DIHEDRAL>
1.96613

>  <SCORE.INTRA.DIHEDRAL.0>
4.28829

>  <SCORE.INTRA.POLAR>
0

>  <SCORE.INTRA.POLAR.0>
0

>  <SCORE.INTRA.REPUL>
0

>  <SCORE.INTRA.REPUL.0>
0

>  <SCORE.INTRA.SOLV>
-0.711141

>  <SCORE.INTRA.SOLV.lig_0>
-48.6018

>  <SCORE.INTRA.VDW>
-1.20669

>  <SCORE.INTRA.VDW.0>
-2.1506

>  <SCORE.INTRA.norm>
-0.0214518

>  <SCORE.RESTR>
0

>  <SCORE.RESTR.CAVITY>
0

>  <SCORE.RESTR.norm>
0

>  <SCORE.SYSTEM>
0

>  <SCORE.SYSTEM.CONST>
0

>  <SCORE.SYSTEM.DIHEDRAL>
0

>  <SCORE.SYSTEM.SOLV>
0

>  <SCORE.SYSTEM.norm>
0

>  <SCORE.heavy>
27

>  <SCORE.norm>
-0.5763

>  <RMSD>
5.670

$$$$
ligand
 OpenBabel11021811483D
libRbt.so/2013.1/901 2013/11/27
 27 29  0  0  0  0  0  0  0  0999 V2000
   17.2715   -8.9316    6.6057 N   0  0  0  0  0  0  0  0  0  0  0  0
   17.2238   -7.5925    6.0155 C   0  0  2  0  0  0  0  0  0  0  0  0
   17.8679   -6.4782    6.8438 C   0  0  0  0  0  0  0  0  0  0  0  0
   17.9582   -5.3529    6.3546 O   0  0  0  0  0  0  0  0  0  0  0  0
   15.8021   -7.2183    5.6313 C   0  0  0  0  0  0  0  0  0  0  0  0
   14.8704   -7.2589    6.8303 C   0  0  0  0  0  0  0  0  0  0  0  0
   13.2217   -6.6939    6.3748 S   0  0  2  0  0  0  0  0  0  0  0  0
   13.0465   -7.5012    4.7696 C   0  0  0  0  0  0  0  0  0  0  0  0
   13.5896   -5.0107    5.8269 C   0  0  0  0  0  0  0  0  0  0  0  0
   13.8475   -4.0995    7.0128 C   0  0  1  0  0  0  0  0  0  0  0  0
   13.0184   -4.4495    8.0973 O   0  0  0  0  0  0  0  0  0  0  0  0
   15.2626   -4.2145    7.5445 C   0  0  1  0  0  0  0  0  0  0  0  0
   16.0514   -3.2325    6.9212 O   0  0  0  0  0  0  0  0  0  0  0  0
   15.1092   -3.9314    9.0252 C   0  0  1  0  0  0  0  0  0  0  0  0
   15.4830   -2.5886    9.2376 O   0  0  0  0  0  0  0  0  0  0  0  0
   13.6255   -4.1366    9.3385 C   0  0  2  0  0  0  0  0  0  0  0  0
   18.3080   -6.6574    7.9827 O   0  0  0  0  0  0  0  0  0  0  0  0
   14.7639   -6.3573   13.9418 N   0  0  0  0  0  0  0  0  0  0  0  0
   15.1353   -5.1140   13.4909 C   0  0  0  0  0  0  0  0  0  0  0  0
   14.7353   -4.7050   12.2377 N   0  0  0  0  0  0  0  0  0  0  0  0
   13.9831   -5.5041   11.4483 C   0  0  0  0  0  0  0  0  0  0  0  0
   13.5885   -6.7567   11.8954 C   0  0  0  0  0  0  0  0  0  0  0  0
   13.9938   -7.1887   13.1566 C   0  0  0  0  0  0  0  0  0  0  0  0
   13.6406   -8.3884   13.6190 N   0  0  0  0  0  0  0  0  0  0  0  0
   12.8438   -7.3336   10.9174 N   0  0  0  0  0  0  0  0  0  0  0  0
   12.7542   -6.4636    9.8850 C   0  0  0  0  0  0  0  0  0  0  0  0
   13.4488   -5.3220   10.2008 N   0  0  0  0  0  0  0  0  0  0  0  0
  2  1  1  1  0  0  0
  2  3  1  0  0  0  0
  2  5  1  0  0  0  0
  3  4  1  0  0  0  0
  3 17  1  0  0  0  0
  5  6  1  0  0  0  0
  7  6  1  1  0  0  0
  7  8  1  0  0  0  0
  7  9  1  0  0  0  0
 10  9  1  6  0  0  0
 10 11  1  0  0  0  0
 10 12  1  0  0  0  0
 11 16  1  0  0  0  0
 12 13  1  6  0  0  0
 12 14  1  0  0  0  0
 14 15  1  6  0  0  0
 14 16  1  0  0  0  0
 16 27  1  1  0  0  0
 18 19  2  0  0  0  0
 18 23  1  0  0  0  0
 19 20  1  0  0  0  0
 20 21  2  0  0  0  0
 21 22  1  0  0  0  0
 21 27  1  0  0  0  0
 22 23  2  0  0  0  0
 22 25  1  0  0  0  0
 23 24  1  0  0  0  0
 25 26  2  0  0  0  0
 26 27  1  0  0  0  0
M  END
>  <CHROM.1>
174.08859243,58.46832118,175.77795240,41.34324424,-75.50795714,-35.72208045
173.86678085,14.79236013,-5.87801250,8.72021593,-1.20659343,-0.82802152,1.82842528

>  <Name>
ligand

>  <RI>
0

>  <Rbt.Current_Directory>
/home/itssahil/PROJECTS/Mol_Feturizer/New_Systems/rnas/3GX5

>  <Rbt.Executable>
rbdock ($Id: //depot/dev/client3/rdock/2013.1/src/exe/rbdock.cxx#4 $)

>  <Rbt.Library>
libRbt.so (2013.1, Build901 2013/11/27)

>  <Rbt.Parameter_File>
/export/apps/rDock/src/rDock_2013.1_src/data/scripts/dock_solv.prm

>  <Rbt.Receptor>
prm/pocket_docking_4.prm

>  <SCORE>
-12.5808

>  <SCORE.INTER>
-14.7755

>  <SCORE.INTER.CONST>
1

>  <SCORE.INTER.POLAR>
0

>  <SCORE.INTER.ROT>
7

>  <SCORE.INTER.SOLV>
8.86725

>  <SCORE.INTER.VDW>
-21.0727

>  <SCORE.INTER.norm>
-0.54724

>  <SCORE.INTRA>
2.19216

>  <SCORE.INTRA.DIHEDRAL>
1.51975

>  <SCORE.INTRA.DIHEDRAL.0>
4.28829

>  <SCORE.INTRA.POLAR>
0

>  <SCORE.INTRA.POLAR.0>
0

>  <SCORE.INTRA.REPUL>
0

>  <SCORE.INTRA.REPUL.0>
0

>  <SCORE.INTRA.SOLV>
-0.0520017

>  <SCORE.INTRA.SOLV.lig_0>
-48.6018

>  <SCORE.INTRA.VDW>
1.45829

>  <SCORE.INTRA.VDW.0>
-2.1506

>  <SCORE.INTRA.norm>
0.0811911

>  <SCORE.RESTR>
0.00251561

>  <SCORE.RESTR.CAVITY>
0.00251561

>  <SCORE.RESTR.norm>
9.31707e-05

>  <SCORE.SYSTEM>
0

>  <SCORE.SYSTEM.CONST>
0

>  <SCORE.SYSTEM.DIHEDRAL>
0

>  <SCORE.SYSTEM.SOLV>
0

>  <SCORE.SYSTEM.norm>
0

>  <SCORE.heavy>
27

>  <SCORE.norm>
-0.465956

>  <RMSD>
5.673

$$$$
ligand
 OpenBabel11021811483D
libRbt.so/2013.1/901 2013/11/27
 27 29  0  0  0  0  0  0  0  0999 V2000
   14.9782   -4.3004   12.2859 N   0  0  0  0  0  0  0  0  0  0  0  0
   14.7908   -4.9385   10.9815 C   0  0  2  0  0  0  0  0  0  0  0  0
   15.6060   -6.2116   10.7416 C   0  0  0  0  0  0  0  0  0  0  0  0
   16.8293   -6.1636   10.8641 O   0  0  0  0  0  0  0  0  0  0  0  0
   15.0098   -3.9440    9.8536 C   0  0  0  0  0  0  0  0  0  0  0  0
   14.6599   -4.5451    8.5032 C   0  0  0  0  0  0  0  0  0  0  0  0
   16.0547   -5.4711    7.8380 S   0  0  2  0  0  0  0  0  0  0  0  0
   17.2348   -4.1270    7.5937 C   0  0  0  0  0  0  0  0  0  0  0  0
   15.5093   -5.7073    6.1305 C   0  0  0  0  0  0  0  0  0  0  0  0
   14.6046   -6.9202    6.0140 C   0  0  1  0  0  0  0  0  0  0  0  0
   14.2037   -7.1139    4.6769 O   0  0  0  0  0  0  0  0  0  0  0  0
   15.2977   -8.2094    6.4090 C   0  0  1  0  0  0  0  0  0  0  0  0
   15.0460   -8.4486    7.7708 O   0  0  0  0  0  0  0  0  0  0  0  0
   14.6270   -9.2534    5.5394 C   0  0  1  0  0  0  0  0  0  0  0  0
   13.6627   -9.9064    6.3341 O   0  0  0  0  0  0  0  0  0  0  0  0
   13.9575   -8.4814    4.4005 C   0  0  2  0  0  0  0  0  0  0  0  0
   15.0920   -7.2876   10.4242 O   0  0  0  0  0  0  0  0  0  0  0  0
   18.4573   -9.8240    2.0838 N   0  0  0  0  0  0  0  0  0  0  0  0
   18.2165   -9.6597    3.4263 C   0  0  0  0  0  0  0  0  0  0  0  0
   16.9546   -9.2990    3.8449 N   0  0  0  0  0  0  0  0  0  0  0  0
   15.9519   -9.1076    2.9586 C   0  0  0  0  0  0  0  0  0  0  0  0
   16.1763   -9.2834    1.6009 C   0  0  0  0  0  0  0  0  0  0  0  0
   17.4499   -9.6381    1.1611 C   0  0  0  0  0  0  0  0  0  0  0  0
   17.7067   -9.8098   -0.1359 N   0  0  0  0  0  0  0  0  0  0  0  0
   15.0100   -9.0383    0.9499 N   0  0  0  0  0  0  0  0  0  0  0  0
   14.0675   -8.7321    1.8711 C   0  0  0  0  0  0  0  0  0  0  0  0
   14.6331   -8.7775    3.1215 N   0  0  0  0  0  0  0  0  0  0  0  0
  2  1  1  1  0  0  0
  2  3  1  0  0  0  0
  2  5  1  0  0  0  0
  3  4  1  0  0  0  0
  3 17  1  0  0  0  0
  5  6  1  0  0  0  0
  7  6  1  1  0  0  0
  7  8  1  0  0  0  0
  7  9  1  0  0  0  0
 10  9  1  6  0  0  0
 10 11  1  0  0  0  0
 10 12  1  0  0  0  0
 11 16  1  0  0  0  0
 12 13  1  1  0  0  0
 12 14  1  0  0  0  0
 14 15  1  1  0  0  0
 14 16  1  0  0  0  0
 16 27  1  6  0  0  0
 18 19  2  0  0  0  0
 18 23  1  0  0  0  0
 19 20  1  0  0  0  0
 20 21  2  0  0  0  0
 21 22  1  0  0  0  0
 21 27  1  0  0  0  0
 22 23  2  0  0  0  0
 22 25  1  0  0  0  0
 23 24  1  0  0  0  0
 25 26  2  0  0  0  0
 26 27  1  0  0  0  0
M  END
>  <CHROM.1>
-55.97214662,-173.27102670,-84.67510110,-65.22277726,-84.53998219,-178.87683963
84.12527669,15.62234559,-7.42529125,6.03460882,-1.67830790,-0.49173372,-2.08830338

>  <Name>
ligand

>  <RI>
0

>  <Rbt.Current_Directory>
/home/itssahil/PROJECTS/Mol_Feturizer/New_Systems/rnas/3GX5

>  <Rbt.Executable>
rbdock ($Id: //depot/dev/client3/rdock/2013.1/src/exe/rbdock.cxx#4 $)

>  <Rbt.Library>
libRbt.so (2013.1, Build901 2013/11/27)

>  <Rbt.Parameter_File>
/export/apps/rDock/src/rDock_2013.1_src/data/scripts/dock_solv.prm

>  <Rbt.Receptor>
prm/pocket_docking_7.prm

>  <SCORE>
-12.4247

>  <SCORE.INTER>
-12.5135

>  <SCORE.INTER.CONST>
1

>  <SCORE.INTER.POLAR>
0

>  <SCORE.INTER.ROT>
7

>  <SCORE.INTER.SOLV>
12.7238

>  <SCORE.INTER.VDW>
-20.8502

>  <SCORE.INTER.norm>
-0.463461

>  <SCORE.INTRA>
0.0876784

>  <SCORE.INTRA.DIHEDRAL>
1.95589

>  <SCORE.INTRA.DIHEDRAL.0>
4.28829

>  <SCORE.INTRA.POLAR>
0

>  <SCORE.INTRA.POLAR.0>
0

>  <SCORE.INTRA.REPUL>
0

>  <SCORE.INTRA.REPUL.0>
0

>  <SCORE.INTRA.SOLV>
-0.827248

>  <SCORE.INTRA.SOLV.lig_0>
-48.6018

>  <SCORE.INTRA.VDW>
-0.476641

>  <SCORE.INTRA.VDW.0>
-2.1506

>  <SCORE.INTRA.norm>
0.00324735

>  <SCORE.RESTR>
0.0010951

>  <SCORE.RESTR.CAVITY>
0.0010951

>  <SCORE.RESTR.norm>
4.05592e-05

>  <SCORE.SYSTEM>
0

>  <SCORE.SYSTEM.CONST>
0

>  <SCORE.SYSTEM.DIHEDRAL>
0

>  <SCORE.SYSTEM.SOLV>
0

>  <SCORE.SYSTEM.norm>
0

>  <SCORE.heavy>
27

>  <SCORE.norm>
-0.460173

>  <RMSD>
5.679

$$$$
ligand
 OpenBabel11021811483D
libRbt.so/2013.1/901 2013/11/27
 27 29  0  0  0  0  0  0  0  0999 V2000
   14.6932   -9.2197   12.2161 N   0  0  0  0  0  0  0  0  0  0  0  0
   14.4984   -9.2414   10.7651 C   0  0  2  0  0  0  0  0  0  0  0  0
   13.3962  -10.1740   10.2568 C   0  0  0  0  0  0  0  0  0  0  0  0
   13.2958  -11.2966   10.7503 O   0  0  0  0  0  0  0  0  0  0  0  0
   15.8072   -9.5197   10.0452 C   0  0  0  0  0  0  0  0  0  0  0  0
   16.8215   -8.4142   10.2829 C   0  0  0  0  0  0  0  0  0  0  0  0
   18.3542   -8.7560    9.4002 S   0  0  2  0  0  0  0  0  0  0  0  0
   19.0756   -9.9974   10.4946 C   0  0  0  0  0  0  0  0  0  0  0  0
   19.3400   -7.3194    9.8830 C   0  0  0  0  0  0  0  0  0  0  0  0
   18.9065   -6.0831    9.1171 C   0  0  1  0  0  0  0  0  0  0  0  0
   18.7816   -6.3689    7.7427 O   0  0  0  0  0  0  0  0  0  0  0  0
   17.5411   -5.5789    9.5411 C   0  0  1  0  0  0  0  0  0  0  0  0
   17.7183   -4.6070   10.5407 O   0  0  0  0  0  0  0  0  0  0  0  0
   16.9817   -4.9625    8.2749 C   0  0  1  0  0  0  0  0  0  0  0  0
   17.1685   -3.5681    8.3678 O   0  0  0  0  0  0  0  0  0  0  0  0
   17.8084   -5.5443    7.1262 C   0  0  2  0  0  0  0  0  0  0  0  0
   12.6034   -9.8535    9.3672 O   0  0  0  0  0  0  0  0  0  0  0  0
   17.6839   -9.8499    4.1489 N   0  0  0  0  0  0  0  0  0  0  0  0
   18.7572   -9.3241    4.8262 C   0  0  0  0  0  0  0  0  0  0  0  0
   18.5902   -8.1714    5.5618 N   0  0  0  0  0  0  0  0  0  0  0  0
   17.3899   -7.5530    5.6299 C   0  0  0  0  0  0  0  0  0  0  0  0
   16.2936   -8.0798    4.9626 C   0  0  0  0  0  0  0  0  0  0  0  0
   16.4490   -9.2394    4.2060 C   0  0  0  0  0  0  0  0  0  0  0  0
   15.4211   -9.7725    3.5452 N   0  0  0  0  0  0  0  0  0  0  0  0
   15.2289   -7.2731    5.2074 N   0  0  0  0  0  0  0  0  0  0  0  0
   15.6351   -6.2717    6.0214 C   0  0  0  0  0  0  0  0  0  0  0  0
   16.9701   -6.4344    6.2985 N   0  0  0  0  0  0  0  0  0  0  0  0
  2  1  1  1  0  0  0
  2  3  1  0  0  0  0
  2  5  1  0  0  0  0
  3  4  1  0  0  0  0
  3 17  1  0  0  0  0
  5  6  1  0  0  0  0
  7  6  1  1  0  0  0
  7  8  1  0  0  0  0
  7  9  1  0  0  0  0
 10  9  1  1  0  0  0
 10 11  1  0  0  0  0
 10 12  1  0  0  0  0
 11 16  1  0  0  0  0
 12 13  1  1  0  0  0
 12 14  1  0  0  0  0
 14 15  1  1  0  0  0
 14 16  1  0  0  0  0
 16 27  1  6  0  0  0
 18 19  2  0  0  0  0
 18 23  1  0  0  0  0
 19 20  1  0  0  0  0
 20 21  2  0  0  0  0
 21 22  1  0  0  0  0
 21 27  1  0  0  0  0
 22 23  2  0  0  0  0
 22 25  1  0  0  0  0
 23 24  1  0  0  0  0
 25 26  2  0  0  0  0
 26 27  1  0  0  0  0
M  END
>  <CHROM.1>
-42.51651787,-63.59440930,-179.17496150,-77.45809065,-76.43705695,-47.06588771
-33.92389336,16.77990784,-7.90000816,8.10487768,-2.23283588,-0.86805539,-1.73353223

>  <Name>
ligand

>  <RI>
0

>  <Rbt.Current_Directory>
/home/itssahil/PROJECTS/Mol_Feturizer/New_Systems/rnas/3GX5

>  <Rbt.Executable>
rbdock ($Id: //depot/dev/client3/rdock/2013.1/src/exe/rbdock.cxx#4 $)

>  <Rbt.Library>
libRbt.so (2013.1, Build901 2013/11/27)

>  <Rbt.Parameter_File>
/export/apps/rDock/src/rDock_2013.1_src/data/scripts/dock_solv.prm

>  <Rbt.Receptor>
prm/pocket_docking_6.prm

>  <SCORE>
-9.97726

>  <SCORE.INTER>
-9.5307

>  <SCORE.INTER.CONST>
1

>  <SCORE.INTER.POLAR>
0

>  <SCORE.INTER.ROT>
7

>  <SCORE.INTER.SOLV>
12.5886

>  <SCORE.INTER.VDW>
-18.8167

>  <SCORE.INTER.norm>
-0.352989

>  <SCORE.INTRA>
-0.44656

>  <SCORE.INTRA.DIHEDRAL>
0.108368

>  <SCORE.INTRA.DIHEDRAL.0>
4.28829

>  <SCORE.INTRA.POLAR>
0

>  <SCORE.INTRA.POLAR.0>
0

>  <SCORE.INTRA.REPUL>
0

>  <SCORE.INTRA.REPUL.0>
0

>  <SCORE.INTRA.SOLV>
-0.252601

>  <SCORE.INTRA.SOLV.lig_0>
-48.6018

>  <SCORE.INTRA.VDW>
-0.374444

>  <SCORE.INTRA.VDW.0>
-2.1506

>  <SCORE.INTRA.norm>
-0.0165393

>  <SCORE.RESTR>
0

>  <SCORE.RESTR.CAVITY>
0

>  <SCORE.RESTR.norm>
0

>  <SCORE.SYSTEM>
0

>  <SCORE.SYSTEM.CONST>
0

>  <SCORE.SYSTEM.DIHEDRAL>
0

>  <SCORE.SYSTEM.SOLV>
0

>  <SCORE.SYSTEM.norm>
0

>  <SCORE.heavy>
27

>  <SCORE.norm>
-0.369528

>  <RMSD>
5.687

$$$$
ligand
 OpenBabel11021811483D
libRbt.so/2013.1/901 2013/11/27
 27 29  0  0  0  0  0  0  0  0999 V2000
   14.1713   -7.9227   10.2307 N   0  0  0  0  0  0  0  0  0  0  0  0
   13.4265   -6.6653   10.3204 C   0  0  2  0  0  0  0  0  0  0  0  0
   12.7460   -6.3908   11.6637 C   0  0  0  0  0  0  0  0  0  0  0  0
   13.3986   -5.8586   12.5606 O   0  0  0  0  0  0  0  0  0  0  0  0
   12.4283   -6.5425    9.1814 C   0  0  0  0  0  0  0  0  0  0  0  0
   13.1218   -6.2689    7.8579 C   0  0  0  0  0  0  0  0  0  0  0  0
   13.7562   -4.5835    7.8082 S   0  0  2  0  0  0  0  0  0  0  0  0
   12.4615   -3.7905    6.8313 C   0  0  0  0  0  0  0  0  0  0  0  0
   15.0327   -4.7492    6.5386 C   0  0  0  0  0  0  0  0  0  0  0  0
   16.1012   -5.7365    6.9708 C   0  0  1  0  0  0  0  0  0  0  0  0
   15.8184   -7.0239    6.4722 O   0  0  0  0  0  0  0  0  0  0  0  0
   17.4728   -5.3936    6.4236 C   0  0  1  0  0  0  0  0  0  0  0  0
   18.1470   -4.6107    7.3762 O   0  0  0  0  0  0  0  0  0  0  0  0
   18.1375   -6.7455    6.2604 C   0  0  1  0  0  0  0  0  0  0  0  0
   18.9838   -6.9351    7.3721 O   0  0  0  0  0  0  0  0  0  0  0  0
   17.0029   -7.7722    6.2622 C   0  0  2  0  0  0  0  0  0  0  0  0
   11.5695   -6.6847   11.8923 O   0  0  0  0  0  0  0  0  0  0  0  0
   13.8598   -8.6278    2.1625 N   0  0  0  0  0  0  0  0  0  0  0  0
   13.5809   -7.9175    3.3048 C   0  0  0  0  0  0  0  0  0  0  0  0
   14.5469   -7.8049    4.2805 N   0  0  0  0  0  0  0  0  0  0  0  0
   15.7620   -8.3781    4.1309 C   0  0  0  0  0  0  0  0  0  0  0  0
   16.0632   -9.0867    2.9769 C   0  0  0  0  0  0  0  0  0  0  0  0
   15.0931   -9.2182    1.9854 C   0  0  0  0  0  0  0  0  0  0  0  0
   15.3420   -9.8970    0.8652 N   0  0  0  0  0  0  0  0  0  0  0  0
   17.3381   -9.5413    3.0868 N   0  0  0  0  0  0  0  0  0  0  0  0
   17.8376   -9.1179    4.2709 C   0  0  0  0  0  0  0  0  0  0  0  0
   16.8760   -8.3897    4.9270 N   0  0  0  0  0  0  0  0  0  0  0  0
  2  1  1  1  0  0  0
  2  3  1  0  0  0  0
  2  5  1  0  0  0  0
  3  4  1  0  0  0  0
  3 17  1  0  0  0  0
  5  6  1  0  0  0  0
  7  6  1  6  0  0  0
  7  8  1  0  0  0  0
  7  9  1  0  0  0  0
 10  9  1  6  0  0  0
 10 11  1  0  0  0  0
 10 12  1  0  0  0  0
 11 16  1  0  0  0  0
 12 13  1  1  0  0  0
 12 14  1  0  0  0  0
 14 15  1  1  0  0  0
 14 16  1  0  0  0  0
 16 27  1  6  0  0  0
 18 19  2  0  0  0  0
 18 23  1  0  0  0  0
 19 20  1  0  0  0  0
 20 21  2  0  0  0  0
 21 22  1  0  0  0  0
 21 27  1  0  0  0  0
 22 23  2  0  0  0  0
 22 25  1  0  0  0  0
 23 24  1  0  0  0  0
 25 26  2  0  0  0  0
 26 27  1  0  0  0  0
M  END
>  <CHROM.1>
85.45138825,-72.41057074,-72.26659975,-100.12019934,-61.83212896,94.24815898
-7.57594861,15.10896128,-6.92032218,6.62058789,1.93185470,0.10230532,1.16006269

>  <Name>
ligand

>  <RI>
0

>  <Rbt.Current_Directory>
/home/itssahil/PROJECTS/Mol_Feturizer/New_Systems/rnas/3GX5

>  <Rbt.Executable>
rbdock ($Id: //depot/dev/client3/rdock/2013.1/src/exe/rbdock.cxx#4 $)

>  <Rbt.Library>
libRbt.so (2013.1, Build901 2013/11/27)

>  <Rbt.Parameter_File>
/export/apps/rDock/src/rDock_2013.1_src/data/scripts/dock_solv.prm

>  <Rbt.Receptor>
prm/pocket_docking_5.prm

>  <SCORE>
-15.103

>  <SCORE.INTER>
-17.6632

>  <SCORE.INTER.CONST>
1

>  <SCORE.INTER.POLAR>
0

>  <SCORE.INTER.ROT>
7

>  <SCORE.INTER.SOLV>
13.2731

>  <SCORE.INTER.VDW>
-24.4665

>  <SCORE.INTER.norm>
-0.654193

>  <SCORE.INTRA>
2.54579

>  <SCORE.INTRA.DIHEDRAL>
5.88973

>  <SCORE.INTRA.DIHEDRAL.0>
4.28829

>  <SCORE.INTRA.POLAR>
0

>  <SCORE.INTRA.POLAR.0>
0

>  <SCORE.INTRA.REPUL>
0

>  <SCORE.INTRA.REPUL.0>
0

>  <SCORE.INTRA.SOLV>
0.0199339

>  <SCORE.INTRA.SOLV.lig_0>
-48.6018

>  <SCORE.INTRA.VDW>
-0.409041

>  <SCORE.INTRA.VDW.0>
-2.1506

>  <SCORE.INTRA.norm>
0.0942885

>  <SCORE.RESTR>
0.0144717

>  <SCORE.RESTR.CAVITY>
0.0144717

>  <SCORE.RESTR.norm>
0.000535987

>  <SCORE.SYSTEM>
0

>  <SCORE.SYSTEM.CONST>
0

>  <SCORE.SYSTEM.DIHEDRAL>
0

>  <SCORE.SYSTEM.SOLV>
0

>  <SCORE.SYSTEM.norm>
0

>  <SCORE.heavy>
27

>  <SCORE.norm>
-0.559369

>  <RMSD>
5.781

$$$$
ligand
 OpenBabel11021811483D
libRbt.so/2013.1/901 2013/11/27
 27 29  0  0  0  0  0  0  0  0999 V2000
   13.6458   -6.9310    9.0678 N   0  0  0  0  0  0  0  0  0  0  0  0
   13.3569   -7.4660    7.7358 C   0  0  2  0  0  0  0  0  0  0  0  0
   14.3666   -8.4808    7.1942 C   0  0  0  0  0  0  0  0  0  0  0  0
   15.5313   -8.4250    7.5867 O   0  0  0  0  0  0  0  0  0  0  0  0
   13.1390   -6.3436    6.7350 C   0  0  0  0  0  0  0  0  0  0  0  0
   14.4052   -5.5321    6.5213 C   0  0  0  0  0  0  0  0  0  0  0  0
   14.7096   -4.4456    7.9255 S   0  0  2  0  0  0  0  0  0  0  0  0
   13.5039   -3.1463    7.5832 C   0  0  0  0  0  0  0  0  0  0  0  0
   16.2162   -3.6109    7.3760 C   0  0  0  0  0  0  0  0  0  0  0  0
   17.4462   -4.4285    7.7249 C   0  0  1  0  0  0  0  0  0  0  0  0
   17.5247   -4.6380    9.1164 O   0  0  0  0  0  0  0  0  0  0  0  0
   17.4195   -5.8172    7.1174 C   0  0  1  0  0  0  0  0  0  0  0  0
   18.0903   -5.7740    5.8832 O   0  0  0  0  0  0  0  0  0  0  0  0
   18.1805   -6.6584    8.1221 C   0  0  1  0  0  0  0  0  0  0  0  0
   19.4916   -6.8189    7.6290 O   0  0  0  0  0  0  0  0  0  0  0  0
   18.1860   -5.8528    9.4230 C   0  0  2  0  0  0  0  0  0  0  0  0
   14.0673   -9.3531    6.3743 O   0  0  0  0  0  0  0  0  0  0  0  0
   14.9962   -5.2388   13.5299 N   0  0  0  0  0  0  0  0  0  0  0  0
   15.5901   -4.2605   12.7700 C   0  0  0  0  0  0  0  0  0  0  0  0
   16.4059   -4.6245   11.7214 N   0  0  0  0  0  0  0  0  0  0  0  0
   16.6283   -5.9252   11.4274 C   0  0  0  0  0  0  0  0  0  0  0  0
   16.0245   -6.9242   12.1770 C   0  0  0  0  0  0  0  0  0  0  0  0
   15.2048   -6.5720   13.2472 C   0  0  0  0  0  0  0  0  0  0  0  0
   14.6121   -7.5030   13.9952 N   0  0  0  0  0  0  0  0  0  0  0  0
   16.4094   -8.1213   11.6640 N   0  0  0  0  0  0  0  0  0  0  0  0
   17.2215   -7.8875   10.6075 C   0  0  0  0  0  0  0  0  0  0  0  0
   17.3618   -6.5314   10.4429 N   0  0  0  0  0  0  0  0  0  0  0  0
  2  1  1  1  0  0  0
  2  3  1  0  0  0  0
  2  5  1  0  0  0  0
  3  4  1  0  0  0  0
  3 17  1  0  0  0  0
  5  6  1  0  0  0  0
  7  6  1  6  0  0  0
  7  8  1  0  0  0  0
  7  9  1  0  0  0  0
 10  9  1  1  0  0  0
 10 11  1  0  0  0  0
 10 12  1  0  0  0  0
 11 16  1  0  0  0  0
 12 13  1  6  0  0  0
 12 14  1  0  0  0  0
 14 15  1  6  0  0  0
 14 16  1  0  0  0  0
 16 27  1  1  0  0  0
 18 19  2  0  0  0  0
 18 23  1  0  0  0  0
 19 20  1  0  0  0  0
 20 21  2  0  0  0  0
 21 22  1  0  0  0  0
 21 27  1  0  0  0  0
 22 23  2  0  0  0  0
 22 25  1  0  0  0  0
 23 24  1  0  0  0  0
 25 26  2  0  0  0  0
 26 27  1  0  0  0  0
M  END
>  <CHROM.1>
-27.15561068,65.27856007,-75.20784297,-77.02505146,-85.39220522,-59.17461996
-33.86676355,15.86961016,-6.11532041,9.12324889,1.61501746,-0.36281824,-1.53877801

>  <Name>
ligand

>  <RI>
0

>  <Rbt.Current_Directory>
/home/itssahil/PROJECTS/Mol_Feturizer/New_Systems/rnas/3GX5

>  <Rbt.Executable>
rbdock ($Id: //depot/dev/client3/rdock/2013.1/src/exe/rbdock.cxx#4 $)

>  <Rbt.Library>
libRbt.so (2013.1, Build901 2013/11/27)

>  <Rbt.Parameter_File>
/export/apps/rDock/src/rDock_2013.1_src/data/scripts/dock_solv.prm

>  <Rbt.Receptor>
prm/pocket_docking_6.prm

>  <SCORE>
-12.6898

>  <SCORE.INTER>
-12.4808

>  <SCORE.INTER.CONST>
1

>  <SCORE.INTER.POLAR>
0

>  <SCORE.INTER.ROT>
7

>  <SCORE.INTER.SOLV>
8.73495

>  <SCORE.INTER.VDW>
-19.4989

>  <SCORE.INTER.norm>
-0.462253

>  <SCORE.INTRA>
-0.20898

>  <SCORE.INTRA.DIHEDRAL>
0.924602

>  <SCORE.INTRA.DIHEDRAL.0>
4.28829

>  <SCORE.INTRA.POLAR>
0

>  <SCORE.INTRA.POLAR.0>
0

>  <SCORE.INTRA.REPUL>
0

>  <SCORE.INTRA.REPUL.0>
0

>  <SCORE.INTRA.SOLV>
1.89253

>  <SCORE.INTRA.SOLV.lig_0>
-48.6018

>  <SCORE.INTRA.VDW>
-1.61755

>  <SCORE.INTRA.VDW.0>
-2.1506

>  <SCORE.INTRA.norm>
-0.00774001

>  <SCORE.RESTR>
0

>  <SCORE.RESTR.CAVITY>
0

>  <SCORE.RESTR.norm>
0

>  <SCORE.SYSTEM>
0

>  <SCORE.SYSTEM.CONST>
0

>  <SCORE.SYSTEM.DIHEDRAL>
0

>  <SCORE.SYSTEM.SOLV>
0

>  <SCORE.SYSTEM.norm>
0

>  <SCORE.heavy>
27

>  <SCORE.norm>
-0.469993

>  <RMSD>
5.785

$$$$
ligand
 OpenBabel11021811483D
libRbt.so/2013.1/901 2013/11/27
 27 29  0  0  0  0  0  0  0  0999 V2000
   12.0683   -8.6385   12.1116 N   0  0  0  0  0  0  0  0  0  0  0  0
   12.0161  -10.0102   11.6022 C   0  0  2  0  0  0  0  0  0  0  0  0
   12.0334  -11.1137   12.6628 C   0  0  0  0  0  0  0  0  0  0  0  0
   11.0255  -11.8021   12.8180 O   0  0  0  0  0  0  0  0  0  0  0  0
   13.1032  -10.2473   10.5674 C   0  0  0  0  0  0  0  0  0  0  0  0
   14.4890  -10.0542   11.1588 C   0  0  0  0  0  0  0  0  0  0  0  0
   15.7576  -10.3154    9.9067 S   0  0  2  0  0  0  0  0  0  0  0  0
   17.2340   -9.9317   10.8722 C   0  0  0  0  0  0  0  0  0  0  0  0
   15.6086   -8.7815    8.9615 C   0  0  0  0  0  0  0  0  0  0  0  0
   16.9197   -8.4361    8.2798 C   0  0  1  0  0  0  0  0  0  0  0  0
   17.1317   -9.2668    7.1613 O   0  0  0  0  0  0  0  0  0  0  0  0
   16.9417   -7.0228    7.7318 C   0  0  1  0  0  0  0  0  0  0  0  0
   17.4998   -6.1781    8.7065 O   0  0  0  0  0  0  0  0  0  0  0  0
   17.8445   -7.1266    6.5192 C   0  0  1  0  0  0  0  0  0  0  0  0
   19.1169   -6.6537    6.9004 O   0  0  0  0  0  0  0  0  0  0  0  0
   17.9028   -8.6147    6.1677 C   0  0  2  0  0  0  0  0  0  0  0  0
   13.0134  -11.3428   13.3768 O   0  0  0  0  0  0  0  0  0  0  0  0
   13.5682   -7.8163    3.3407 N   0  0  0  0  0  0  0  0  0  0  0  0
   13.8472   -7.3557    4.6045 C   0  0  0  0  0  0  0  0  0  0  0  0
   15.0535   -7.6765    5.1872 N   0  0  0  0  0  0  0  0  0  0  0  0
   15.9655   -8.4326    4.5358 C   0  0  0  0  0  0  0  0  0  0  0  0
   15.7038   -8.8933    3.2537 C   0  0  0  0  0  0  0  0  0  0  0  0
   14.4839   -8.5858    2.6550 C   0  0  0  0  0  0  0  0  0  0  0  0
   14.1926   -9.0156    1.4270 N   0  0  0  0  0  0  0  0  0  0  0  0
   16.7803   -9.6104    2.8400 N   0  0  0  0  0  0  0  0  0  0  0  0
   17.7063   -9.5906    3.8263 C   0  0  0  0  0  0  0  0  0  0  0  0
   17.2199   -8.8589    4.8816 N   0  0  0  0  0  0  0  0  0  0  0  0
  2  1  1  1  0  0  0
  2  3  1  0  0  0  0
  2  5  1  0  0  0  0
  3  4  1  0  0  0  0
  3 17  1  0  0  0  0
  5  6  1  0  0  0  0
  7  6  1  1  0  0  0
  7  8  1  0  0  0  0
  7  9  1  0  0  0  0
 10  9  1  6  0  0  0
 10 11  1  0  0  0  0
 10 12  1  0  0  0  0
 11 16  1  0  0  0  0
 12 13  1  1  0  0  0
 12 14  1  0  0  0  0
 14 15  1  1  0  0  0
 14 16  1  0  0  0  0
 16 27  1  6  0  0  0
 18 19  2  0  0  0  0
 18 23  1  0  0  0  0
 19 20  1  0  0  0  0
 20 21  2  0  0  0  0
 21 22  1  0  0  0  0
 21 27  1  0  0  0  0
 22 23  2  0  0  0  0
 22 25  1  0  0  0  0
 23 24  1  0  0  0  0
 25 26  2  0  0  0  0
 26 27  1  0  0  0  0
M  END
>  <CHROM.1>
112.37483184,61.18321650,-179.10928097,176.99263017,153.57189222,75.20680331
63.41290894,15.37070254,-9.01595880,7.72494531,1.95421273,0.35452405,1.69817491

>  <Name>
ligand

>  <RI>
0

>  <Rbt.Current_Directory>
/home/itssahil/PROJECTS/Mol_Feturizer/New_Systems/rnas/3GX5

>  <Rbt.Executable>
rbdock ($Id: //depot/dev/client3/rdock/2013.1/src/exe/rbdock.cxx#4 $)

>  <Rbt.Library>
libRbt.so (2013.1, Build901 2013/11/27)

>  <Rbt.Parameter_File>
/export/apps/rDock/src/rDock_2013.1_src/data/scripts/dock_solv.prm

>  <Rbt.Receptor>
prm/pocket_docking_8.prm

>  <SCORE>
-13.1465

>  <SCORE.INTER>
-13.6607

>  <SCORE.INTER.CONST>
1

>  <SCORE.INTER.POLAR>
0

>  <SCORE.INTER.ROT>
7

>  <SCORE.INTER.SOLV>
14.4721

>  <SCORE.INTER.VDW>
-22.1979

>  <SCORE.INTER.norm>
-0.505953

>  <SCORE.INTRA>
0.51423

>  <SCORE.INTRA.DIHEDRAL>
0.89047

>  <SCORE.INTRA.DIHEDRAL.0>
4.28829

>  <SCORE.INTRA.POLAR>
0

>  <SCORE.INTRA.POLAR.0>
0

>  <SCORE.INTRA.REPUL>
0

>  <SCORE.INTRA.REPUL.0>
0

>  <SCORE.INTRA.SOLV>
-0.548308

>  <SCORE.INTRA.SOLV.lig_0>
-48.6018

>  <SCORE.INTRA.VDW>
0.343148

>  <SCORE.INTRA.VDW.0>
-2.1506

>  <SCORE.INTRA.norm>
0.0190455

>  <SCORE.RESTR>
0

>  <SCORE.RESTR.CAVITY>
0

>  <SCORE.RESTR.norm>
0

>  <SCORE.SYSTEM>
0

>  <SCORE.SYSTEM.CONST>
0

>  <SCORE.SYSTEM.DIHEDRAL>
0

>  <SCORE.SYSTEM.SOLV>
0

>  <SCORE.SYSTEM.norm>
0

>  <SCORE.heavy>
27

>  <SCORE.norm>
-0.486908

>  <RMSD>
5.848

$$$$
ligand
 OpenBabel11021811483D
libRbt.so/2013.1/901 2013/11/27
 27 29  0  0  0  0  0  0  0  0999 V2000
   11.1397   -9.0676   10.2262 N   0  0  0  0  0  0  0  0  0  0  0  0
   11.9279   -8.3667   11.2417 C   0  0  2  0  0  0  0  0  0  0  0  0
   11.1420   -7.4318   12.1642 C   0  0  0  0  0  0  0  0  0  0  0  0
   10.3043   -6.6783   11.6699 O   0  0  0  0  0  0  0  0  0  0  0  0
   13.0988   -7.6328   10.6098 C   0  0  0  0  0  0  0  0  0  0  0  0
   12.6316   -6.6113    9.5873 C   0  0  0  0  0  0  0  0  0  0  0  0
   14.0367   -5.8845    8.7256 S   0  0  2  0  0  0  0  0  0  0  0  0
   13.1715   -4.7626    7.6067 C   0  0  0  0  0  0  0  0  0  0  0  0
   14.4375   -7.2144    7.5682 C   0  0  0  0  0  0  0  0  0  0  0  0
   15.9365   -7.3105    7.3519 C   0  0  1  0  0  0  0  0  0  0  0  0
   16.2548   -8.4444    6.5779 O   0  0  0  0  0  0  0  0  0  0  0  0
   16.4940   -6.1335    6.5758 C   0  0  1  0  0  0  0  0  0  0  0  0
   16.9283   -5.1626    7.4943 O   0  0  0  0  0  0  0  0  0  0  0  0
   17.6637   -6.7298    5.8192 C   0  0  1  0  0  0  0  0  0  0  0  0
   18.8360   -6.4017    6.5307 O   0  0  0  0  0  0  0  0  0  0  0  0
   17.4349   -8.2427    5.8205 C   0  0  2  0  0  0  0  0  0  0  0  0
   11.3137   -7.3941   13.3856 O   0  0  0  0  0  0  0  0  0  0  0  0
   13.8360   -8.5594    2.0303 N   0  0  0  0  0  0  0  0  0  0  0  0
   13.7126   -7.9646    3.2624 C   0  0  0  0  0  0  0  0  0  0  0  0
   14.7815   -7.9868    4.1311 N   0  0  0  0  0  0  0  0  0  0  0  0
   15.9474   -8.5802    3.7901 C   0  0  0  0  0  0  0  0  0  0  0  0
   16.0917   -9.1729    2.5441 C   0  0  0  0  0  0  0  0  0  0  0  0
   15.0161   -9.1676    1.6584 C   0  0  0  0  0  0  0  0  0  0  0  0
   15.1136   -9.7324    0.4546 N   0  0  0  0  0  0  0  0  0  0  0  0
   17.3500   -9.6776    2.4652 N   0  0  0  0  0  0  0  0  0  0  0  0
   17.9915   -9.3977    3.6230 C   0  0  0  0  0  0  0  0  0  0  0  0
   17.1386   -8.7118    4.4522 N   0  0  0  0  0  0  0  0  0  0  0  0
  2  1  1  6  0  0  0
  2  3  1  0  0  0  0
  2  5  1  0  0  0  0
  3  4  1  0  0  0  0
  3 17  1  0  0  0  0
  5  6  1  0  0  0  0
  7  6  1  1  0  0  0
  7  8  1  0  0  0  0
  7  9  1  0  0  0  0
 10  9  1  6  0  0  0
 10 11  1  0  0  0  0
 10 12  1  0  0  0  0
 11 16  1  0  0  0  0
 12 13  1  1  0  0  0
 12 14  1  0  0  0  0
 14 15  1  1  0  0  0
 14 16  1  0  0  0  0
 16 27  1  6  0  0  0
 18 19  2  0  0  0  0
 18 23  1  0  0  0  0
 19 20  1  0  0  0  0
 20 21  2  0  0  0  0
 21 22  1  0  0  0  0
 21 27  1  0  0  0  0
 22 23  2  0  0  0  0
 22 25  1  0  0  0  0
 23 24  1  0  0  0  0
 25 26  2  0  0  0  0
 26 27  1  0  0  0  0
M  END
>  <CHROM.1>
-44.72635569,59.39815888,-173.82516653,179.48484670,-144.52988201,173.00222569
36.63182500,14.74359724,-7.58047946,6.79066127,2.09618018,0.34835487,1.18230110

>  <Name>
ligand

>  <RI>
0

>  <Rbt.Current_Directory>
/home/itssahil/PROJECTS/Mol_Feturizer/New_Systems/rnas/3GX5

>  <Rbt.Executable>
rbdock ($Id: //depot/dev/client3/rdock/2013.1/src/exe/rbdock.cxx#4 $)

>  <Rbt.Library>
libRbt.so (2013.1, Build901 2013/11/27)

>  <Rbt.Parameter_File>
/export/apps/rDock/src/rDock_2013.1_src/data/scripts/dock_solv.prm

>  <Rbt.Receptor>
prm/pocket_docking_5.prm

>  <SCORE>
-12.3618

>  <SCORE.INTER>
-12.9254

>  <SCORE.INTER.CONST>
1

>  <SCORE.INTER.POLAR>
0

>  <SCORE.INTER.ROT>
7

>  <SCORE.INTER.SOLV>
16.7666

>  <SCORE.INTER.VDW>
-22.4725

>  <SCORE.INTER.norm>
-0.47872

>  <SCORE.INTRA>
0.563641

>  <SCORE.INTRA.DIHEDRAL>
3.35321

>  <SCORE.INTRA.DIHEDRAL.0>
4.28829

>  <SCORE.INTRA.POLAR>
0

>  <SCORE.INTRA.POLAR.0>
0

>  <SCORE.INTRA.REPUL>
0

>  <SCORE.INTRA.REPUL.0>
0

>  <SCORE.INTRA.SOLV>
-0.225766

>  <SCORE.INTRA.SOLV.lig_0>
-48.6018

>  <SCORE.INTRA.VDW>
-1.00008

>  <SCORE.INTRA.VDW.0>
-2.1506

>  <SCORE.INTRA.norm>
0.0208756

>  <SCORE.RESTR>
0

>  <SCORE.RESTR.CAVITY>
0

>  <SCORE.RESTR.norm>
0

>  <SCORE.SYSTEM>
0

>  <SCORE.SYSTEM.CONST>
0

>  <SCORE.SYSTEM.DIHEDRAL>
0

>  <SCORE.SYSTEM.SOLV>
0

>  <SCORE.SYSTEM.norm>
0

>  <SCORE.heavy>
27

>  <SCORE.norm>
-0.457844

>  <RMSD>
5.865

$$$$
ligand
 OpenBabel11021811483D
libRbt.so/2013.1/901 2013/11/27
 27 29  0  0  0  0  0  0  0  0999 V2000
   16.4231   -8.0726   18.7746 N   0  0  0  0  0  0  0  0  0  0  0  0
   15.0124   -8.0099   18.3878 C   0  0  2  0  0  0  0  0  0  0  0  0
   14.0655   -8.9143   19.1805 C   0  0  0  0  0  0  0  0  0  0  0  0
   12.9611   -8.4783   19.5027 O   0  0  0  0  0  0  0  0  0  0  0  0
   14.8473   -8.2421   16.8952 C   0  0  0  0  0  0  0  0  0  0  0  0
   13.4269   -7.9559   16.4391 C   0  0  0  0  0  0  0  0  0  0  0  0
   13.2632   -8.2180   14.6644 S   0  0  2  0  0  0  0  0  0  0  0  0
   14.0119   -6.6935   14.0524 C   0  0  0  0  0  0  0  0  0  0  0  0
   11.5172   -7.8110   14.4307 C   0  0  0  0  0  0  0  0  0  0  0  0
   11.0898   -8.0625   12.9965 C   0  0  1  0  0  0  0  0  0  0  0  0
   11.1962   -6.8830   12.2325 O   0  0  0  0  0  0  0  0  0  0  0  0
   11.9729   -9.0718   12.2894 C   0  0  1  0  0  0  0  0  0  0  0  0
   11.3951  -10.3447   12.4345 O   0  0  0  0  0  0  0  0  0  0  0  0
   11.9402   -8.6202   10.8434 C   0  0  1  0  0  0  0  0  0  0  0  0
   11.0136   -9.4403   10.1674 O   0  0  0  0  0  0  0  0  0  0  0  0
   11.4594   -7.1677   10.8699 C   0  0  2  0  0  0  0  0  0  0  0  0
   14.3614  -10.0638   19.5181 O   0  0  0  0  0  0  0  0  0  0  0  0
   14.1227   -5.1412    6.8427 N   0  0  0  0  0  0  0  0  0  0  0  0
   13.0576   -6.0077    6.7984 C   0  0  0  0  0  0  0  0  0  0  0  0
   12.4865   -6.4337    7.9774 N   0  0  0  0  0  0  0  0  0  0  0  0
   12.9543   -6.0115    9.1735 C   0  0  0  0  0  0  0  0  0  0  0  0
   14.0202   -5.1257    9.2339 C   0  0  0  0  0  0  0  0  0  0  0  0
   14.6150   -4.6938    8.0503 C   0  0  0  0  0  0  0  0  0  0  0  0
   15.6455   -3.8479    8.0671 N   0  0  0  0  0  0  0  0  0  0  0  0
   14.2734   -4.8658   10.5425 N   0  0  0  0  0  0  0  0  0  0  0  0
   13.3814   -5.5548   11.2910 C   0  0  0  0  0  0  0  0  0  0  0  0
   12.5522   -6.2644   10.4577 N   0  0  0  0  0  0  0  0  0  0  0  0
  2  1  1  1  0  0  0
  2  3  1  0  0  0  0
  2  5  1  0  0  0  0
  3  4  1  0  0  0  0
  3 17  1  0  0  0  0
  5  6  1  0  0  0  0
  7  6  1  1  0  0  0
  7  8  1  0  0  0  0
  7  9  1  0  0  0  0
 10  9  1  1  0  0  0
 10 11  1  0  0  0  0
 10 12  1  0  0  0  0
 11 16  1  0  0  0  0
 12 13  1  6  0  0  0
 12 14  1  0  0  0  0
 14 15  1  6  0  0  0
 14 16  1  0  0  0  0
 16 27  1  1  0  0  0
 18 19  2  0  0  0  0
 18 23  1  0  0  0  0
 19 20  1  0  0  0  0
 20 21  2  0  0  0  0
 21 22  1  0  0  0  0
 21 27  1  0  0  0  0
 22 23  2  0  0  0  0
 22 25  1  0  0  0  0
 23 24  1  0  0  0  0
 25 26  2  0  0  0  0
 26 27  1  0  0  0  0
M  END
>  <CHROM.1>
139.67369767,-170.62380757,179.27443127,-78.21093568,-175.54217446,-93.92639279
-166.63121574,13.19973086,-7.37291162,12.87854020,-1.47259252,-0.68811716
-1.21551132

>  <Name>
ligand

>  <RI>
0

>  <Rbt.Current_Directory>
/home/itssahil/PROJECTS/Mol_Feturizer/New_Systems/rnas/3GX5

>  <Rbt.Executable>
rbdock ($Id: //depot/dev/client3/rdock/2013.1/src/exe/rbdock.cxx#4 $)

>  <Rbt.Library>
libRbt.so (2013.1, Build901 2013/11/27)

>  <Rbt.Parameter_File>
/export/apps/rDock/src/rDock_2013.1_src/data/scripts/dock_solv.prm

>  <Rbt.Receptor>
prm/pocket_docking_8.prm

>  <SCORE>
-7.60815

>  <SCORE.INTER>
-10.2337

>  <SCORE.INTER.CONST>
1

>  <SCORE.INTER.POLAR>
0

>  <SCORE.INTER.ROT>
7

>  <SCORE.INTER.SOLV>
9.23456

>  <SCORE.INTER.VDW>
-18.1673

>  <SCORE.INTER.norm>
-0.379026

>  <SCORE.INTRA>
2.62556

>  <SCORE.INTRA.DIHEDRAL>
3.28843

>  <SCORE.INTRA.DIHEDRAL.0>
4.28829

>  <SCORE.INTRA.POLAR>
0

>  <SCORE.INTRA.POLAR.0>
0

>  <SCORE.INTRA.REPUL>
0

>  <SCORE.INTRA.REPUL.0>
0

>  <SCORE.INTRA.SOLV>
-1.04211

>  <SCORE.INTRA.SOLV.lig_0>
-48.6018

>  <SCORE.INTRA.VDW>
1.5024

>  <SCORE.INTRA.VDW.0>
-2.1506

>  <SCORE.INTRA.norm>
0.0972431

>  <SCORE.RESTR>
0

>  <SCORE.RESTR.CAVITY>
0

>  <SCORE.RESTR.norm>
0

>  <SCORE.SYSTEM>
0

>  <SCORE.SYSTEM.CONST>
0

>  <SCORE.SYSTEM.DIHEDRAL>
0

>  <SCORE.SYSTEM.SOLV>
0

>  <SCORE.SYSTEM.norm>
0

>  <SCORE.heavy>
27

>  <SCORE.norm>
-0.281783

>  <RMSD>
5.874

$$$$
ligand
 OpenBabel11021811483D
libRbt.so/2013.1/901 2013/11/27
 27 29  0  0  0  0  0  0  0  0999 V2000
   17.5423   -8.6112    9.1030 N   0  0  0  0  0  0  0  0  0  0  0  0
   17.1620   -8.4710    7.6960 C   0  0  2  0  0  0  0  0  0  0  0  0
   18.0931   -9.1457    6.6858 C   0  0  0  0  0  0  0  0  0  0  0  0
   17.6060   -9.6437    5.6718 O   0  0  0  0  0  0  0  0  0  0  0  0
   16.9494   -7.0107    7.3335 C   0  0  0  0  0  0  0  0  0  0  0  0
   16.2384   -6.8642    5.9992 C   0  0  0  0  0  0  0  0  0  0  0  0
   14.5757   -7.5522    6.0850 S   0  0  2  0  0  0  0  0  0  0  0  0
   14.6254   -8.6687    4.6672 C   0  0  0  0  0  0  0  0  0  0  0  0
   13.6203   -6.1957    5.3668 C   0  0  0  0  0  0  0  0  0  0  0  0
   13.3000   -5.1452    6.4142 C   0  0  1  0  0  0  0  0  0  0  0  0
   12.6654   -5.7315    7.5276 O   0  0  0  0  0  0  0  0  0  0  0  0
   14.5405   -4.4768    6.9735 C   0  0  1  0  0  0  0  0  0  0  0  0
   14.7920   -3.3134    6.2264 O   0  0  0  0  0  0  0  0  0  0  0  0
   14.1485   -4.1361    8.3970 C   0  0  1  0  0  0  0  0  0  0  0  0
   13.7953   -2.7713    8.4209 O   0  0  0  0  0  0  0  0  0  0  0  0
   12.9377   -5.0146    8.7188 C   0  0  2  0  0  0  0  0  0  0  0  0
   19.3148   -9.2190    6.8441 O   0  0  0  0  0  0  0  0  0  0  0  0
   12.7901  -10.0738   10.0606 N   0  0  0  0  0  0  0  0  0  0  0  0
   12.3241   -9.4941    8.9057 C   0  0  0  0  0  0  0  0  0  0  0  0
   12.4539   -8.1332    8.7354 N   0  0  0  0  0  0  0  0  0  0  0  0
   13.0334   -7.3622    9.6827 C   0  0  0  0  0  0  0  0  0  0  0  0
   13.5212   -7.9352   10.8481 C   0  0  0  0  0  0  0  0  0  0  0  0
   13.3880   -9.3089   11.0395 C   0  0  0  0  0  0  0  0  0  0  0  0
   13.8381   -9.8957   12.1488 N   0  0  0  0  0  0  0  0  0  0  0  0
   14.0527   -6.9444   11.6097 N   0  0  0  0  0  0  0  0  0  0  0  0
   13.9208   -5.7774   10.9380 C   0  0  0  0  0  0  0  0  0  0  0  0
   13.2975   -6.0198    9.7387 N   0  0  0  0  0  0  0  0  0  0  0  0
  2  1  1  1  0  0  0
  2  3  1  0  0  0  0
  2  5  1  0  0  0  0
  3  4  1  0  0  0  0
  3 17  1  0  0  0  0
  5  6  1  0  0  0  0
  7  6  1  6  0  0  0
  7  8  1  0  0  0  0
  7  9  1  0  0  0  0
 10  9  1  6  0  0  0
 10 11  1  0  0  0  0
 10 12  1  0  0  0  0
 11 16  1  0  0  0  0
 12 13  1  6  0  0  0
 12 14  1  0  0  0  0
 14 15  1  6  0  0  0
 14 16  1  0  0  0  0
 16 27  1  1  0  0  0
 18 19  2  0  0  0  0
 18 23  1  0  0  0  0
 19 20  1  0  0  0  0
 20 21  2  0  0  0  0
 21 22  1  0  0  0  0
 21 27  1  0  0  0  0
 22 23  2  0  0  0  0
 22 25  1  0  0  0  0
 23 24  1  0  0  0  0
 25 26  2  0  0  0  0
 26 27  1  0  0  0  0
M  END
>  <CHROM.1>
145.04453513,-166.20711716,64.15803537,-127.12307601,-83.63944555,-54.01844399
-17.94982425,14.65650532,-7.13204442,8.03767047,-0.12839689,-0.78196020,2.44987375

>  <Name>
ligand

>  <RI>
0

>  <Rbt.Current_Directory>
/home/itssahil/PROJECTS/Mol_Feturizer/New_Systems/rnas/3GX5

>  <Rbt.Executable>
rbdock ($Id: //depot/dev/client3/rdock/2013.1/src/exe/rbdock.cxx#4 $)

>  <Rbt.Library>
libRbt.so (2013.1, Build901 2013/11/27)

>  <Rbt.Parameter_File>
/export/apps/rDock/src/rDock_2013.1_src/data/scripts/dock_solv.prm

>  <Rbt.Receptor>
prm/pocket_docking_6.prm

>  <SCORE>
-10.102

>  <SCORE.INTER>
-10.3048

>  <SCORE.INTER.CONST>
1

>  <SCORE.INTER.POLAR>
0

>  <SCORE.INTER.ROT>
7

>  <SCORE.INTER.SOLV>
8.09171

>  <SCORE.INTER.VDW>
-17.8338

>  <SCORE.INTER.norm>
-0.38166

>  <SCORE.INTRA>
0.200646

>  <SCORE.INTRA.DIHEDRAL>
4.7873

>  <SCORE.INTRA.DIHEDRAL.0>
4.28829

>  <SCORE.INTRA.POLAR>
0

>  <SCORE.INTRA.POLAR.0>
0

>  <SCORE.INTRA.REPUL>
0

>  <SCORE.INTRA.REPUL.0>
0

>  <SCORE.INTRA.SOLV>
-0.591595

>  <SCORE.INTRA.SOLV.lig_0>
-48.6018

>  <SCORE.INTRA.VDW>
-1.8972

>  <SCORE.INTRA.VDW.0>
-2.1506

>  <SCORE.INTRA.norm>
0.00743135

>  <SCORE.RESTR>
0.00213281

>  <SCORE.RESTR.CAVITY>
0.00213281

>  <SCORE.RESTR.norm>
7.89929e-05

>  <SCORE.SYSTEM>
0

>  <SCORE.SYSTEM.CONST>
0

>  <SCORE.SYSTEM.DIHEDRAL>
0

>  <SCORE.SYSTEM.SOLV>
0

>  <SCORE.SYSTEM.norm>
0

>  <SCORE.heavy>
27

>  <SCORE.norm>
-0.37415

>  <RMSD>
5.889

$$$$
ligand
 OpenBabel11021811483D
libRbt.so/2013.1/901 2013/11/27
 27 29  0  0  0  0  0  0  0  0999 V2000
   15.1200   -3.9719   11.7452 N   0  0  0  0  0  0  0  0  0  0  0  0
   15.7885   -4.9334   10.8663 C   0  0  2  0  0  0  0  0  0  0  0  0
   17.1940   -5.3607   11.2962 C   0  0  0  0  0  0  0  0  0  0  0  0
   17.3350   -6.4378   11.8739 O   0  0  0  0  0  0  0  0  0  0  0  0
   15.7966   -4.4411    9.4288 C   0  0  0  0  0  0  0  0  0  0  0  0
   14.3893   -4.3342    8.8670 C   0  0  0  0  0  0  0  0  0  0  0  0
   14.4336   -3.9406    7.1097 S   0  0  2  0  0  0  0  0  0  0  0  0
   12.6939   -3.5451    6.8336 C   0  0  0  0  0  0  0  0  0  0  0  0
   14.4808   -5.6030    6.4005 C   0  0  0  0  0  0  0  0  0  0  0  0
   15.7974   -6.2888    6.7156 C   0  0  1  0  0  0  0  0  0  0  0  0
   15.8110   -7.5994    6.1977 O   0  0  0  0  0  0  0  0  0  0  0  0
   16.9863   -5.5991    6.0758 C   0  0  1  0  0  0  0  0  0  0  0  0
   17.5160   -4.6815    6.9990 O   0  0  0  0  0  0  0  0  0  0  0  0
   17.9570   -6.7333    5.8166 C   0  0  1  0  0  0  0  0  0  0  0  0
   18.9132   -6.7136    6.8526 O   0  0  0  0  0  0  0  0  0  0  0  0
   17.1251   -8.0164    5.8718 C   0  0  2  0  0  0  0  0  0  0  0  0
   18.1964   -4.6698   11.0947 O   0  0  0  0  0  0  0  0  0  0  0  0
   14.1288   -8.8835    1.6661 N   0  0  0  0  0  0  0  0  0  0  0  0
   13.8052   -8.1810    2.8014 C   0  0  0  0  0  0  0  0  0  0  0  0
   14.7369   -8.0636    3.8092 N   0  0  0  0  0  0  0  0  0  0  0  0
   15.9619   -8.6245    3.6978 C   0  0  0  0  0  0  0  0  0  0  0  0
   16.3081   -9.3251    2.5516 C   0  0  0  0  0  0  0  0  0  0  0  0
   15.3730   -9.4613    1.5278 C   0  0  0  0  0  0  0  0  0  0  0  0
   15.6656  -10.1327    0.4136 N   0  0  0  0  0  0  0  0  0  0  0  0
   17.5831   -9.7679    2.7021 N   0  0  0  0  0  0  0  0  0  0  0  0
   18.0387   -9.3451    3.9039 C   0  0  0  0  0  0  0  0  0  0  0  0
   17.0487   -8.6291    4.5306 N   0  0  0  0  0  0  0  0  0  0  0  0
  2  1  1  1  0  0  0
  2  3  1  0  0  0  0
  2  5  1  0  0  0  0
  3  4  1  0  0  0  0
  3 17  1  0  0  0  0
  5  6  1  0  0  0  0
  7  6  1  1  0  0  0
  7  8  1  0  0  0  0
  7  9  1  0  0  0  0
 10  9  1  6  0  0  0
 10 11  1  0  0  0  0
 10 12  1  0  0  0  0
 11 16  1  0  0  0  0
 12 13  1  1  0  0  0
 12 14  1  0  0  0  0
 14 15  1  1  0  0  0
 14 16  1  0  0  0  0
 16 27  1  6  0  0  0
 18 19  2  0  0  0  0
 18 23  1  0  0  0  0
 19 20  1  0  0  0  0
 20 21  2  0  0  0  0
 21 22  1  0  0  0  0
 21 27  1  0  0  0  0
 22 23  2  0  0  0  0
 22 25  1  0  0  0  0
 23 24  1  0  0  0  0
 25 26  2  0  0  0  0
 26 27  1  0  0  0  0
M  END
>  <CHROM.1>
99.94729901,-64.14448894,-173.23326042,-168.70447465,-67.93680041,178.09201801
8.15996709,16.02400297,-6.58520825,6.36174355,1.53791978,-0.53534381,1.02713287

>  <Name>
ligand

>  <RI>
0

>  <Rbt.Current_Directory>
/home/itssahil/PROJECTS/Mol_Feturizer/New_Systems/rnas/3GX5

>  <Rbt.Executable>
rbdock ($Id: //depot/dev/client3/rdock/2013.1/src/exe/rbdock.cxx#4 $)

>  <Rbt.Library>
libRbt.so (2013.1, Build901 2013/11/27)

>  <Rbt.Parameter_File>
/export/apps/rDock/src/rDock_2013.1_src/data/scripts/dock_solv.prm

>  <Rbt.Receptor>
prm/pocket_docking_6.prm

>  <SCORE>
-18.7527

>  <SCORE.INTER>
-18.3681

>  <SCORE.INTER.CONST>
1

>  <SCORE.INTER.POLAR>
0

>  <SCORE.INTER.ROT>
7

>  <SCORE.INTER.SOLV>
17.9043

>  <SCORE.INTER.VDW>
-26.4802

>  <SCORE.INTER.norm>
-0.6803

>  <SCORE.INTRA>
-0.384559

>  <SCORE.INTRA.DIHEDRAL>
0.556322

>  <SCORE.INTRA.DIHEDRAL.0>
4.28829

>  <SCORE.INTRA.POLAR>
0

>  <SCORE.INTRA.POLAR.0>
0

>  <SCORE.INTRA.REPUL>
0

>  <SCORE.INTRA.REPUL.0>
0

>  <SCORE.INTRA.SOLV>
-0.0569736

>  <SCORE.INTRA.SOLV.lig_0>
-48.6018

>  <SCORE.INTRA.VDW>
-0.634233

>  <SCORE.INTRA.VDW.0>
-2.1506

>  <SCORE.INTRA.norm>
-0.0142429

>  <SCORE.RESTR>
0

>  <SCORE.RESTR.CAVITY>
0

>  <SCORE.RESTR.norm>
0

>  <SCORE.SYSTEM>
0

>  <SCORE.SYSTEM.CONST>
0

>  <SCORE.SYSTEM.DIHEDRAL>
0

>  <SCORE.SYSTEM.SOLV>
0

>  <SCORE.SYSTEM.norm>
0

>  <SCORE.heavy>
27

>  <SCORE.norm>
-0.694543

>  <RMSD>
5.900

$$$$
ligand
 OpenBabel11021811483D
libRbt.so/2013.1/901 2013/11/27
 27 29  0  0  0  0  0  0  0  0999 V2000
   18.2214   -9.1232    5.2867 N   0  0  0  0  0  0  0  0  0  0  0  0
   17.6747   -7.7740    5.4435 C   0  0  2  0  0  0  0  0  0  0  0  0
   18.4877   -6.8267    6.3292 C   0  0  0  0  0  0  0  0  0  0  0  0
   19.3956   -7.2918    7.0171 O   0  0  0  0  0  0  0  0  0  0  0  0
   16.2273   -7.8242    5.9032 C   0  0  0  0  0  0  0  0  0  0  0  0
   15.5863   -6.4472    5.8817 C   0  0  0  0  0  0  0  0  0  0  0  0
   13.8609   -6.5401    6.3910 S   0  0  2  0  0  0  0  0  0  0  0  0
   13.1569   -7.3845    4.9591 C   0  0  0  0  0  0  0  0  0  0  0  0
   13.3219   -4.8506    6.0396 C   0  0  0  0  0  0  0  0  0  0  0  0
   13.7029   -3.9142    7.1715 C   0  0  1  0  0  0  0  0  0  0  0  0
   12.9774   -4.2255    8.3389 O   0  0  0  0  0  0  0  0  0  0  0  0
   15.1609   -4.0362    7.5685 C   0  0  1  0  0  0  0  0  0  0  0  0
   15.8980   -3.0812    6.8476 O   0  0  0  0  0  0  0  0  0  0  0  0
   15.1534   -3.7146    9.0492 C   0  0  1  0  0  0  0  0  0  0  0  0
   15.5617   -2.3724    9.1901 O   0  0  0  0  0  0  0  0  0  0  0  0
   13.7043   -3.8908    9.5079 C   0  0  2  0  0  0  0  0  0  0  0  0
   18.2707   -5.6135    6.3904 O   0  0  0  0  0  0  0  0  0  0  0  0
   15.1968   -5.9831   14.0700 N   0  0  0  0  0  0  0  0  0  0  0  0
   15.5296   -4.7526   13.5579 C   0  0  0  0  0  0  0  0  0  0  0  0
   15.0340   -4.3785   12.3282 N   0  0  0  0  0  0  0  0  0  0  0  0
   14.2255   -5.1993   11.6210 C   0  0  0  0  0  0  0  0  0  0  0  0
   13.8694   -6.4393   12.1314 C   0  0  0  0  0  0  0  0  0  0  0  0
   14.3710   -6.8361   13.3692 C   0  0  0  0  0  0  0  0  0  0  0  0
   14.0572   -8.0226   13.8902 N   0  0  0  0  0  0  0  0  0  0  0  0
   13.0534   -7.0432   11.2294 N   0  0  0  0  0  0  0  0  0  0  0  0
   12.8830   -6.2021   10.1834 C   0  0  0  0  0  0  0  0  0  0  0  0
   13.5969   -5.0520   10.4136 N   0  0  0  0  0  0  0  0  0  0  0  0
  2  1  1  1  0  0  0
  2  3  1  0  0  0  0
  2  5  1  0  0  0  0
  3  4  1  0  0  0  0
  3 17  1  0  0  0  0
  5  6  1  0  0  0  0
  7  6  1  6  0  0  0
  7  8  1  0  0  0  0
  7  9  1  0  0  0  0
 10  9  1  6  0  0  0
 10 11  1  0  0  0  0
 10 12  1  0  0  0  0
 11 16  1  0  0  0  0
 12 13  1  6  0  0  0
 12 14  1  0  0  0  0
 14 15  1  6  0  0  0
 14 16  1  0  0  0  0
 16 27  1  1  0  0  0
 18 19  2  0  0  0  0
 18 23  1  0  0  0  0
 19 20  1  0  0  0  0
 20 21  2  0  0  0  0
 21 22  1  0  0  0  0
 21 27  1  0  0  0  0
 22 23  2  0  0  0  0
 22 25  1  0  0  0  0
 23 24  1  0  0  0  0
 25 26  2  0  0  0  0
 26 27  1  0  0  0  0
M  END
>  <CHROM.1>
-11.79413627,-171.93839992,178.58728054,-70.37159923,-82.08729299,-67.13829580
175.24647317,15.09502645,-5.74876560,8.67606850,-1.13818846,-0.70579173,1.70265237

>  <Name>
ligand

>  <RI>
0

>  <Rbt.Current_Directory>
/home/itssahil/PROJECTS/Mol_Feturizer/New_Systems/rnas/3GX5

>  <Rbt.Executable>
rbdock ($Id: //depot/dev/client3/rdock/2013.1/src/exe/rbdock.cxx#4 $)

>  <Rbt.Library>
libRbt.so (2013.1, Build901 2013/11/27)

>  <Rbt.Parameter_File>
/export/apps/rDock/src/rDock_2013.1_src/data/scripts/dock_solv.prm

>  <Rbt.Receptor>
prm/pocket_docking_8.prm

>  <SCORE>
-16.0504

>  <SCORE.INTER>
-16.5716

>  <SCORE.INTER.CONST>
1

>  <SCORE.INTER.POLAR>
0

>  <SCORE.INTER.ROT>
7

>  <SCORE.INTER.SOLV>
10.6179

>  <SCORE.INTER.VDW>
-22.8537

>  <SCORE.INTER.norm>
-0.613762

>  <SCORE.INTRA>
0.521152

>  <SCORE.INTRA.DIHEDRAL>
0.0429503

>  <SCORE.INTRA.DIHEDRAL.0>
4.28829

>  <SCORE.INTRA.POLAR>
0

>  <SCORE.INTRA.POLAR.0>
0

>  <SCORE.INTRA.REPUL>
0

>  <SCORE.INTRA.REPUL.0>
0

>  <SCORE.INTRA.SOLV>
-0.860942

>  <SCORE.INTRA.SOLV.lig_0>
-48.6018

>  <SCORE.INTRA.VDW>
0.930148

>  <SCORE.INTRA.VDW.0>
-2.1506

>  <SCORE.INTRA.norm>
0.0193019

>  <SCORE.RESTR>
0

>  <SCORE.RESTR.CAVITY>
0

>  <SCORE.RESTR.norm>
0

>  <SCORE.SYSTEM>
0

>  <SCORE.SYSTEM.CONST>
0

>  <SCORE.SYSTEM.DIHEDRAL>
0

>  <SCORE.SYSTEM.SOLV>
0

>  <SCORE.SYSTEM.norm>
0

>  <SCORE.heavy>
27

>  <SCORE.norm>
-0.59446

>  <RMSD>
5.927

$$$$
ligand
 OpenBabel11021811483D
libRbt.so/2013.1/901 2013/11/27
 27 29  0  0  0  0  0  0  0  0999 V2000
   17.0125   -9.0104    8.4918 N   0  0  0  0  0  0  0  0  0  0  0  0
   16.4273   -8.5729    7.2230 C   0  0  2  0  0  0  0  0  0  0  0  0
   16.9254   -9.3048    5.9744 C   0  0  0  0  0  0  0  0  0  0  0  0
   18.0904   -9.6994    5.9442 O   0  0  0  0  0  0  0  0  0  0  0  0
   16.5648   -7.0695    7.0509 C   0  0  0  0  0  0  0  0  0  0  0  0
   15.7226   -6.5604    5.8937 C   0  0  0  0  0  0  0  0  0  0  0  0
   13.9756   -6.5524    6.3330 S   0  0  2  0  0  0  0  0  0  0  0  0
   13.2833   -7.3668    4.8781 C   0  0  0  0  0  0  0  0  0  0  0  0
   13.5474   -4.8380    5.9508 C   0  0  0  0  0  0  0  0  0  0  0  0
   13.8872   -3.9231    7.1130 C   0  0  1  0  0  0  0  0  0  0  0  0
   13.0864   -4.2245    8.2328 O   0  0  0  0  0  0  0  0  0  0  0  0
   15.3157   -4.0897    7.5928 C   0  0  1  0  0  0  0  0  0  0  0  0
   16.1196   -3.1492    6.9263 O   0  0  0  0  0  0  0  0  0  0  0  0
   15.2305   -3.7814    9.0739 C   0  0  1  0  0  0  0  0  0  0  0  0
   15.6666   -2.4526    9.2528 O   0  0  0  0  0  0  0  0  0  0  0  0
   13.7527   -3.9211    9.4457 C   0  0  2  0  0  0  0  0  0  0  0  0
   16.2118   -9.5138    4.9896 O   0  0  0  0  0  0  0  0  0  0  0  0
   14.9822   -6.1325   14.0300 N   0  0  0  0  0  0  0  0  0  0  0  0
   15.3879   -4.9122   13.5470 C   0  0  0  0  0  0  0  0  0  0  0  0
   14.9549   -4.5015   12.3054 N   0  0  0  0  0  0  0  0  0  0  0  0
   14.1373   -5.2768   11.5583 C   0  0  0  0  0  0  0  0  0  0  0  0
   13.7080   -6.5055   12.0385 C   0  0  0  0  0  0  0  0  0  0  0  0
   14.1456   -6.9393   13.2882 C   0  0  0  0  0  0  0  0  0  0  0  0
   13.7605   -8.1166   13.7813 N   0  0  0  0  0  0  0  0  0  0  0  0
   12.8997   -7.0614   11.0995 N   0  0  0  0  0  0  0  0  0  0  0  0
   12.8054   -6.2011   10.0595 C   0  0  0  0  0  0  0  0  0  0  0  0
   13.5607   -5.0870   10.3310 N   0  0  0  0  0  0  0  0  0  0  0  0
  2  1  1  1  0  0  0
  2  3  1  0  0  0  0
  2  5  1  0  0  0  0
  3  4  1  0  0  0  0
  3 17  1  0  0  0  0
  5  6  1  0  0  0  0
  7  6  1  6  0  0  0
  7  8  1  0  0  0  0
  7  9  1  0  0  0  0
 10  9  1  6  0  0  0
 10 11  1  0  0  0  0
 10 12  1  0  0  0  0
 11 16  1  0  0  0  0
 12 13  1  6  0  0  0
 12 14  1  0  0  0  0
 14 15  1  6  0  0  0
 14 16  1  0  0  0  0
 16 27  1  1  0  0  0
 18 19  2  0  0  0  0
 18 23  1  0  0  0  0
 19 20  1  0  0  0  0
 20 21  2  0  0  0  0
 21 22  1  0  0  0  0
 21 27  1  0  0  0  0
 22 23  2  0  0  0  0
 22 25  1  0  0  0  0
 23 24  1  0  0  0  0
 25 26  2  0  0  0  0
 26 27  1  0  0  0  0
M  END
>  <CHROM.1>
-33.03099925,-168.29581152,73.92113083,-131.79424247,-84.19957344,-65.54878714
173.66053046,14.84750737,-6.12184500,8.74255933,-0.88048762,-1.21750809,1.91455840

>  <Name>
ligand

>  <RI>
0

>  <Rbt.Current_Directory>
/home/itssahil/PROJECTS/Mol_Feturizer/New_Systems/rnas/3GX5

>  <Rbt.Executable>
rbdock ($Id: //depot/dev/client3/rdock/2013.1/src/exe/rbdock.cxx#4 $)

>  <Rbt.Library>
libRbt.so (2013.1, Build901 2013/11/27)

>  <Rbt.Parameter_File>
/export/apps/rDock/src/rDock_2013.1_src/data/scripts/dock_solv.prm

>  <Rbt.Receptor>
prm/pocket_docking_7.prm

>  <SCORE>
-13.3651

>  <SCORE.INTER>
-15.0382

>  <SCORE.INTER.CONST>
1

>  <SCORE.INTER.POLAR>
0

>  <SCORE.INTER.ROT>
7

>  <SCORE.INTER.SOLV>
9.0473

>  <SCORE.INTER.VDW>
-21.3079

>  <SCORE.INTER.norm>
-0.556969

>  <SCORE.INTRA>
1.67304

>  <SCORE.INTRA.DIHEDRAL>
5.30574

>  <SCORE.INTRA.DIHEDRAL.0>
4.28829

>  <SCORE.INTRA.POLAR>
0

>  <SCORE.INTRA.POLAR.0>
0

>  <SCORE.INTRA.REPUL>
0

>  <SCORE.INTRA.REPUL.0>
0

>  <SCORE.INTRA.SOLV>
-0.627567

>  <SCORE.INTRA.SOLV.lig_0>
-48.6018

>  <SCORE.INTRA.VDW>
-0.66604

>  <SCORE.INTRA.VDW.0>
-2.1506

>  <SCORE.INTRA.norm>
0.0619646

>  <SCORE.RESTR>
0

>  <SCORE.RESTR.CAVITY>
0

>  <SCORE.RESTR.norm>
0

>  <SCORE.SYSTEM>
0

>  <SCORE.SYSTEM.CONST>
0

>  <SCORE.SYSTEM.DIHEDRAL>
0

>  <SCORE.SYSTEM.SOLV>
0

>  <SCORE.SYSTEM.norm>
0

>  <SCORE.heavy>
27

>  <SCORE.norm>
-0.495004

>  <RMSD>
5.946

$$$$
ligand
 OpenBabel11021811483D
libRbt.so/2013.1/901 2013/11/27
 27 29  0  0  0  0  0  0  0  0999 V2000
   16.2262   -9.2893    4.8229 N   0  0  0  0  0  0  0  0  0  0  0  0
   16.2336   -9.0637    6.2696 C   0  0  2  0  0  0  0  0  0  0  0  0
   14.9001   -9.2946    6.9846 C   0  0  0  0  0  0  0  0  0  0  0  0
   14.8351   -9.0933    8.1966 O   0  0  0  0  0  0  0  0  0  0  0  0
   16.7864   -7.6880    6.6022 C   0  0  0  0  0  0  0  0  0  0  0  0
   16.0808   -6.5972    5.8150 C   0  0  0  0  0  0  0  0  0  0  0  0
   14.4006   -6.3609    6.4201 S   0  0  2  0  0  0  0  0  0  0  0  0
   13.4691   -7.0405    5.0310 C   0  0  0  0  0  0  0  0  0  0  0  0
   14.1789   -4.5959    6.0968 C   0  0  0  0  0  0  0  0  0  0  0  0
   14.6817   -3.7646    7.2626 C   0  0  1  0  0  0  0  0  0  0  0  0
   13.8071   -3.8717    8.3625 O   0  0  0  0  0  0  0  0  0  0  0  0
   16.0270   -4.2337    7.7809 C   0  0  1  0  0  0  0  0  0  0  0  0
   17.0332   -3.4987    7.1308 O   0  0  0  0  0  0  0  0  0  0  0  0
   15.9748   -3.8981    9.2576 C   0  0  1  0  0  0  0  0  0  0  0  0
   16.6862   -2.6946    9.4409 O   0  0  0  0  0  0  0  0  0  0  0  0
   14.4936   -3.7077    9.5909 C   0  0  2  0  0  0  0  0  0  0  0  0
   13.8836   -9.6804    6.4009 O   0  0  0  0  0  0  0  0  0  0  0  0
   12.0854   -8.3492    9.8649 N   0  0  0  0  0  0  0  0  0  0  0  0
   12.3708   -7.6127    8.7410 C   0  0  0  0  0  0  0  0  0  0  0  0
   13.0152   -6.4025    8.8747 N   0  0  0  0  0  0  0  0  0  0  0  0
   13.3726   -5.9311   10.0903 C   0  0  0  0  0  0  0  0  0  0  0  0
   13.1036   -6.6700   11.2332 C   0  0  0  0  0  0  0  0  0  0  0  0
   12.4432   -7.8912   11.1152 C   0  0  0  0  0  0  0  0  0  0  0  0
   12.1610   -8.6273   12.1904 N   0  0  0  0  0  0  0  0  0  0  0  0
   13.5727   -5.9737   12.3005 N   0  0  0  0  0  0  0  0  0  0  0  0
   14.1390   -4.8323   11.8454 C   0  0  0  0  0  0  0  0  0  0  0  0
   14.0298   -4.7938   10.4771 N   0  0  0  0  0  0  0  0  0  0  0  0
  2  1  1  6  0  0  0
  2  3  1  0  0  0  0
  2  5  1  0  0  0  0
  3  4  1  0  0  0  0
  3 17  1  0  0  0  0
  5  6  1  0  0  0  0
  7  6  1  6  0  0  0
  7  8  1  0  0  0  0
  7  9  1  0  0  0  0
 10  9  1  6  0  0  0
 10 11  1  0  0  0  0
 10 12  1  0  0  0  0
 11 16  1  0  0  0  0
 12 13  1  6  0  0  0
 12 14  1  0  0  0  0
 14 15  1  6  0  0  0
 14 16  1  0  0  0  0
 16 27  1  1  0  0  0
 18 19  2  0  0  0  0
 18 23  1  0  0  0  0
 19 20  1  0  0  0  0
 20 21  2  0  0  0  0
 21 22  1  0  0  0  0
 21 27  1  0  0  0  0
 22 23  2  0  0  0  0
 22 25  1  0  0  0  0
 23 24  1  0  0  0  0
 25 26  2  0  0  0  0
 26 27  1  0  0  0  0
M  END
>  <CHROM.1>
-178.44454269,51.95301622,71.43249472,-109.45084437,-87.24229749,-72.47111567
16.43870147,14.47952922,-6.33448611,8.29233419,1.03385903,-1.00419121,-2.49970169

>  <Name>
ligand

>  <RI>
0

>  <Rbt.Current_Directory>
/home/itssahil/PROJECTS/Mol_Feturizer/New_Systems/rnas/3GX5

>  <Rbt.Executable>
rbdock ($Id: //depot/dev/client3/rdock/2013.1/src/exe/rbdock.cxx#4 $)

>  <Rbt.Library>
libRbt.so (2013.1, Build901 2013/11/27)

>  <Rbt.Parameter_File>
/export/apps/rDock/src/rDock_2013.1_src/data/scripts/dock_solv.prm

>  <Rbt.Receptor>
prm/pocket_docking_4.prm

>  <SCORE>
-12.4276

>  <SCORE.INTER>
-14.0858

>  <SCORE.INTER.CONST>
1

>  <SCORE.INTER.POLAR>
0

>  <SCORE.INTER.ROT>
7

>  <SCORE.INTER.SOLV>
8.3831

>  <SCORE.INTER.VDW>
-20.4516

>  <SCORE.INTER.norm>
-0.521698

>  <SCORE.INTRA>
1.65821

>  <SCORE.INTRA.DIHEDRAL>
4.6409

>  <SCORE.INTRA.DIHEDRAL.0>
4.28829

>  <SCORE.INTRA.POLAR>
0

>  <SCORE.INTRA.POLAR.0>
0

>  <SCORE.INTRA.REPUL>
0

>  <SCORE.INTRA.REPUL.0>
0

>  <SCORE.INTRA.SOLV>
1.56068

>  <SCORE.INTRA.SOLV.lig_0>
-48.6018

>  <SCORE.INTRA.VDW>
-1.44258

>  <SCORE.INTRA.VDW.0>
-2.1506

>  <SCORE.INTRA.norm>
0.0614153

>  <SCORE.RESTR>
0

>  <SCORE.RESTR.CAVITY>
0

>  <SCORE.RESTR.norm>
0

>  <SCORE.SYSTEM>
0

>  <SCORE.SYSTEM.CONST>
0

>  <SCORE.SYSTEM.DIHEDRAL>
0

>  <SCORE.SYSTEM.SOLV>
0

>  <SCORE.SYSTEM.norm>
0

>  <SCORE.heavy>
27

>  <SCORE.norm>
-0.460283

>  <RMSD>
5.951

$$$$
ligand
 OpenBabel11021811483D
libRbt.so/2013.1/901 2013/11/27
 27 29  0  0  0  0  0  0  0  0999 V2000
   18.1919   -8.8283    5.0728 N   0  0  0  0  0  0  0  0  0  0  0  0
   18.3648   -7.8396    6.1388 C   0  0  2  0  0  0  0  0  0  0  0  0
   19.3853   -8.2010    7.2208 C   0  0  0  0  0  0  0  0  0  0  0  0
   20.1697   -7.3358    7.6080 O   0  0  0  0  0  0  0  0  0  0  0  0
   17.0288   -7.4765    6.7651 C   0  0  0  0  0  0  0  0  0  0  0  0
   16.1312   -6.7452    5.7818 C   0  0  0  0  0  0  0  0  0  0  0  0
   14.5528   -6.3328    6.5458 S   0  0  2  0  0  0  0  0  0  0  0  0
   13.4217   -7.0208    5.3185 C   0  0  0  0  0  0  0  0  0  0  0  0
   14.4288   -4.5799    6.1207 C   0  0  0  0  0  0  0  0  0  0  0  0
   15.0052   -3.7129    7.2249 C   0  0  1  0  0  0  0  0  0  0  0  0
   14.1554   -3.7107    8.3492 O   0  0  0  0  0  0  0  0  0  0  0  0
   16.3371   -4.2243    7.7378 C   0  0  1  0  0  0  0  0  0  0  0  0
   17.3631   -3.5825    7.0234 O   0  0  0  0  0  0  0  0  0  0  0  0
   16.3414   -3.8041    9.1936 C   0  0  1  0  0  0  0  0  0  0  0  0
   17.1198   -2.6325    9.2909 O   0  0  0  0  0  0  0  0  0  0  0  0
   14.8815   -3.5155    9.5498 C   0  0  2  0  0  0  0  0  0  0  0  0
   19.4625   -9.3263    7.7213 O   0  0  0  0  0  0  0  0  0  0  0  0
   12.1147   -7.9184   10.1636 N   0  0  0  0  0  0  0  0  0  0  0  0
   12.3901   -7.2519    8.9944 C   0  0  0  0  0  0  0  0  0  0  0  0
   13.1407   -6.0976    9.0379 N   0  0  0  0  0  0  0  0  0  0  0  0
   13.6116   -5.6135   10.2090 C   0  0  0  0  0  0  0  0  0  0  0  0
   13.3535   -6.2831   11.3963 C   0  0  0  0  0  0  0  0  0  0  0  0
   12.5870   -7.4463   11.3698 C   0  0  0  0  0  0  0  0  0  0  0  0
   12.3118   -8.1144   12.4903 N   0  0  0  0  0  0  0  0  0  0  0  0
   13.9450   -5.5902   12.4034 N   0  0  0  0  0  0  0  0  0  0  0  0
   14.5754   -4.5199   11.8672 C   0  0  0  0  0  0  0  0  0  0  0  0
   14.3846   -4.5235   10.5074 N   0  0  0  0  0  0  0  0  0  0  0  0
  2  1  1  6  0  0  0
  2  3  1  0  0  0  0
  2  5  1  0  0  0  0
  3  4  1  0  0  0  0
  3 17  1  0  0  0  0
  5  6  1  0  0  0  0
  7  6  1  6  0  0  0
  7  8  1  0  0  0  0
  7  9  1  0  0  0  0
 10  9  1  6  0  0  0
 10 11  1  0  0  0  0
 10 12  1  0  0  0  0
 11 16  1  0  0  0  0
 12 13  1  6  0  0  0
 12 14  1  0  0  0  0
 14 15  1  6  0  0  0
 14 16  1  0  0  0  0
 16 27  1  1  0  0  0
 18 19  2  0  0  0  0
 18 23  1  0  0  0  0
 19 20  1  0  0  0  0
 20 21  2  0  0  0  0
 21 22  1  0  0  0  0
 21 27  1  0  0  0  0
 22 23  2  0  0  0  0
 22 25  1  0  0  0  0
 23 24  1  0  0  0  0
 25 26  2  0  0  0  0
 26 27  1  0  0  0  0
M  END
>  <CHROM.1>
136.24629893,-66.41106259,179.75756842,-127.87431824,-92.59328949,-71.98935427
13.52684206,15.39902610,-6.00937803,8.40090400,-0.28536358,0.69789186,0.10444041

>  <Name>
ligand

>  <RI>
0

>  <Rbt.Current_Directory>
/home/itssahil/PROJECTS/Mol_Feturizer/New_Systems/rnas/3GX5

>  <Rbt.Executable>
rbdock ($Id: //depot/dev/client3/rdock/2013.1/src/exe/rbdock.cxx#4 $)

>  <Rbt.Library>
libRbt.so (2013.1, Build901 2013/11/27)

>  <Rbt.Parameter_File>
/export/apps/rDock/src/rDock_2013.1_src/data/scripts/dock_solv.prm

>  <Rbt.Receptor>
prm/pocket_docking_6.prm

>  <SCORE>
-11.2454

>  <SCORE.INTER>
-12.5635

>  <SCORE.INTER.CONST>
1

>  <SCORE.INTER.POLAR>
0

>  <SCORE.INTER.ROT>
7

>  <SCORE.INTER.SOLV>
8.85605

>  <SCORE.INTER.VDW>
-19.5944

>  <SCORE.INTER.norm>
-0.465316

>  <SCORE.INTRA>
1.31815

>  <SCORE.INTRA.DIHEDRAL>
5.59255

>  <SCORE.INTRA.DIHEDRAL.0>
4.28829

>  <SCORE.INTRA.POLAR>
0

>  <SCORE.INTRA.POLAR.0>
0

>  <SCORE.INTRA.REPUL>
0

>  <SCORE.INTRA.REPUL.0>
0

>  <SCORE.INTRA.SOLV>
-0.0938177

>  <SCORE.INTRA.SOLV.lig_0>
-48.6018

>  <SCORE.INTRA.VDW>
-1.43121

>  <SCORE.INTRA.VDW.0>
-2.1506

>  <SCORE.INTRA.norm>
0.0488205

>  <SCORE.RESTR>
0

>  <SCORE.RESTR.CAVITY>
0

>  <SCORE.RESTR.norm>
0

>  <SCORE.SYSTEM>
0

>  <SCORE.SYSTEM.CONST>
0

>  <SCORE.SYSTEM.DIHEDRAL>
0

>  <SCORE.SYSTEM.SOLV>
0

>  <SCORE.SYSTEM.norm>
0

>  <SCORE.heavy>
27

>  <SCORE.norm>
-0.416495

>  <RMSD>
5.972

$$$$
ligand
 OpenBabel11021811483D
libRbt.so/2013.1/901 2013/11/27
 27 29  0  0  0  0  0  0  0  0999 V2000
   17.0223   -9.1275    8.2538 N   0  0  0  0  0  0  0  0  0  0  0  0
   16.3154   -8.4344    7.1750 C   0  0  2  0  0  0  0  0  0  0  0  0
   16.2113   -9.1969    5.8519 C   0  0  0  0  0  0  0  0  0  0  0  0
   17.2466   -9.5150    5.2684 O   0  0  0  0  0  0  0  0  0  0  0  0
   16.8953   -7.0484    6.9481 C   0  0  0  0  0  0  0  0  0  0  0  0
   16.0555   -6.2448    5.9701 C   0  0  0  0  0  0  0  0  0  0  0  0
   14.4227   -5.9137    6.6553 S   0  0  2  0  0  0  0  0  0  0  0  0
   13.3894   -6.4525    5.2765 C   0  0  0  0  0  0  0  0  0  0  0  0
   14.3249   -4.1233    6.4235 C   0  0  0  0  0  0  0  0  0  0  0  0
   14.9605   -3.3907    7.5907 C   0  0  1  0  0  0  0  0  0  0  0  0
   14.2418   -3.6315    8.7788 O   0  0  0  0  0  0  0  0  0  0  0  0
   16.3720   -3.8618    7.8807 C   0  0  1  0  0  0  0  0  0  0  0  0
   17.2677   -3.0350    7.1815 O   0  0  0  0  0  0  0  0  0  0  0  0
   16.5091   -3.6706    9.3777 C   0  0  1  0  0  0  0  0  0  0  0  0
   17.2136   -2.4671    9.5852 O   0  0  0  0  0  0  0  0  0  0  0  0
   15.0815   -3.5626    9.9178 C   0  0  2  0  0  0  0  0  0  0  0  0
   15.1324   -9.5042    5.3377 O   0  0  0  0  0  0  0  0  0  0  0  0
   16.7633   -8.1885   11.7041 N   0  0  0  0  0  0  0  0  0  0  0  0
   17.4373   -7.2982   10.9039 C   0  0  0  0  0  0  0  0  0  0  0  0
   16.8200   -6.1232   10.5351 N   0  0  0  0  0  0  0  0  0  0  0  0
   15.5665   -5.8320   10.9493 C   0  0  0  0  0  0  0  0  0  0  0  0
   14.8785   -6.7148   11.7690 C   0  0  0  0  0  0  0  0  0  0  0  0
   15.4856   -7.9121   12.1422 C   0  0  0  0  0  0  0  0  0  0  0  0
   14.8545   -8.7890   12.9234 N   0  0  0  0  0  0  0  0  0  0  0  0
   13.6618   -6.1742   12.0365 N   0  0  0  0  0  0  0  0  0  0  0  0
   13.5868   -4.9736   11.4170 C   0  0  0  0  0  0  0  0  0  0  0  0
   14.7617   -4.7433   10.7447 N   0  0  0  0  0  0  0  0  0  0  0  0
  2  1  1  1  0  0  0
  2  3  1  0  0  0  0
  2  5  1  0  0  0  0
  3  4  1  0  0  0  0
  3 17  1  0  0  0  0
  5  6  1  0  0  0  0
  7  6  1  6  0  0  0
  7  8  1  0  0  0  0
  7  9  1  0  0  0  0
 10  9  1  6  0  0  0
 10 11  1  0  0  0  0
 10 12  1  0  0  0  0
 11 16  1  0  0  0  0
 12 13  1  6  0  0  0
 12 14  1  0  0  0  0
 14 15  1  6  0  0  0
 14 16  1  0  0  0  0
 16 27  1  1  0  0  0
 18 19  2  0  0  0  0
 18 23  1  0  0  0  0
 19 20  1  0  0  0  0
 20 21  2  0  0  0  0
 21 22  1  0  0  0  0
 21 27  1  0  0  0  0
 22 23  2  0  0  0  0
 22 25  1  0  0  0  0
 23 24  1  0  0  0  0
 25 26  2  0  0  0  0
 26 27  1  0  0  0  0
M  END
>  <CHROM.1>
-60.55768815,-172.08963924,65.19691592,-129.74126534,-86.04255701,-64.57696762
109.83186430,15.60053582,-6.11631956,8.63980429,-0.93302625,-1.44886560,1.82120843

>  <Name>
ligand

>  <RI>
0

>  <Rbt.Current_Directory>
/home/itssahil/PROJECTS/Mol_Feturizer/New_Systems/rnas/3GX5

>  <Rbt.Executable>
rbdock ($Id: //depot/dev/client3/rdock/2013.1/src/exe/rbdock.cxx#4 $)

>  <Rbt.Library>
libRbt.so (2013.1, Build901 2013/11/27)

>  <Rbt.Parameter_File>
/export/apps/rDock/src/rDock_2013.1_src/data/scripts/dock_solv.prm

>  <Rbt.Receptor>
prm/pocket_docking_4.prm

>  <SCORE>
-7.67167

>  <SCORE.INTER>
-9.0103

>  <SCORE.INTER.CONST>
1

>  <SCORE.INTER.POLAR>
0

>  <SCORE.INTER.ROT>
7

>  <SCORE.INTER.SOLV>
9.04734

>  <SCORE.INTER.VDW>
-17.2893

>  <SCORE.INTER.norm>
-0.333715

>  <SCORE.INTRA>
1.33863

>  <SCORE.INTRA.DIHEDRAL>
4.565

>  <SCORE.INTRA.DIHEDRAL.0>
4.28829

>  <SCORE.INTRA.POLAR>
0

>  <SCORE.INTRA.POLAR.0>
0

>  <SCORE.INTRA.REPUL>
0

>  <SCORE.INTRA.REPUL.0>
0

>  <SCORE.INTRA.SOLV>
0.206803

>  <SCORE.INTRA.SOLV.lig_0>
-48.6018

>  <SCORE.INTRA.VDW>
-1.04728

>  <SCORE.INTRA.VDW.0>
-2.1506

>  <SCORE.INTRA.norm>
0.0495787

>  <SCORE.RESTR>
0

>  <SCORE.RESTR.CAVITY>
0

>  <SCORE.RESTR.norm>
0

>  <SCORE.SYSTEM>
0

>  <SCORE.SYSTEM.CONST>
0

>  <SCORE.SYSTEM.DIHEDRAL>
0

>  <SCORE.SYSTEM.SOLV>
0

>  <SCORE.SYSTEM.norm>
0

>  <SCORE.heavy>
27

>  <SCORE.norm>
-0.284136

>  <RMSD>
5.985

$$$$
ligand
 OpenBabel11021811483D
libRbt.so/2013.1/901 2013/11/27
 27 29  0  0  0  0  0  0  0  0999 V2000
   14.5700   -7.1380   11.9039 N   0  0  0  0  0  0  0  0  0  0  0  0
   13.9344   -6.2619   10.9178 C   0  0  2  0  0  0  0  0  0  0  0  0
   12.8268   -6.9017   10.0771 C   0  0  0  0  0  0  0  0  0  0  0  0
   11.6560   -6.7438   10.4207 O   0  0  0  0  0  0  0  0  0  0  0  0
   14.9733   -5.6074   10.0228 C   0  0  0  0  0  0  0  0  0  0  0  0
   14.3716   -4.4817    9.1993 C   0  0  0  0  0  0  0  0  0  0  0  0
   15.5546   -3.8821    7.9802 S   0  0  2  0  0  0  0  0  0  0  0  0
   14.5771   -2.5723    7.2133 C   0  0  0  0  0  0  0  0  0  0  0  0
   15.3956   -5.1594    6.7106 C   0  0  0  0  0  0  0  0  0  0  0  0
   16.1960   -6.3942    7.0816 C   0  0  1  0  0  0  0  0  0  0  0  0
   15.7394   -7.5167    6.3620 O   0  0  0  0  0  0  0  0  0  0  0  0
   17.6650   -6.2695    6.7282 C   0  0  1  0  0  0  0  0  0  0  0  0
   18.3510   -5.7779    7.8519 O   0  0  0  0  0  0  0  0  0  0  0  0
   18.0774   -7.6943    6.4182 C   0  0  1  0  0  0  0  0  0  0  0  0
   18.7274   -8.2022    7.5616 O   0  0  0  0  0  0  0  0  0  0  0  0
   16.7780   -8.4567    6.1505 C   0  0  2  0  0  0  0  0  0  0  0  0
   13.0543   -7.5764    9.0692 O   0  0  0  0  0  0  0  0  0  0  0  0
   13.8786   -8.4254    1.7904 N   0  0  0  0  0  0  0  0  0  0  0  0
   13.5682   -7.8813    3.0130 C   0  0  0  0  0  0  0  0  0  0  0  0
   14.4692   -7.9951    4.0489 N   0  0  0  0  0  0  0  0  0  0  0  0
   15.6513   -8.6290    3.8811 C   0  0  0  0  0  0  0  0  0  0  0  0
   15.9847   -9.1713    2.6484 C   0  0  0  0  0  0  0  0  0  0  0  0
   15.0795   -9.0734    1.5937 C   0  0  0  0  0  0  0  0  0  0  0  0
   15.3606   -9.5875    0.3961 N   0  0  0  0  0  0  0  0  0  0  0  0
   17.2161   -9.7330    2.7588 N   0  0  0  0  0  0  0  0  0  0  0  0
   17.6587   -9.5374    4.0223 C   0  0  0  0  0  0  0  0  0  0  0  0
   16.7039   -8.8485    4.7289 N   0  0  0  0  0  0  0  0  0  0  0  0
  2  1  1  6  0  0  0
  2  3  1  0  0  0  0
  2  5  1  0  0  0  0
  3  4  1  0  0  0  0
  3 17  1  0  0  0  0
  5  6  1  0  0  0  0
  7  6  1  1  0  0  0
  7  8  1  0  0  0  0
  7  9  1  0  0  0  0
 10  9  1  6  0  0  0
 10 11  1  0  0  0  0
 10 12  1  0  0  0  0
 11 16  1  0  0  0  0
 12 13  1  1  0  0  0
 12 14  1  0  0  0  0
 14 15  1  1  0  0  0
 14 16  1  0  0  0  0
 16 27  1  6  0  0  0
 18 19  2  0  0  0  0
 18 23  1  0  0  0  0
 19 20  1  0  0  0  0
 20 21  2  0  0  0  0
 21 22  1  0  0  0  0
 21 27  1  0  0  0  0
 22 23  2  0  0  0  0
 22 25  1  0  0  0  0
 23 24  1  0  0  0  0
 25 26  2  0  0  0  0
 26 27  1  0  0  0  0
M  END
>  <CHROM.1>
96.75382738,-167.84504115,-171.80226509,-178.98850653,-80.28687927,160.47717193
-15.40311932,15.48125458,-7.03470643,6.49605902,1.75712008,0.02920759,1.11373252

>  <Name>
ligand

>  <RI>
0

>  <Rbt.Current_Directory>
/home/itssahil/PROJECTS/Mol_Feturizer/New_Systems/rnas/3GX5

>  <Rbt.Executable>
rbdock ($Id: //depot/dev/client3/rdock/2013.1/src/exe/rbdock.cxx#4 $)

>  <Rbt.Library>
libRbt.so (2013.1, Build901 2013/11/27)

>  <Rbt.Parameter_File>
/export/apps/rDock/src/rDock_2013.1_src/data/scripts/dock_solv.prm

>  <Rbt.Receptor>
prm/pocket_docking_8.prm

>  <SCORE>
-15.2816

>  <SCORE.INTER>
-15.0839

>  <SCORE.INTER.CONST>
1

>  <SCORE.INTER.POLAR>
0

>  <SCORE.INTER.ROT>
7

>  <SCORE.INTER.SOLV>
9.59854

>  <SCORE.INTER.VDW>
-21.5221

>  <SCORE.INTER.norm>
-0.558664

>  <SCORE.INTRA>
-0.197645

>  <SCORE.INTRA.DIHEDRAL>
1.7278

>  <SCORE.INTRA.DIHEDRAL.0>
4.28829

>  <SCORE.INTRA.POLAR>
0

>  <SCORE.INTRA.POLAR.0>
0

>  <SCORE.INTRA.REPUL>
0

>  <SCORE.INTRA.REPUL.0>
0

>  <SCORE.INTRA.SOLV>
-1.01281

>  <SCORE.INTRA.SOLV.lig_0>
-48.6018

>  <SCORE.INTRA.VDW>
-0.555141

>  <SCORE.INTRA.VDW.0>
-2.1506

>  <SCORE.INTRA.norm>
-0.00732018

>  <SCORE.RESTR>
0

>  <SCORE.RESTR.CAVITY>
0

>  <SCORE.RESTR.norm>
0

>  <SCORE.SYSTEM>
0

>  <SCORE.SYSTEM.CONST>
0

>  <SCORE.SYSTEM.DIHEDRAL>
0

>  <SCORE.SYSTEM.SOLV>
0

>  <SCORE.SYSTEM.norm>
0

>  <SCORE.heavy>
27

>  <SCORE.norm>
-0.565984

>  <RMSD>
5.989

$$$$
ligand
 OpenBabel11021811483D
libRbt.so/2013.1/901 2013/11/27
 27 29  0  0  0  0  0  0  0  0999 V2000
   15.6615   -6.8157   11.1747 N   0  0  0  0  0  0  0  0  0  0  0  0
   15.3667   -5.3829   11.1114 C   0  0  2  0  0  0  0  0  0  0  0  0
   13.9709   -4.9704   11.5851 C   0  0  0  0  0  0  0  0  0  0  0  0
   13.5801   -3.8273   11.3525 O   0  0  0  0  0  0  0  0  0  0  0  0
   15.6435   -4.8320    9.7226 C   0  0  0  0  0  0  0  0  0  0  0  0
   17.1314   -4.6407    9.4839 C   0  0  0  0  0  0  0  0  0  0  0  0
   17.4335   -4.0052    7.8255 S   0  0  2  0  0  0  0  0  0  0  0  0
   16.2562   -2.6370    7.7953 C   0  0  0  0  0  0  0  0  0  0  0  0
   16.5184   -5.2120    6.8382 C   0  0  0  0  0  0  0  0  0  0  0  0
   17.0185   -6.6199    7.1042 C   0  0  1  0  0  0  0  0  0  0  0  0
   16.2928   -7.5570    6.3416 O   0  0  0  0  0  0  0  0  0  0  0  0
   18.4657   -6.8155    6.6969 C   0  0  1  0  0  0  0  0  0  0  0  0
   19.2783   -6.5702    7.8169 O   0  0  0  0  0  0  0  0  0  0  0  0
   18.5254   -8.2736    6.2891 C   0  0  1  0  0  0  0  0  0  0  0  0
   19.0704   -8.9916    7.3732 O   0  0  0  0  0  0  0  0  0  0  0  0
   17.0770   -8.6958    6.0332 C   0  0  2  0  0  0  0  0  0  0  0  0
   13.2176   -5.7325   12.1972 O   0  0  0  0  0  0  0  0  0  0  0  0
   13.7873   -8.3329    1.9757 N   0  0  0  0  0  0  0  0  0  0  0  0
   13.5881   -7.8991    3.2638 C   0  0  0  0  0  0  0  0  0  0  0  0
   14.5815   -8.0883    4.1993 N   0  0  0  0  0  0  0  0  0  0  0  0
   15.7467   -8.6896    3.8701 C   0  0  0  0  0  0  0  0  0  0  0  0
   15.9679   -9.1205    2.5701 C   0  0  0  0  0  0  0  0  0  0  0  0
   14.9686   -8.9455    1.6150 C   0  0  0  0  0  0  0  0  0  0  0  0
   15.1408   -9.3520    0.3569 N   0  0  0  0  0  0  0  0  0  0  0  0
   17.2074   -9.6729    2.5186 N   0  0  0  0  0  0  0  0  0  0  0  0
   17.7636   -9.5795    3.7484 C   0  0  0  0  0  0  0  0  0  0  0  0
   16.8742   -8.9662    4.5960 N   0  0  0  0  0  0  0  0  0  0  0  0
  2  1  1  6  0  0  0
  2  3  1  0  0  0  0
  2  5  1  0  0  0  0
  3  4  1  0  0  0  0
  3 17  1  0  0  0  0
  5  6  1  0  0  0  0
  7  6  1  1  0  0  0
  7  8  1  0  0  0  0
  7  9  1  0  0  0  0
 10  9  1  6  0  0  0
 10 11  1  0  0  0  0
 10 12  1  0  0  0  0
 11 16  1  0  0  0  0
 12 13  1  1  0  0  0
 12 14  1  0  0  0  0
 14 15  1  1  0  0  0
 14 16  1  0  0  0  0
 16 27  1  6  0  0  0
 18 19  2  0  0  0  0
 18 23  1  0  0  0  0
 19 20  1  0  0  0  0
 20 21  2  0  0  0  0
 21 22  1  0  0  0  0
 21 27  1  0  0  0  0
 22 23  2  0  0  0  0
 22 25  1  0  0  0  0
 23 24  1  0  0  0  0
 25 26  2  0  0  0  0
 26 27  1  0  0  0  0
M  END
>  <CHROM.1>
-168.02656908,-76.77282460,179.35378262,49.19940387,-57.13862191,179.43073756
-29.82815312,16.22680817,-6.84298796,6.67881753,1.62529256,-0.14918598,1.07848985

>  <Name>
ligand

>  <RI>
0

>  <Rbt.Current_Directory>
/home/itssahil/PROJECTS/Mol_Feturizer/New_Systems/rnas/3GX5

>  <Rbt.Executable>
rbdock ($Id: //depot/dev/client3/rdock/2013.1/src/exe/rbdock.cxx#4 $)

>  <Rbt.Library>
libRbt.so (2013.1, Build901 2013/11/27)

>  <Rbt.Parameter_File>
/export/apps/rDock/src/rDock_2013.1_src/data/scripts/dock_solv.prm

>  <Rbt.Receptor>
prm/pocket_docking_7.prm

>  <SCORE>
-14.1648

>  <SCORE.INTER>
-16.8897

>  <SCORE.INTER.CONST>
1

>  <SCORE.INTER.POLAR>
0

>  <SCORE.INTER.ROT>
7

>  <SCORE.INTER.SOLV>
10.5377

>  <SCORE.INTER.VDW>
-23.0391

>  <SCORE.INTER.norm>
-0.625546

>  <SCORE.INTRA>
2.72498

>  <SCORE.INTRA.DIHEDRAL>
0.529819

>  <SCORE.INTRA.DIHEDRAL.0>
4.28829

>  <SCORE.INTRA.POLAR>
0

>  <SCORE.INTRA.POLAR.0>
0

>  <SCORE.INTRA.REPUL>
0

>  <SCORE.INTRA.REPUL.0>
0

>  <SCORE.INTRA.SOLV>
-0.124307

>  <SCORE.INTRA.SOLV.lig_0>
-48.6018

>  <SCORE.INTRA.VDW>
2.52222

>  <SCORE.INTRA.VDW.0>
-2.1506

>  <SCORE.INTRA.norm>
0.100925

>  <SCORE.RESTR>
0

>  <SCORE.RESTR.CAVITY>
0

>  <SCORE.RESTR.norm>
0

>  <SCORE.SYSTEM>
0

>  <SCORE.SYSTEM.CONST>
0

>  <SCORE.SYSTEM.DIHEDRAL>
0

>  <SCORE.SYSTEM.SOLV>
0

>  <SCORE.SYSTEM.norm>
0

>  <SCORE.heavy>
27

>  <SCORE.norm>
-0.524621

>  <RMSD>
6.002

$$$$
ligand
 OpenBabel11021811483D
libRbt.so/2013.1/901 2013/11/27
 27 29  0  0  0  0  0  0  0  0999 V2000
   14.8440   -9.5226    3.6742 N   0  0  0  0  0  0  0  0  0  0  0  0
   14.8290   -8.4029    4.6176 C   0  0  2  0  0  0  0  0  0  0  0  0
   15.4785   -8.6713    5.9773 C   0  0  0  0  0  0  0  0  0  0  0  0
   16.5604   -8.1436    6.2316 O   0  0  0  0  0  0  0  0  0  0  0  0
   13.4204   -7.8619    4.7964 C   0  0  0  0  0  0  0  0  0  0  0  0
   13.4229   -6.3587    5.0148 C   0  0  0  0  0  0  0  0  0  0  0  0
   14.2716   -5.9396    6.5476 S   0  0  2  0  0  0  0  0  0  0  0  0
   12.9765   -6.3366    7.7411 C   0  0  0  0  0  0  0  0  0  0  0  0
   14.1199   -4.1381    6.5265 C   0  0  0  0  0  0  0  0  0  0  0  0
   14.8084   -3.5227    7.7308 C   0  0  1  0  0  0  0  0  0  0  0  0
   14.1106   -3.8347    8.9148 O   0  0  0  0  0  0  0  0  0  0  0  0
   16.2093   -4.0612    7.9446 C   0  0  1  0  0  0  0  0  0  0  0  0
   17.1159   -3.2103    7.2896 O   0  0  0  0  0  0  0  0  0  0  0  0
   16.3889   -3.9954    9.4478 C   0  0  1  0  0  0  0  0  0  0  0  0
   17.1393   -2.8359    9.7314 O   0  0  0  0  0  0  0  0  0  0  0  0
   14.9793   -3.8849   10.0328 C   0  0  2  0  0  0  0  0  0  0  0  0
   14.9682   -9.4001    6.8325 O   0  0  0  0  0  0  0  0  0  0  0  0
   15.4897   -9.0917   10.2473 N   0  0  0  0  0  0  0  0  0  0  0  0
   16.0342   -8.2285    9.3277 C   0  0  0  0  0  0  0  0  0  0  0  0
   15.7812   -6.8789    9.4388 N   0  0  0  0  0  0  0  0  0  0  0  0
   15.0105   -6.3918   10.4370 C   0  0  0  0  0  0  0  0  0  0  0  0
   14.4653   -7.2497   11.3812 C   0  0  0  0  0  0  0  0  0  0  0  0
   14.7036   -8.6184   11.2762 C   0  0  0  0  0  0  0  0  0  0  0  0
   14.1918   -9.4755   12.1601 N   0  0  0  0  0  0  0  0  0  0  0  0
   13.7524   -6.5018   12.2624 N   0  0  0  0  0  0  0  0  0  0  0  0
   13.8568   -5.2033   11.8968 C   0  0  0  0  0  0  0  0  0  0  0  0
   14.6390   -5.1171   10.7715 N   0  0  0  0  0  0  0  0  0  0  0  0
  2  1  1  6  0  0  0
  2  3  1  0  0  0  0
  2  5  1  0  0  0  0
  3  4  1  0  0  0  0
  3 17  1  0  0  0  0
  5  6  1  0  0  0  0
  7  6  1  6  0  0  0
  7  8  1  0  0  0  0
  7  9  1  0  0  0  0
 10  9  1  6  0  0  0
 10 11  1  0  0  0  0
 10 12  1  0  0  0  0
 11 16  1  0  0  0  0
 12 13  1  6  0  0  0
 12 14  1  0  0  0  0
 14 15  1  6  0  0  0
 14 16  1  0  0  0  0
 16 27  1  1  0  0  0
 18 19  2  0  0  0  0
 18 23  1  0  0  0  0
 19 20  1  0  0  0  0
 20 21  2  0  0  0  0
 21 22  1  0  0  0  0
 21 27  1  0  0  0  0
 22 23  2  0  0  0  0
 22 25  1  0  0  0  0
 23 24  1  0  0  0  0
 25 26  2  0  0  0  0
 26 27  1  0  0  0  0
M  END
>  <CHROM.1>
107.93735043,-145.75578482,-63.82705946,-78.41371792,-178.46485844,-68.91657782
77.97030256,14.93106111,-6.34800426,8.30391047,1.99883845,-1.42044922,-1.59188367

>  <Name>
ligand

>  <RI>
0

>  <Rbt.Current_Directory>
/home/itssahil/PROJECTS/Mol_Feturizer/New_Systems/rnas/3GX5

>  <Rbt.Executable>
rbdock ($Id: //depot/dev/client3/rdock/2013.1/src/exe/rbdock.cxx#4 $)

>  <Rbt.Library>
libRbt.so (2013.1, Build901 2013/11/27)

>  <Rbt.Parameter_File>
/export/apps/rDock/src/rDock_2013.1_src/data/scripts/dock_solv.prm

>  <Rbt.Receptor>
prm/pocket_docking_3.prm

>  <SCORE>
-10.5318

>  <SCORE.INTER>
-9.27393

>  <SCORE.INTER.CONST>
1

>  <SCORE.INTER.POLAR>
0

>  <SCORE.INTER.ROT>
7

>  <SCORE.INTER.SOLV>
11.0326

>  <SCORE.INTER.VDW>
-18.1268

>  <SCORE.INTER.norm>
-0.343479

>  <SCORE.INTRA>
-1.25785

>  <SCORE.INTRA.DIHEDRAL>
3.16357

>  <SCORE.INTRA.DIHEDRAL.0>
4.28829

>  <SCORE.INTRA.POLAR>
0

>  <SCORE.INTRA.POLAR.0>
0

>  <SCORE.INTRA.REPUL>
0

>  <SCORE.INTRA.REPUL.0>
0

>  <SCORE.INTRA.SOLV>
-0.787801

>  <SCORE.INTRA.SOLV.lig_0>
-48.6018

>  <SCORE.INTRA.VDW>
-2.44574

>  <SCORE.INTRA.VDW.0>
-2.1506

>  <SCORE.INTRA.norm>
-0.0465871

>  <SCORE.RESTR>
0

>  <SCORE.RESTR.CAVITY>
0

>  <SCORE.RESTR.norm>
0

>  <SCORE.SYSTEM>
0

>  <SCORE.SYSTEM.CONST>
0

>  <SCORE.SYSTEM.DIHEDRAL>
0

>  <SCORE.SYSTEM.SOLV>
0

>  <SCORE.SYSTEM.norm>
0

>  <SCORE.heavy>
27

>  <SCORE.norm>
-0.390066

>  <RMSD>
6.008

$$$$
ligand
 OpenBabel11021811483D
libRbt.so/2013.1/901 2013/11/27
 27 29  0  0  0  0  0  0  0  0999 V2000
   15.2334   -8.7569   13.6731 N   0  0  0  0  0  0  0  0  0  0  0  0
   14.4148   -9.0405   12.4927 C   0  0  2  0  0  0  0  0  0  0  0  0
   14.0136  -10.5048   12.2988 C   0  0  0  0  0  0  0  0  0  0  0  0
   14.0387  -11.2596   13.2701 O   0  0  0  0  0  0  0  0  0  0  0  0
   15.0686   -8.4950   11.2342 C   0  0  0  0  0  0  0  0  0  0  0  0
   15.0615   -6.9762   11.2145 C   0  0  0  0  0  0  0  0  0  0  0  0
   16.3628   -6.3196   12.2732 S   0  0  2  0  0  0  0  0  0  0  0  0
   15.5886   -4.7763   12.8004 C   0  0  0  0  0  0  0  0  0  0  0  0
   17.5053   -5.6741   11.0296 C   0  0  0  0  0  0  0  0  0  0  0  0
   18.3962   -6.7771   10.4884 C   0  0  1  0  0  0  0  0  0  0  0  0
   17.6199   -7.8396    9.9839 O   0  0  0  0  0  0  0  0  0  0  0  0
   19.2495   -6.3224    9.3207 C   0  0  1  0  0  0  0  0  0  0  0  0
   20.4902   -5.8908    9.8200 O   0  0  0  0  0  0  0  0  0  0  0  0
   19.4048   -7.5770    8.4853 C   0  0  1  0  0  0  0  0  0  0  0  0
   20.6705   -8.1243    8.7796 O   0  0  0  0  0  0  0  0  0  0  0  0
   18.2884   -8.5209    8.9370 C   0  0  2  0  0  0  0  0  0  0  0  0
   13.6699  -10.9676   11.2077 O   0  0  0  0  0  0  0  0  0  0  0  0
   17.5388   -9.8328    3.9235 N   0  0  0  0  0  0  0  0  0  0  0  0
   18.7195   -9.8259    4.6256 C   0  0  0  0  0  0  0  0  0  0  0  0
   18.7137   -9.4443    5.9492 N   0  0  0  0  0  0  0  0  0  0  0  0
   17.5676   -9.0805    6.5670 C   0  0  0  0  0  0  0  0  0  0  0  0
   16.3653   -9.0959    5.8750 C   0  0  0  0  0  0  0  0  0  0  0  0
   16.3565   -9.4695    4.5328 C   0  0  0  0  0  0  0  0  0  0  0  0
   15.2224   -9.4906    3.8320 N   0  0  0  0  0  0  0  0  0  0  0  0
   15.3870   -8.6987    6.7290 N   0  0  0  0  0  0  0  0  0  0  0  0
   15.9510   -8.4546    7.9344 C   0  0  0  0  0  0  0  0  0  0  0  0
   17.3008   -8.6932    7.8530 N   0  0  0  0  0  0  0  0  0  0  0  0
  2  1  1  1  0  0  0
  2  3  1  0  0  0  0
  2  5  1  0  0  0  0
  3  4  1  0  0  0  0
  3 17  1  0  0  0  0
  5  6  1  0  0  0  0
  7  6  1  6  0  0  0
  7  8  1  0  0  0  0
  7  9  1  0  0  0  0
 10  9  1  6  0  0  0
 10 11  1  0  0  0  0
 10 12  1  0  0  0  0
 11 16  1  0  0  0  0
 12 13  1  1  0  0  0
 12 14  1  0  0  0  0
 14 15  1  1  0  0  0
 14 16  1  0  0  0  0
 16 27  1  6  0  0  0
 18 19  2  0  0  0  0
 18 23  1  0  0  0  0
 19 20  1  0  0  0  0
 20 21  2  0  0  0  0
 21 22  1  0  0  0  0
 21 27  1  0  0  0  0
 22 23  2  0  0  0  0
 22 25  1  0  0  0  0
 23 24  1  0  0  0  0
 25 26  2  0  0  0  0
 26 27  1  0  0  0  0
M  END
>  <CHROM.1>
20.82980978,-68.94085006,78.38967755,-149.24225927,-82.77595763,55.37757930
167.44487999,16.80544466,-8.25137807,9.32956264,1.95857317,0.63272108,1.17194997

>  <Name>
ligand

>  <RI>
0

>  <Rbt.Current_Directory>
/home/itssahil/PROJECTS/Mol_Feturizer/New_Systems/rnas/3GX5

>  <Rbt.Executable>
rbdock ($Id: //depot/dev/client3/rdock/2013.1/src/exe/rbdock.cxx#4 $)

>  <Rbt.Library>
libRbt.so (2013.1, Build901 2013/11/27)

>  <Rbt.Parameter_File>
/export/apps/rDock/src/rDock_2013.1_src/data/scripts/dock_solv.prm

>  <Rbt.Receptor>
prm/pocket_docking_7.prm

>  <SCORE>
-5.03367

>  <SCORE.INTER>
-7.46119

>  <SCORE.INTER.CONST>
1

>  <SCORE.INTER.POLAR>
0

>  <SCORE.INTER.ROT>
7

>  <SCORE.INTER.SOLV>
13.251

>  <SCORE.INTER.VDW>
-17.6578

>  <SCORE.INTER.norm>
-0.276341

>  <SCORE.INTRA>
2.42752

>  <SCORE.INTRA.DIHEDRAL>
4.51766

>  <SCORE.INTRA.DIHEDRAL.0>
4.28829

>  <SCORE.INTRA.POLAR>
0

>  <SCORE.INTRA.POLAR.0>
0

>  <SCORE.INTRA.REPUL>
0

>  <SCORE.INTRA.REPUL.0>
0

>  <SCORE.INTRA.SOLV>
1.31739

>  <SCORE.INTRA.SOLV.lig_0>
-48.6018

>  <SCORE.INTRA.VDW>
-0.490005

>  <SCORE.INTRA.VDW.0>
-2.1506

>  <SCORE.INTRA.norm>
0.0899081

>  <SCORE.RESTR>
0

>  <SCORE.RESTR.CAVITY>
0

>  <SCORE.RESTR.norm>
0

>  <SCORE.SYSTEM>
0

>  <SCORE.SYSTEM.CONST>
0

>  <SCORE.SYSTEM.DIHEDRAL>
0

>  <SCORE.SYSTEM.SOLV>
0

>  <SCORE.SYSTEM.norm>
0

>  <SCORE.heavy>
27

>  <SCORE.norm>
-0.186432

>  <RMSD>
6.026

$$$$
ligand
 OpenBabel11021811483D
libRbt.so/2013.1/901 2013/11/27
 27 29  0  0  0  0  0  0  0  0999 V2000
   14.4399   -9.0755    4.4247 N   0  0  0  0  0  0  0  0  0  0  0  0
   14.5727   -7.6679    4.8054 C   0  0  2  0  0  0  0  0  0  0  0  0
   15.6678   -7.3570    5.8286 C   0  0  0  0  0  0  0  0  0  0  0  0
   15.5568   -7.8039    6.9695 O   0  0  0  0  0  0  0  0  0  0  0  0
   13.2391   -7.1003    5.2617 C   0  0  0  0  0  0  0  0  0  0  0  0
   13.2812   -5.5851    5.3601 C   0  0  0  0  0  0  0  0  0  0  0  0
   13.6383   -5.0664    7.0479 S   0  0  2  0  0  0  0  0  0  0  0  0
   12.5907   -3.5999    7.1530 C   0  0  0  0  0  0  0  0  0  0  0  0
   15.2458   -4.2722    6.8155 C   0  0  0  0  0  0  0  0  0  0  0  0
   16.0048   -4.1921    8.1272 C   0  0  1  0  0  0  0  0  0  0  0  0
   15.1142   -4.0277    9.2070 O   0  0  0  0  0  0  0  0  0  0  0  0
   16.7733   -5.4613    8.4390 C   0  0  1  0  0  0  0  0  0  0  0  0
   18.0819   -5.3193    7.9468 O   0  0  0  0  0  0  0  0  0  0  0  0
   16.7638   -5.5187    9.9531 C   0  0  1  0  0  0  0  0  0  0  0  0
   18.0115   -5.0375   10.4001 O   0  0  0  0  0  0  0  0  0  0  0  0
   15.6334   -4.5890   10.3996 C   0  0  2  0  0  0  0  0  0  0  0  0
   16.6587   -6.6711    5.5633 O   0  0  0  0  0  0  0  0  0  0  0  0
   12.1323   -8.4139    9.6712 N   0  0  0  0  0  0  0  0  0  0  0  0
   13.0791   -7.9580    8.7864 C   0  0  0  0  0  0  0  0  0  0  0  0
   13.9161   -6.9316    9.1654 N   0  0  0  0  0  0  0  0  0  0  0  0
   13.8227   -6.3697   10.3914 C   0  0  0  0  0  0  0  0  0  0  0  0
   12.8809   -6.8287   11.3007 C   0  0  0  0  0  0  0  0  0  0  0  0
   12.0202   -7.8593   10.9284 C   0  0  0  0  0  0  0  0  0  0  0  0
   11.0977   -8.3234   11.7717 N   0  0  0  0  0  0  0  0  0  0  0  0
   13.0121   -6.1021   12.4403 N   0  0  0  0  0  0  0  0  0  0  0  0
   14.0209   -5.2178   12.2645 C   0  0  0  0  0  0  0  0  0  0  0  0
   14.5387   -5.3754   11.0025 N   0  0  0  0  0  0  0  0  0  0  0  0
  2  1  1  1  0  0  0
  2  3  1  0  0  0  0
  2  5  1  0  0  0  0
  3  4  1  0  0  0  0
  3 17  1  0  0  0  0
  5  6  1  0  0  0  0
  7  6  1  6  0  0  0
  7  8  1  0  0  0  0
  7  9  1  0  0  0  0
 10  9  1  6  0  0  0
 10 11  1  0  0  0  0
 10 12  1  0  0  0  0
 11 16  1  0  0  0  0
 12 13  1  1  0  0  0
 12 14  1  0  0  0  0
 14 15  1  1  0  0  0
 14 16  1  0  0  0  0
 16 27  1  6  0  0  0
 18 19  2  0  0  0  0
 18 23  1  0  0  0  0
 19 20  1  0  0  0  0
 20 21  2  0  0  0  0
 21 22  1  0  0  0  0
 21 27  1  0  0  0  0
 22 23  2  0  0  0  0
 22 25  1  0  0  0  0
 23 24  1  0  0  0  0
 25 26  2  0  0  0  0
 26 27  1  0  0  0  0
M  END
>  <CHROM.1>
-65.67235496,-167.18484794,-95.60538288,-143.09241565,-159.27265616,-32.81361327
54.63514529,14.53118615,-6.12795834,8.44413435,1.21975041,-0.57269892,-1.79644995

>  <Name>
ligand

>  <RI>
0

>  <Rbt.Current_Directory>
/home/itssahil/PROJECTS/Mol_Feturizer/New_Systems/rnas/3GX5

>  <Rbt.Executable>
rbdock ($Id: //depot/dev/client3/rdock/2013.1/src/exe/rbdock.cxx#4 $)

>  <Rbt.Library>
libRbt.so (2013.1, Build901 2013/11/27)

>  <Rbt.Parameter_File>
/export/apps/rDock/src/rDock_2013.1_src/data/scripts/dock_solv.prm

>  <Rbt.Receptor>
prm/pocket_docking_4.prm

>  <SCORE>
-10.2407

>  <SCORE.INTER>
-11.7109

>  <SCORE.INTER.CONST>
1

>  <SCORE.INTER.POLAR>
0

>  <SCORE.INTER.ROT>
7

>  <SCORE.INTER.SOLV>
11.219

>  <SCORE.INTER.VDW>
-19.8136

>  <SCORE.INTER.norm>
-0.433736

>  <SCORE.INTRA>
1.47014

>  <SCORE.INTRA.DIHEDRAL>
11.3412

>  <SCORE.INTRA.DIHEDRAL.0>
4.28829

>  <SCORE.INTRA.POLAR>
0

>  <SCORE.INTRA.POLAR.0>
0

>  <SCORE.INTRA.REPUL>
0

>  <SCORE.INTRA.REPUL.0>
0

>  <SCORE.INTRA.SOLV>
-0.720932

>  <SCORE.INTRA.SOLV.lig_0>
-48.6018

>  <SCORE.INTRA.VDW>
-3.84

>  <SCORE.INTRA.VDW.0>
-2.1506

>  <SCORE.INTRA.norm>
0.0544495

>  <SCORE.RESTR>
0

>  <SCORE.RESTR.CAVITY>
0

>  <SCORE.RESTR.norm>
0

>  <SCORE.SYSTEM>
0

>  <SCORE.SYSTEM.CONST>
0

>  <SCORE.SYSTEM.DIHEDRAL>
0

>  <SCORE.SYSTEM.SOLV>
0

>  <SCORE.SYSTEM.norm>
0

>  <SCORE.heavy>
27

>  <SCORE.norm>
-0.379286

>  <RMSD>
6.035

$$$$
ligand
 OpenBabel11021811483D
libRbt.so/2013.1/901 2013/11/27
 27 29  0  0  0  0  0  0  0  0999 V2000
   14.4744   -8.8810    9.6848 N   0  0  0  0  0  0  0  0  0  0  0  0
   13.5950   -7.7900    9.2603 C   0  0  2  0  0  0  0  0  0  0  0  0
   12.2085   -7.7641    9.9081 C   0  0  0  0  0  0  0  0  0  0  0  0
   11.7486   -6.6854   10.2805 O   0  0  0  0  0  0  0  0  0  0  0  0
   13.4776   -7.7444    7.7461 C   0  0  0  0  0  0  0  0  0  0  0  0
   12.7192   -6.5130    7.2814 C   0  0  0  0  0  0  0  0  0  0  0  0
   13.5909   -5.0106    7.7592 S   0  0  2  0  0  0  0  0  0  0  0  0
   12.4946   -3.7702    7.0390 C   0  0  0  0  0  0  0  0  0  0  0  0
   14.9155   -4.9926    6.5288 C   0  0  0  0  0  0  0  0  0  0  0  0
   16.0410   -5.9277    6.9313 C   0  0  1  0  0  0  0  0  0  0  0  0
   15.8401   -7.2108    6.3839 O   0  0  0  0  0  0  0  0  0  0  0  0
   17.3912   -5.4813    6.4059 C   0  0  1  0  0  0  0  0  0  0  0  0
   18.0119   -4.6943    7.3910 O   0  0  0  0  0  0  0  0  0  0  0  0
   18.1386   -6.7828    6.1974 C   0  0  1  0  0  0  0  0  0  0  0  0
   18.9903   -6.9612    7.3068 O   0  0  0  0  0  0  0  0  0  0  0  0
   17.0693   -7.8766    6.1541 C   0  0  2  0  0  0  0  0  0  0  0  0
   11.5293   -8.7799   10.0804 O   0  0  0  0  0  0  0  0  0  0  0  0
   14.0122   -8.7383    1.9912 N   0  0  0  0  0  0  0  0  0  0  0  0
   13.6872   -8.0847    3.1550 C   0  0  0  0  0  0  0  0  0  0  0  0
   14.6369   -7.9597    4.1449 N   0  0  0  0  0  0  0  0  0  0  0  0
   15.8807   -8.4658    3.9886 C   0  0  0  0  0  0  0  0  0  0  0  0
   16.2280   -9.1162    2.8135 C   0  0  0  0  0  0  0  0  0  0  0  0
   15.2752   -9.2597    1.8070 C   0  0  0  0  0  0  0  0  0  0  0  0
   15.5685   -9.8842    0.6661 N   0  0  0  0  0  0  0  0  0  0  0  0
   17.5230   -9.5103    2.9215 N   0  0  0  0  0  0  0  0  0  0  0  0
   17.9894   -9.1059    4.1255 C   0  0  0  0  0  0  0  0  0  0  0  0
   16.9862   -8.4507    4.7963 N   0  0  0  0  0  0  0  0  0  0  0  0
  2  1  1  6  0  0  0
  2  3  1  0  0  0  0
  2  5  1  0  0  0  0
  3  4  1  0  0  0  0
  3 17  1  0  0  0  0
  5  6  1  0  0  0  0
  7  6  1  6  0  0  0
  7  8  1  0  0  0  0
  7  9  1  0  0  0  0
 10  9  1  6  0  0  0
 10 11  1  0  0  0  0
 10 12  1  0  0  0  0
 11 16  1  0  0  0  0
 12 13  1  1  0  0  0
 12 14  1  0  0  0  0
 14 15  1  1  0  0  0
 14 16  1  0  0  0  0
 16 27  1  6  0  0  0
 18 19  2  0  0  0  0
 18 23  1  0  0  0  0
 19 20  1  0  0  0  0
 20 21  2  0  0  0  0
 21 22  1  0  0  0  0
 21 27  1  0  0  0  0
 22 23  2  0  0  0  0
 22 25  1  0  0  0  0
 23 24  1  0  0  0  0
 25 26  2  0  0  0  0
 26 27  1  0  0  0  0
M  END
>  <CHROM.1>
137.38858563,-172.54313492,62.13429656,178.36036449,-80.61264829,91.64881820
-6.85433913,15.08918641,-7.29519332,6.20918374,2.07781776,0.28311037,1.06710775

>  <Name>
ligand

>  <RI>
0

>  <Rbt.Current_Directory>
/home/itssahil/PROJECTS/Mol_Feturizer/New_Systems/rnas/3GX5

>  <Rbt.Executable>
rbdock ($Id: //depot/dev/client3/rdock/2013.1/src/exe/rbdock.cxx#4 $)

>  <Rbt.Library>
libRbt.so (2013.1, Build901 2013/11/27)

>  <Rbt.Parameter_File>
/export/apps/rDock/src/rDock_2013.1_src/data/scripts/dock_solv.prm

>  <Rbt.Receptor>
prm/pocket_docking_7.prm

>  <SCORE>
-17.2528

>  <SCORE.INTER>
-17.9479

>  <SCORE.INTER.CONST>
1

>  <SCORE.INTER.POLAR>
0

>  <SCORE.INTER.ROT>
7

>  <SCORE.INTER.SOLV>
12.509

>  <SCORE.INTER.VDW>
-24.4016

>  <SCORE.INTER.norm>
-0.664738

>  <SCORE.INTRA>
0.676183

>  <SCORE.INTRA.DIHEDRAL>
2.75058

>  <SCORE.INTRA.DIHEDRAL.0>
4.28829

>  <SCORE.INTRA.POLAR>
0

>  <SCORE.INTRA.POLAR.0>
0

>  <SCORE.INTRA.REPUL>
0

>  <SCORE.INTRA.REPUL.0>
0

>  <SCORE.INTRA.SOLV>
-0.229225

>  <SCORE.INTRA.SOLV.lig_0>
-48.6018

>  <SCORE.INTRA.VDW>
-0.584493

>  <SCORE.INTRA.VDW.0>
-2.1506

>  <SCORE.INTRA.norm>
0.0250438

>  <SCORE.RESTR>
0.0189576

>  <SCORE.RESTR.CAVITY>
0.0189576

>  <SCORE.RESTR.norm>
0.000702135

>  <SCORE.SYSTEM>
0

>  <SCORE.SYSTEM.CONST>
0

>  <SCORE.SYSTEM.DIHEDRAL>
0

>  <SCORE.SYSTEM.SOLV>
0

>  <SCORE.SYSTEM.norm>
0

>  <SCORE.heavy>
27

>  <SCORE.norm>
-0.638992

>  <RMSD>
6.039

$$$$
ligand
 OpenBabel11021811483D
libRbt.so/2013.1/901 2013/11/27
 27 29  0  0  0  0  0  0  0  0999 V2000
   12.2945   -3.6015    6.4354 N   0  0  0  0  0  0  0  0  0  0  0  0
   13.3352   -4.2294    7.2518 C   0  0  2  0  0  0  0  0  0  0  0  0
   13.9081   -3.3650    8.3775 C   0  0  0  0  0  0  0  0  0  0  0  0
   13.9939   -3.8443    9.5074 O   0  0  0  0  0  0  0  0  0  0  0  0
   14.4518   -4.7792    6.3801 C   0  0  0  0  0  0  0  0  0  0  0  0
   15.4432   -5.5956    7.1913 C   0  0  0  0  0  0  0  0  0  0  0  0
   16.7437   -6.2531    6.1322 S   0  0  2  0  0  0  0  0  0  0  0  0
   15.8415   -7.5906    5.3222 C   0  0  0  0  0  0  0  0  0  0  0  0
   17.6929   -7.2144    7.3338 C   0  0  0  0  0  0  0  0  0  0  0  0
   18.4383   -6.3016    8.2899 C   0  0  1  0  0  0  0  0  0  0  0  0
   17.5343   -5.5965    9.1096 O   0  0  0  0  0  0  0  0  0  0  0  0
   19.3319   -7.0615    9.2503 C   0  0  1  0  0  0  0  0  0  0  0  0
   20.6198   -7.1360    8.6928 O   0  0  0  0  0  0  0  0  0  0  0  0
   19.3266   -6.1999   10.4968 C   0  0  1  0  0  0  0  0  0  0  0  0
   20.5182   -5.4462   10.4921 O   0  0  0  0  0  0  0  0  0  0  0  0
   18.1067   -5.2853   10.3676 C   0  0  2  0  0  0  0  0  0  0  0  0
   14.2845   -2.2024    8.2056 O   0  0  0  0  0  0  0  0  0  0  0  0
   15.5603   -9.1748   12.7770 N   0  0  0  0  0  0  0  0  0  0  0  0
   16.5351   -9.2745   11.8142 C   0  0  0  0  0  0  0  0  0  0  0  0
   17.0892   -8.1250   11.2953 N   0  0  0  0  0  0  0  0  0  0  0  0
   16.6922   -6.9043   11.7193 C   0  0  0  0  0  0  0  0  0  0  0  0
   15.7188   -6.7878   12.7009 C   0  0  0  0  0  0  0  0  0  0  0  0
   15.1415   -7.9411   13.2281 C   0  0  0  0  0  0  0  0  0  0  0  0
   14.1984   -7.8703   14.1680 N   0  0  0  0  0  0  0  0  0  0  0  0
   15.5221   -5.4654   12.9390 N   0  0  0  0  0  0  0  0  0  0  0  0
   16.3602   -4.7628   12.1423 C   0  0  0  0  0  0  0  0  0  0  0  0
   17.0974   -5.6397   11.3852 N   0  0  0  0  0  0  0  0  0  0  0  0
  2  1  1  6  0  0  0
  2  3  1  0  0  0  0
  2  5  1  0  0  0  0
  3  4  1  0  0  0  0
  3 17  1  0  0  0  0
  5  6  1  0  0  0  0
  7  6  1  1  0  0  0
  7  8  1  0  0  0  0
  7  9  1  0  0  0  0
 10  9  1  6  0  0  0
 10 11  1  0  0  0  0
 10 12  1  0  0  0  0
 11 16  1  0  0  0  0
 12 13  1  6  0  0  0
 12 14  1  0  0  0  0
 14 15  1  6  0  0  0
 14 16  1  0  0  0  0
 16 27  1  1  0  0  0
 18 19  2  0  0  0  0
 18 23  1  0  0  0  0
 19 20  1  0  0  0  0
 20 21  2  0  0  0  0
 21 22  1  0  0  0  0
 21 27  1  0  0  0  0
 22 23  2  0  0  0  0
 22 25  1  0  0  0  0
 23 24  1  0  0  0  0
 25 26  2  0  0  0  0
 26 27  1  0  0  0  0
M  END
>  <CHROM.1>
131.16449914,-172.31095561,179.26898801,-75.61469305,-70.91463817,66.98008159
69.28349145,16.40716253,-6.03234347,9.49694962,1.94792504,0.41124144,-1.27260974

>  <Name>
ligand

>  <RI>
0

>  <Rbt.Current_Directory>
/home/itssahil/PROJECTS/Mol_Feturizer/New_Systems/rnas/3GX5

>  <Rbt.Executable>
rbdock ($Id: //depot/dev/client3/rdock/2013.1/src/exe/rbdock.cxx#4 $)

>  <Rbt.Library>
libRbt.so (2013.1, Build901 2013/11/27)

>  <Rbt.Parameter_File>
/export/apps/rDock/src/rDock_2013.1_src/data/scripts/dock_solv.prm

>  <Rbt.Receptor>
prm/pocket_docking_6.prm

>  <SCORE>
-12.4962

>  <SCORE.INTER>
-11.2322

>  <SCORE.INTER.CONST>
1

>  <SCORE.INTER.POLAR>
0

>  <SCORE.INTER.ROT>
7

>  <SCORE.INTER.SOLV>
16.2311

>  <SCORE.INTER.VDW>
-21.1652

>  <SCORE.INTER.norm>
-0.416007

>  <SCORE.INTRA>
-1.26405

>  <SCORE.INTRA.DIHEDRAL>
-0.371116

>  <SCORE.INTRA.DIHEDRAL.0>
4.28829

>  <SCORE.INTRA.POLAR>
0

>  <SCORE.INTRA.POLAR.0>
0

>  <SCORE.INTRA.REPUL>
0

>  <SCORE.INTRA.REPUL.0>
0

>  <SCORE.INTRA.SOLV>
-1.17643

>  <SCORE.INTRA.SOLV.lig_0>
-48.6018

>  <SCORE.INTRA.VDW>
-0.490279

>  <SCORE.INTRA.VDW.0>
-2.1506

>  <SCORE.INTRA.norm>
-0.0468167

>  <SCORE.RESTR>
0

>  <SCORE.RESTR.CAVITY>
0

>  <SCORE.RESTR.norm>
0

>  <SCORE.SYSTEM>
0

>  <SCORE.SYSTEM.CONST>
0

>  <SCORE.SYSTEM.DIHEDRAL>
0

>  <SCORE.SYSTEM.SOLV>
0

>  <SCORE.SYSTEM.norm>
0

>  <SCORE.heavy>
27

>  <SCORE.norm>
-0.462824

>  <RMSD>
6.041

$$$$
ligand
 OpenBabel11021811483D
libRbt.so/2013.1/901 2013/11/27
 27 29  0  0  0  0  0  0  0  0999 V2000
   14.6222   -9.6166    4.4767 N   0  0  0  0  0  0  0  0  0  0  0  0
   14.7445   -8.3599    5.2180 C   0  0  2  0  0  0  0  0  0  0  0  0
   13.8287   -7.2240    4.7553 C   0  0  0  0  0  0  0  0  0  0  0  0
   13.3422   -7.2777    3.6265 O   0  0  0  0  0  0  0  0  0  0  0  0
   16.1903   -7.8947    5.2642 C   0  0  0  0  0  0  0  0  0  0  0  0
   16.4294   -6.9270    6.4104 C   0  0  0  0  0  0  0  0  0  0  0  0
   17.8967   -5.9278    6.1043 S   0  0  2  0  0  0  0  0  0  0  0  0
   19.1632   -7.0106    6.7989 C   0  0  0  0  0  0  0  0  0  0  0  0
   17.7611   -4.7234    7.4459 C   0  0  0  0  0  0  0  0  0  0  0  0
   16.4622   -3.9450    7.3455 C   0  0  1  0  0  0  0  0  0  0  0  0
   15.3659   -4.8221    7.2225 O   0  0  0  0  0  0  0  0  0  0  0  0
   16.1731   -3.1232    8.5862 C   0  0  1  0  0  0  0  0  0  0  0  0
   16.6869   -1.8298    8.3907 O   0  0  0  0  0  0  0  0  0  0  0  0
   14.6594   -3.1038    8.6539 C   0  0  1  0  0  0  0  0  0  0  0  0
   14.2307   -1.8677    8.1281 O   0  0  0  0  0  0  0  0  0  0  0  0
   14.1866   -4.2609    7.7714 C   0  0  2  0  0  0  0  0  0  0  0  0
   13.5586   -6.2495    5.4625 O   0  0  0  0  0  0  0  0  0  0  0  0
   13.9058   -6.4104   12.5378 N   0  0  0  0  0  0  0  0  0  0  0  0
   14.6493   -5.3239   12.1455 C   0  0  0  0  0  0  0  0  0  0  0  0
   14.5911   -4.9062   10.8341 N   0  0  0  0  0  0  0  0  0  0  0  0
   13.8142   -5.5448    9.9306 C   0  0  0  0  0  0  0  0  0  0  0  0
   13.0471   -6.6349   10.3150 C   0  0  0  0  0  0  0  0  0  0  0  0
   13.1031   -7.0757   11.6356 C   0  0  0  0  0  0  0  0  0  0  0  0
   12.3859   -8.1236   12.0420 N   0  0  0  0  0  0  0  0  0  0  0  0
   12.3660   -7.0715    9.2243 N   0  0  0  0  0  0  0  0  0  0  0  0
   12.6797   -6.2696    8.1807 C   0  0  0  0  0  0  0  0  0  0  0  0
   13.5706   -5.3139    8.6032 N   0  0  0  0  0  0  0  0  0  0  0  0
  2  1  1  6  0  0  0
  2  3  1  0  0  0  0
  2  5  1  0  0  0  0
  3  4  1  0  0  0  0
  3 17  1  0  0  0  0
  5  6  1  0  0  0  0
  7  6  1  1  0  0  0
  7  8  1  0  0  0  0
  7  9  1  0  0  0  0
 10  9  1  1  0  0  0
 10 11  1  0  0  0  0
 10 12  1  0  0  0  0
 11 16  1  0  0  0  0
 12 13  1  6  0  0  0
 12 14  1  0  0  0  0
 14 15  1  6  0  0  0
 14 16  1  0  0  0  0
 16 27  1  1  0  0  0
 18 19  2  0  0  0  0
 18 23  1  0  0  0  0
 19 20  1  0  0  0  0
 20 21  2  0  0  0  0
 21 22  1  0  0  0  0
 21 27  1  0  0  0  0
 22 23  2  0  0  0  0
 22 25  1  0  0  0  0
 23 24  1  0  0  0  0
 25 26  2  0  0  0  0
 26 27  1  0  0  0  0
M  END
>  <CHROM.1>
-19.58908740,-158.94595630,-158.55553254,-87.34893466,-59.48347268,51.30115626
89.48065987,14.97780282,-5.78123840,7.87244179,1.04542952,-0.78038194,-2.21562804

>  <Name>
ligand

>  <RI>
0

>  <Rbt.Current_Directory>
/home/itssahil/PROJECTS/Mol_Feturizer/New_Systems/rnas/3GX5

>  <Rbt.Executable>
rbdock ($Id: //depot/dev/client3/rdock/2013.1/src/exe/rbdock.cxx#4 $)

>  <Rbt.Library>
libRbt.so (2013.1, Build901 2013/11/27)

>  <Rbt.Parameter_File>
/export/apps/rDock/src/rDock_2013.1_src/data/scripts/dock_solv.prm

>  <Rbt.Receptor>
prm/pocket_docking_2.prm

>  <SCORE>
-9.32521

>  <SCORE.INTER>
-15.7104

>  <SCORE.INTER.CONST>
1

>  <SCORE.INTER.POLAR>
0

>  <SCORE.INTER.ROT>
7

>  <SCORE.INTER.SOLV>
12.0516

>  <SCORE.INTER.VDW>
-22.7574

>  <SCORE.INTER.norm>
-0.581865

>  <SCORE.INTRA>
3.50349

>  <SCORE.INTRA.DIHEDRAL>
3.45633

>  <SCORE.INTRA.DIHEDRAL.0>
4.28829

>  <SCORE.INTRA.POLAR>
0

>  <SCORE.INTRA.POLAR.0>
0

>  <SCORE.INTRA.REPUL>
0

>  <SCORE.INTRA.REPUL.0>
0

>  <SCORE.INTRA.SOLV>
-0.935769

>  <SCORE.INTRA.SOLV.lig_0>
-48.6018

>  <SCORE.INTRA.VDW>
2.2432

>  <SCORE.INTRA.VDW.0>
-2.1506

>  <SCORE.INTRA.norm>
0.129759

>  <SCORE.RESTR>
2.88165

>  <SCORE.RESTR.CAVITY>
2.88165

>  <SCORE.RESTR.norm>
0.106728

>  <SCORE.SYSTEM>
0

>  <SCORE.SYSTEM.CONST>
0

>  <SCORE.SYSTEM.DIHEDRAL>
0

>  <SCORE.SYSTEM.SOLV>
0

>  <SCORE.SYSTEM.norm>
0

>  <SCORE.heavy>
27

>  <SCORE.norm>
-0.345378

>  <RMSD>
6.085

$$$$
ligand
 OpenBabel11021811483D
libRbt.so/2013.1/901 2013/11/27
 27 29  0  0  0  0  0  0  0  0999 V2000
   13.2583   -9.0985    7.8650 N   0  0  0  0  0  0  0  0  0  0  0  0
   13.3171   -8.3808    9.1399 C   0  0  2  0  0  0  0  0  0  0  0  0
   12.0069   -8.3196    9.9287 C   0  0  0  0  0  0  0  0  0  0  0  0
   11.2688   -9.3039    9.9286 O   0  0  0  0  0  0  0  0  0  0  0  0
   13.8932   -6.9872    8.9529 C   0  0  0  0  0  0  0  0  0  0  0  0
   13.0651   -6.1665    7.9792 C   0  0  0  0  0  0  0  0  0  0  0  0
   13.7719   -4.5227    7.7706 S   0  0  2  0  0  0  0  0  0  0  0  0
   12.4510   -3.7314    6.8281 C   0  0  0  0  0  0  0  0  0  0  0  0
   14.9487   -4.8370    6.4345 C   0  0  0  0  0  0  0  0  0  0  0  0
   16.0256   -5.8094    6.8792 C   0  0  1  0  0  0  0  0  0  0  0  0
   15.7627   -7.1021    6.3834 O   0  0  0  0  0  0  0  0  0  0  0  0
   17.3974   -5.4518    6.3417 C   0  0  1  0  0  0  0  0  0  0  0  0
   18.0542   -4.6569    7.2966 O   0  0  0  0  0  0  0  0  0  0  0  0
   18.0799   -6.7960    6.1892 C   0  0  1  0  0  0  0  0  0  0  0  0
   18.9194   -6.9709    7.3085 O   0  0  0  0  0  0  0  0  0  0  0  0
   16.9580   -7.8366    6.1859 C   0  0  2  0  0  0  0  0  0  0  0  0
   11.6516   -7.3227   10.5633 O   0  0  0  0  0  0  0  0  0  0  0  0
   13.9031   -8.6356    2.0090 N   0  0  0  0  0  0  0  0  0  0  0  0
   13.6139   -7.9087    3.1382 C   0  0  0  0  0  0  0  0  0  0  0  0
   14.5561   -7.8157    4.1388 N   0  0  0  0  0  0  0  0  0  0  0  0
   15.7581   -8.4241    4.0262 C   0  0  0  0  0  0  0  0  0  0  0  0
   16.0699   -9.1500    2.8859 C   0  0  0  0  0  0  0  0  0  0  0  0
   15.1234   -9.2619    1.8695 C   0  0  0  0  0  0  0  0  0  0  0  0
   15.3830   -9.9562    0.7613 N   0  0  0  0  0  0  0  0  0  0  0  0
   17.3280   -9.6393    3.0335 N   0  0  0  0  0  0  0  0  0  0  0  0
   17.8073   -9.2209    4.2276 C   0  0  0  0  0  0  0  0  0  0  0  0
   16.8495   -8.4607    4.8523 N   0  0  0  0  0  0  0  0  0  0  0  0
  2  1  1  6  0  0  0
  2  3  1  0  0  0  0
  2  5  1  0  0  0  0
  3  4  1  0  0  0  0
  3 17  1  0  0  0  0
  5  6  1  0  0  0  0
  7  6  1  6  0  0  0
  7  8  1  0  0  0  0
  7  9  1  0  0  0  0
 10  9  1  6  0  0  0
 10 11  1  0  0  0  0
 10 12  1  0  0  0  0
 11 16  1  0  0  0  0
 12 13  1  1  0  0  0
 12 14  1  0  0  0  0
 14 15  1  1  0  0  0
 14 16  1  0  0  0  0
 16 27  1  6  0  0  0
 18 19  2  0  0  0  0
 18 23  1  0  0  0  0
 19 20  1  0  0  0  0
 20 21  2  0  0  0  0
 21 22  1  0  0  0  0
 21 27  1  0  0  0  0
 22 23  2  0  0  0  0
 22 25  1  0  0  0  0
 23 24  1  0  0  0  0
 25 26  2  0  0  0  0
 26 27  1  0  0  0  0
M  END
>  <CHROM.1>
37.63952292,59.04350146,-179.78655671,-170.64754587,-63.82076388,101.36605843
-5.00550276,15.00032461,-7.28584311,6.21462310,2.12885927,0.46824121,0.95853349

>  <Name>
ligand

>  <RI>
0

>  <Rbt.Current_Directory>
/home/itssahil/PROJECTS/Mol_Feturizer/New_Systems/rnas/3GX5

>  <Rbt.Executable>
rbdock ($Id: //depot/dev/client3/rdock/2013.1/src/exe/rbdock.cxx#4 $)

>  <Rbt.Library>
libRbt.so (2013.1, Build901 2013/11/27)

>  <Rbt.Parameter_File>
/export/apps/rDock/src/rDock_2013.1_src/data/scripts/dock_solv.prm

>  <Rbt.Receptor>
prm/pocket_docking_5.prm

>  <SCORE>
-15.6975

>  <SCORE.INTER>
-18.0745

>  <SCORE.INTER.CONST>
1

>  <SCORE.INTER.POLAR>
0

>  <SCORE.INTER.ROT>
7

>  <SCORE.INTER.SOLV>
16.1839

>  <SCORE.INTER.VDW>
-25.711

>  <SCORE.INTER.norm>
-0.669427

>  <SCORE.INTRA>
2.37706

>  <SCORE.INTRA.DIHEDRAL>
4.27149

>  <SCORE.INTRA.DIHEDRAL.0>
4.28829

>  <SCORE.INTRA.POLAR>
0

>  <SCORE.INTRA.POLAR.0>
0

>  <SCORE.INTRA.REPUL>
0

>  <SCORE.INTRA.REPUL.0>
0

>  <SCORE.INTRA.SOLV>
0.578772

>  <SCORE.INTRA.SOLV.lig_0>
-48.6018

>  <SCORE.INTRA.VDW>
-0.0480691

>  <SCORE.INTRA.VDW.0>
-2.1506

>  <SCORE.INTRA.norm>
0.0880393

>  <SCORE.RESTR>
0

>  <SCORE.RESTR.CAVITY>
0

>  <SCORE.RESTR.norm>
0

>  <SCORE.SYSTEM>
0

>  <SCORE.SYSTEM.CONST>
0

>  <SCORE.SYSTEM.DIHEDRAL>
0

>  <SCORE.SYSTEM.SOLV>
0

>  <SCORE.SYSTEM.norm>
0

>  <SCORE.heavy>
27

>  <SCORE.norm>
-0.581388

>  <RMSD>
6.091

$$$$
ligand
 OpenBabel11021811483D
libRbt.so/2013.1/901 2013/11/27
 27 29  0  0  0  0  0  0  0  0999 V2000
   20.0893   -9.5893    7.8767 N   0  0  0  0  0  0  0  0  0  0  0  0
   20.3567   -8.2622    7.3190 C   0  0  2  0  0  0  0  0  0  0  0  0
   21.6824   -7.6210    7.7366 C   0  0  0  0  0  0  0  0  0  0  0  0
   21.8054   -7.2127    8.8907 O   0  0  0  0  0  0  0  0  0  0  0  0
   19.1983   -7.3163    7.5877 C   0  0  0  0  0  0  0  0  0  0  0  0
   17.9108   -7.8162    6.9553 C   0  0  0  0  0  0  0  0  0  0  0  0
   16.5124   -6.8065    7.4751 S   0  0  2  0  0  0  0  0  0  0  0  0
   15.1731   -7.6623    6.6190 C   0  0  0  0  0  0  0  0  0  0  0  0
   16.7089   -5.3821    6.3791 C   0  0  0  0  0  0  0  0  0  0  0  0
   16.0120   -4.1603    6.9489 C   0  0  1  0  0  0  0  0  0  0  0  0
   14.7694   -4.5148    7.5116 O   0  0  0  0  0  0  0  0  0  0  0  0
   16.7885   -3.5162    8.0804 C   0  0  1  0  0  0  0  0  0  0  0  0
   17.6027   -2.5060    7.5404 O   0  0  0  0  0  0  0  0  0  0  0  0
   15.7064   -2.9296    8.9642 C   0  0  1  0  0  0  0  0  0  0  0  0
   15.6224   -1.5534    8.6692 O   0  0  0  0  0  0  0  0  0  0  0  0
   14.4127   -3.6472    8.5732 C   0  0  2  0  0  0  0  0  0  0  0  0
   22.6362   -7.4887    6.9650 O   0  0  0  0  0  0  0  0  0  0  0  0
   12.1631   -8.1883    9.8907 N   0  0  0  0  0  0  0  0  0  0  0  0
   12.4626   -7.7302    8.6307 C   0  0  0  0  0  0  0  0  0  0  0  0
   13.0582   -6.4964    8.4866 N   0  0  0  0  0  0  0  0  0  0  0  0
   13.3543   -5.7330    9.5623 C   0  0  0  0  0  0  0  0  0  0  0  0
   13.0706   -6.1882   10.8418 C   0  0  0  0  0  0  0  0  0  0  0  0
   12.4589   -7.4296   11.0032 C   0  0  0  0  0  0  0  0  0  0  0  0
   12.1643   -7.8987   12.2160 N   0  0  0  0  0  0  0  0  0  0  0  0
   13.4757   -5.2373   11.7225 N   0  0  0  0  0  0  0  0  0  0  0  0
   14.0170   -4.2144   11.0216 C   0  0  0  0  0  0  0  0  0  0  0  0
   13.9561   -4.5089    9.6818 N   0  0  0  0  0  0  0  0  0  0  0  0
  2  1  1  1  0  0  0
  2  3  1  0  0  0  0
  2  5  1  0  0  0  0
  3  4  1  0  0  0  0
  3 17  1  0  0  0  0
  5  6  1  0  0  0  0
  7  6  1  6  0  0  0
  7  8  1  0  0  0  0
  7  9  1  0  0  0  0
 10  9  1  1  0  0  0
 10 11  1  0  0  0  0
 10 12  1  0  0  0  0
 11 16  1  0  0  0  0
 12 13  1  6  0  0  0
 12 14  1  0  0  0  0
 14 15  1  6  0  0  0
 14 16  1  0  0  0  0
 16 27  1  1  0  0  0
 18 19  2  0  0  0  0
 18 23  1  0  0  0  0
 19 20  1  0  0  0  0
 20 21  2  0  0  0  0
 21 22  1  0  0  0  0
 21 27  1  0  0  0  0
 22 23  2  0  0  0  0
 22 25  1  0  0  0  0
 23 24  1  0  0  0  0
 25 26  2  0  0  0  0
 26 27  1  0  0  0  0
M  END
>  <CHROM.1>
-71.75988709,-60.62174036,172.15936144,-178.42077932,-157.89239958,-40.81381084
-29.92422281,16.16472705,-5.99751390,8.53018606,0.15646896,-0.36047418,2.99331313

>  <Name>
ligand

>  <RI>
0

>  <Rbt.Current_Directory>
/home/itssahil/PROJECTS/Mol_Feturizer/New_Systems/rnas/3GX5

>  <Rbt.Executable>
rbdock ($Id: //depot/dev/client3/rdock/2013.1/src/exe/rbdock.cxx#4 $)

>  <Rbt.Library>
libRbt.so (2013.1, Build901 2013/11/27)

>  <Rbt.Parameter_File>
/export/apps/rDock/src/rDock_2013.1_src/data/scripts/dock_solv.prm

>  <Rbt.Receptor>
prm/pocket_docking_7.prm

>  <SCORE>
-10.6526

>  <SCORE.INTER>
-11.4612

>  <SCORE.INTER.CONST>
1

>  <SCORE.INTER.POLAR>
0

>  <SCORE.INTER.ROT>
7

>  <SCORE.INTER.SOLV>
8.75512

>  <SCORE.INTER.VDW>
-18.8259

>  <SCORE.INTER.norm>
-0.424491

>  <SCORE.INTRA>
0.808623

>  <SCORE.INTRA.DIHEDRAL>
3.15002

>  <SCORE.INTRA.DIHEDRAL.0>
4.28829

>  <SCORE.INTRA.POLAR>
0

>  <SCORE.INTRA.POLAR.0>
0

>  <SCORE.INTRA.REPUL>
0

>  <SCORE.INTRA.REPUL.0>
0

>  <SCORE.INTRA.SOLV>
-0.350508

>  <SCORE.INTRA.SOLV.lig_0>
-48.6018

>  <SCORE.INTRA.VDW>
-0.591132

>  <SCORE.INTRA.VDW.0>
-2.1506

>  <SCORE.INTRA.norm>
0.029949

>  <SCORE.RESTR>
0

>  <SCORE.RESTR.CAVITY>
0

>  <SCORE.RESTR.norm>
0

>  <SCORE.SYSTEM>
0

>  <SCORE.SYSTEM.CONST>
0

>  <SCORE.SYSTEM.DIHEDRAL>
0

>  <SCORE.SYSTEM.SOLV>
0

>  <SCORE.SYSTEM.norm>
0

>  <SCORE.heavy>
27

>  <SCORE.norm>
-0.394542

>  <RMSD>
6.114

$$$$
ligand
 OpenBabel11021811483D
libRbt.so/2013.1/901 2013/11/27
 27 29  0  0  0  0  0  0  0  0999 V2000
   12.2374   -8.3314   10.6341 N   0  0  0  0  0  0  0  0  0  0  0  0
   12.8788   -9.3719    9.8280 C   0  0  2  0  0  0  0  0  0  0  0  0
   13.4938  -10.5343   10.6113 C   0  0  0  0  0  0  0  0  0  0  0  0
   12.7648  -11.2145   11.3320 O   0  0  0  0  0  0  0  0  0  0  0  0
   13.8993   -8.7703    8.8764 C   0  0  0  0  0  0  0  0  0  0  0  0
   13.2436   -7.8436    7.8672 C   0  0  0  0  0  0  0  0  0  0  0  0
   14.4415   -7.2863    6.6425 S   0  0  2  0  0  0  0  0  0  0  0  0
   13.3606   -6.3248    5.5624 C   0  0  0  0  0  0  0  0  0  0  0  0
   14.6118   -8.7832    5.6430 C   0  0  0  0  0  0  0  0  0  0  0  0
   15.7536   -8.6460    4.6528 C   0  0  1  0  0  0  0  0  0  0  0  0
   16.9607   -8.3628    5.3229 O   0  0  0  0  0  0  0  0  0  0  0  0
   16.0199   -9.9248    3.8833 C   0  0  1  0  0  0  0  0  0  0  0  0
   15.2889   -9.8807    2.6839 O   0  0  0  0  0  0  0  0  0  0  0  0
   17.5104   -9.8735    3.6152 C   0  0  1  0  0  0  0  0  0  0  0  0
   17.6843   -9.4216    2.2910 O   0  0  0  0  0  0  0  0  0  0  0  0
   18.0799   -8.8616    4.6119 C   0  0  2  0  0  0  0  0  0  0  0  0
   14.6933  -10.8192   10.5579 O   0  0  0  0  0  0  0  0  0  0  0  0
   19.3019   -9.3569    9.6794 N   0  0  0  0  0  0  0  0  0  0  0  0
   18.3429   -8.5488    9.1185 C   0  0  0  0  0  0  0  0  0  0  0  0
   18.1707   -8.5569    7.7518 N   0  0  0  0  0  0  0  0  0  0  0  0
   18.9262   -9.3471    6.9565 C   0  0  0  0  0  0  0  0  0  0  0  0
   19.8891  -10.1787    7.5095 C   0  0  0  0  0  0  0  0  0  0  0  0
   20.0822  -10.1742    8.8894 C   0  0  0  0  0  0  0  0  0  0  0  0
   21.0020  -10.9542    9.4578 N   0  0  0  0  0  0  0  0  0  0  0  0
   20.4852  -10.8586    6.4963 N   0  0  0  0  0  0  0  0  0  0  0  0
   19.9045  -10.4809    5.3341 C   0  0  0  0  0  0  0  0  0  0  0  0
   18.9314   -9.5499    5.6024 N   0  0  0  0  0  0  0  0  0  0  0  0
  2  1  1  1  0  0  0
  2  3  1  0  0  0  0
  2  5  1  0  0  0  0
  3  4  1  0  0  0  0
  3 17  1  0  0  0  0
  5  6  1  0  0  0  0
  7  6  1  1  0  0  0
  7  8  1  0  0  0  0
  7  9  1  0  0  0  0
 10  9  1  1  0  0  0
 10 11  1  0  0  0  0
 10 12  1  0  0  0  0
 11 16  1  0  0  0  0
 12 13  1  6  0  0  0
 12 14  1  0  0  0  0
 14 15  1  6  0  0  0
 14 16  1  0  0  0  0
 16 27  1  1  0  0  0
 18 19  2  0  0  0  0
 18 23  1  0  0  0  0
 19 20  1  0  0  0  0
 20 21  2  0  0  0  0
 21 22  1  0  0  0  0
 21 27  1  0  0  0  0
 22 23  2  0  0  0  0
 22 25  1  0  0  0  0
 23 24  1  0  0  0  0
 25 26  2  0  0  0  0
 26 27  1  0  0  0  0
M  END
>  <CHROM.1>
59.71683231,-63.43788945,-173.80031189,176.50047682,-170.82503855,57.15251280
-21.48059379,16.40448151,-9.23858879,7.04037938,-2.52061091,0.25142141,-1.37332761

>  <Name>
ligand

>  <RI>
0

>  <Rbt.Current_Directory>
/home/itssahil/PROJECTS/Mol_Feturizer/New_Systems/rnas/3GX5

>  <Rbt.Executable>
rbdock ($Id: //depot/dev/client3/rdock/2013.1/src/exe/rbdock.cxx#4 $)

>  <Rbt.Library>
libRbt.so (2013.1, Build901 2013/11/27)

>  <Rbt.Parameter_File>
/export/apps/rDock/src/rDock_2013.1_src/data/scripts/dock_solv.prm

>  <Rbt.Receptor>
prm/pocket_docking_8.prm

>  <SCORE>
-12.2137

>  <SCORE.INTER>
-12.3433

>  <SCORE.INTER.CONST>
1

>  <SCORE.INTER.POLAR>
0

>  <SCORE.INTER.ROT>
7

>  <SCORE.INTER.SOLV>
9.09276

>  <SCORE.INTER.VDW>
-19.5264

>  <SCORE.INTER.norm>
-0.457158

>  <SCORE.INTRA>
0.12953

>  <SCORE.INTRA.DIHEDRAL>
0.318751

>  <SCORE.INTRA.DIHEDRAL.0>
4.28829

>  <SCORE.INTRA.POLAR>
0

>  <SCORE.INTRA.POLAR.0>
0

>  <SCORE.INTRA.REPUL>
0

>  <SCORE.INTRA.REPUL.0>
0

>  <SCORE.INTRA.SOLV>
-0.598784

>  <SCORE.INTRA.SOLV.lig_0>
-48.6018

>  <SCORE.INTRA.VDW>
0.269547

>  <SCORE.INTRA.VDW.0>
-2.1506

>  <SCORE.INTRA.norm>
0.00479742

>  <SCORE.RESTR>
0

>  <SCORE.RESTR.CAVITY>
0

>  <SCORE.RESTR.norm>
0

>  <SCORE.SYSTEM>
0

>  <SCORE.SYSTEM.CONST>
0

>  <SCORE.SYSTEM.DIHEDRAL>
0

>  <SCORE.SYSTEM.SOLV>
0

>  <SCORE.SYSTEM.norm>
0

>  <SCORE.heavy>
27

>  <SCORE.norm>
-0.452361

>  <RMSD>
6.118

$$$$
ligand
 OpenBabel11021811483D
libRbt.so/2013.1/901 2013/11/27
 27 29  0  0  0  0  0  0  0  0999 V2000
   17.7786   -8.1795    8.9732 N   0  0  0  0  0  0  0  0  0  0  0  0
   17.5467   -8.4871    7.5606 C   0  0  2  0  0  0  0  0  0  0  0  0
   18.6941   -9.1978    6.8386 C   0  0  0  0  0  0  0  0  0  0  0  0
   19.8514   -8.8778    7.1067 O   0  0  0  0  0  0  0  0  0  0  0  0
   17.1235   -7.2441    6.7961 C   0  0  0  0  0  0  0  0  0  0  0  0
   16.6367   -7.5865    5.3985 C   0  0  0  0  0  0  0  0  0  0  0  0
   15.0800   -8.4902    5.4703 S   0  0  2  0  0  0  0  0  0  0  0  0
   15.3289   -9.6510    4.1103 C   0  0  0  0  0  0  0  0  0  0  0  0
   13.9758   -7.3096    4.6606 C   0  0  0  0  0  0  0  0  0  0  0  0
   13.3613   -6.3608    5.6731 C   0  0  1  0  0  0  0  0  0  0  0  0
   12.6023   -7.0726    6.6236 O   0  0  0  0  0  0  0  0  0  0  0  0
   14.4017   -5.6101    6.4807 C   0  0  1  0  0  0  0  0  0  0  0  0
   14.6585   -4.3845    5.8426 O   0  0  0  0  0  0  0  0  0  0  0  0
   13.7250   -5.3962    7.8195 C   0  0  1  0  0  0  0  0  0  0  0  0
   13.2296   -4.0762    7.8342 O   0  0  0  0  0  0  0  0  0  0  0  0
   12.5767   -6.4062    7.8735 C   0  0  2  0  0  0  0  0  0  0  0  0
   18.5119  -10.0770    5.9920 O   0  0  0  0  0  0  0  0  0  0  0  0
   11.3199   -8.2422   12.6135 N   0  0  0  0  0  0  0  0  0  0  0  0
   10.7574   -7.1831   11.9433 C   0  0  0  0  0  0  0  0  0  0  0  0
   11.2305   -6.8493   10.6934 N   0  0  0  0  0  0  0  0  0  0  0  0
   12.2344   -7.5470   10.1164 C   0  0  0  0  0  0  0  0  0  0  0  0
   12.8030   -8.6276   10.7750 C   0  0  0  0  0  0  0  0  0  0  0  0
   12.3423   -8.9712   12.0442 C   0  0  0  0  0  0  0  0  0  0  0  0
   12.8676   -9.9988   12.7118 N   0  0  0  0  0  0  0  0  0  0  0  0
   13.7697   -9.1437    9.9729 N   0  0  0  0  0  0  0  0  0  0  0  0
   13.8016   -8.4206    8.8298 C   0  0  0  0  0  0  0  0  0  0  0  0
   12.8516   -7.4316    8.8996 N   0  0  0  0  0  0  0  0  0  0  0  0
  2  1  1  1  0  0  0
  2  3  1  0  0  0  0
  2  5  1  0  0  0  0
  3  4  1  0  0  0  0
  3 17  1  0  0  0  0
  5  6  1  0  0  0  0
  7  6  1  6  0  0  0
  7  8  1  0  0  0  0
  7  9  1  0  0  0  0
 10  9  1  6  0  0  0
 10 11  1  0  0  0  0
 10 12  1  0  0  0  0
 11 16  1  0  0  0  0
 12 13  1  6  0  0  0
 12 14  1  0  0  0  0
 14 15  1  6  0  0  0
 14 16  1  0  0  0  0
 16 27  1  1  0  0  0
 18 19  2  0  0  0  0
 18 23  1  0  0  0  0
 19 20  1  0  0  0  0
 20 21  2  0  0  0  0
 21 22  1  0  0  0  0
 21 27  1  0  0  0  0
 22 23  2  0  0  0  0
 22 25  1  0  0  0  0
 23 24  1  0  0  0  0
 25 26  2  0  0  0  0
 26 27  1  0  0  0  0
M  END
>  <CHROM.1>
-37.92487698,-169.62501186,68.43754283,-142.67411644,-89.86354515,-60.64277829
-139.18782145,14.50893214,-7.67911021,7.91727994,-0.61479797,-0.53508366
2.09684364

>  <Name>
ligand

>  <RI>
0

>  <Rbt.Current_Directory>
/home/itssahil/PROJECTS/Mol_Feturizer/New_Systems/rnas/3GX5

>  <Rbt.Executable>
rbdock ($Id: //depot/dev/client3/rdock/2013.1/src/exe/rbdock.cxx#4 $)

>  <Rbt.Library>
libRbt.so (2013.1, Build901 2013/11/27)

>  <Rbt.Parameter_File>
/export/apps/rDock/src/rDock_2013.1_src/data/scripts/dock_solv.prm

>  <Rbt.Receptor>
prm/pocket_docking_7.prm

>  <SCORE>
-10.525

>  <SCORE.INTER>
-10.8962

>  <SCORE.INTER.CONST>
1

>  <SCORE.INTER.POLAR>
0

>  <SCORE.INTER.ROT>
7

>  <SCORE.INTER.SOLV>
6.77618

>  <SCORE.INTER.VDW>
-17.7895

>  <SCORE.INTER.norm>
-0.403564

>  <SCORE.INTRA>
0.371184

>  <SCORE.INTRA.DIHEDRAL>
4.61536

>  <SCORE.INTRA.DIHEDRAL.0>
4.28829

>  <SCORE.INTRA.POLAR>
0

>  <SCORE.INTRA.POLAR.0>
0

>  <SCORE.INTRA.REPUL>
0

>  <SCORE.INTRA.REPUL.0>
0

>  <SCORE.INTRA.SOLV>
-0.609345

>  <SCORE.INTRA.SOLV.lig_0>
-48.6018

>  <SCORE.INTRA.VDW>
-1.63182

>  <SCORE.INTRA.VDW.0>
-2.1506

>  <SCORE.INTRA.norm>
0.0137476

>  <SCORE.RESTR>
0

>  <SCORE.RESTR.CAVITY>
0

>  <SCORE.RESTR.norm>
0

>  <SCORE.SYSTEM>
0

>  <SCORE.SYSTEM.CONST>
0

>  <SCORE.SYSTEM.DIHEDRAL>
0

>  <SCORE.SYSTEM.SOLV>
0

>  <SCORE.SYSTEM.norm>
0

>  <SCORE.heavy>
27

>  <SCORE.norm>
-0.389816

>  <RMSD>
6.123

$$$$
ligand
 OpenBabel11021811483D
libRbt.so/2013.1/901 2013/11/27
 27 29  0  0  0  0  0  0  0  0999 V2000
   12.9382   -7.9311    4.1996 N   0  0  0  0  0  0  0  0  0  0  0  0
   14.2783   -7.9124    4.7891 C   0  0  2  0  0  0  0  0  0  0  0  0
   14.9181   -9.2823    5.0278 C   0  0  0  0  0  0  0  0  0  0  0  0
   14.2131  -10.2011    5.4432 O   0  0  0  0  0  0  0  0  0  0  0  0
   14.3003   -7.0838    6.0626 C   0  0  0  0  0  0  0  0  0  0  0  0
   13.7926   -5.6729    5.8198 C   0  0  0  0  0  0  0  0  0  0  0  0
   13.8458   -4.7069    7.3394 S   0  0  2  0  0  0  0  0  0  0  0  0
   12.4636   -3.5836    7.0448 C   0  0  0  0  0  0  0  0  0  0  0  0
   15.2223   -3.5931    6.9739 C   0  0  0  0  0  0  0  0  0  0  0  0
   16.5163   -4.1187    7.5676 C   0  0  1  0  0  0  0  0  0  0  0  0
   16.4473   -4.1321    8.9752 O   0  0  0  0  0  0  0  0  0  0  0  0
   16.8028   -5.5540    7.1727 C   0  0  1  0  0  0  0  0  0  0  0  0
   17.6115   -5.5445    6.0234 O   0  0  0  0  0  0  0  0  0  0  0  0
   17.5572   -6.1062    8.3652 C   0  0  1  0  0  0  0  0  0  0  0  0
   18.9295   -6.0830    8.0423 O   0  0  0  0  0  0  0  0  0  0  0  0
   17.2579   -5.1552    9.5260 C   0  0  2  0  0  0  0  0  0  0  0  0
   16.1146   -9.5081    4.8276 O   0  0  0  0  0  0  0  0  0  0  0  0
   13.0352   -8.1253   10.4012 N   0  0  0  0  0  0  0  0  0  0  0  0
   13.5199   -7.6839    9.1939 C   0  0  0  0  0  0  0  0  0  0  0  0
   14.6544   -6.9029    9.1687 N   0  0  0  0  0  0  0  0  0  0  0  0
   15.2980   -6.5675   10.3092 C   0  0  0  0  0  0  0  0  0  0  0  0
   14.8285   -7.0173   11.5348 C   0  0  0  0  0  0  0  0  0  0  0  0
   13.6763   -7.7995   11.5775 C   0  0  0  0  0  0  0  0  0  0  0  0
   13.1902   -8.2454   12.7362 N   0  0  0  0  0  0  0  0  0  0  0  0
   15.6599   -6.5451   12.4991 N   0  0  0  0  0  0  0  0  0  0  0  0
   16.6395   -5.8296   11.9000 C   0  0  0  0  0  0  0  0  0  0  0  0
   16.4340   -5.8395   10.5424 N   0  0  0  0  0  0  0  0  0  0  0  0
  2  1  1  1  0  0  0
  2  3  1  0  0  0  0
  2  5  1  0  0  0  0
  3  4  1  0  0  0  0
  3 17  1  0  0  0  0
  5  6  1  0  0  0  0
  7  6  1  6  0  0  0
  7  8  1  0  0  0  0
  7  9  1  0  0  0  0
 10  9  1  6  0  0  0
 10 11  1  0  0  0  0
 10 12  1  0  0  0  0
 11 16  1  0  0  0  0
 12 13  1  6  0  0  0
 12 14  1  0  0  0  0
 14 15  1  6  0  0  0
 14 16  1  0  0  0  0
 16 27  1  1  0  0  0
 18 19  2  0  0  0  0
 18 23  1  0  0  0  0
 19 20  1  0  0  0  0
 20 21  2  0  0  0  0
 21 22  1  0  0  0  0
 21 27  1  0  0  0  0
 22 23  2  0  0  0  0
 22 25  1  0  0  0  0
 23 24  1  0  0  0  0
 25 26  2  0  0  0  0
 26 27  1  0  0  0  0
M  END
>  <CHROM.1>
-39.76380820,-55.65553943,-179.37419205,-150.09804178,-96.53018209,-64.91095849
65.16853737,15.15388527,-6.45110767,8.13346145,1.75157500,-0.89943398,-1.62117635

>  <Name>
ligand

>  <RI>
0

>  <Rbt.Current_Directory>
/home/itssahil/PROJECTS/Mol_Feturizer/New_Systems/rnas/3GX5

>  <Rbt.Executable>
rbdock ($Id: //depot/dev/client3/rdock/2013.1/src/exe/rbdock.cxx#4 $)

>  <Rbt.Library>
libRbt.so (2013.1, Build901 2013/11/27)

>  <Rbt.Parameter_File>
/export/apps/rDock/src/rDock_2013.1_src/data/scripts/dock_solv.prm

>  <Rbt.Receptor>
prm/pocket_docking_4.prm

>  <SCORE>
-10.3799

>  <SCORE.INTER>
-10.2102

>  <SCORE.INTER.CONST>
1

>  <SCORE.INTER.POLAR>
0

>  <SCORE.INTER.ROT>
7

>  <SCORE.INTER.SOLV>
11.526

>  <SCORE.INTER.VDW>
-18.9154

>  <SCORE.INTER.norm>
-0.378155

>  <SCORE.INTRA>
-0.169658

>  <SCORE.INTRA.DIHEDRAL>
4.2389

>  <SCORE.INTRA.DIHEDRAL.0>
4.28829

>  <SCORE.INTRA.POLAR>
0

>  <SCORE.INTRA.POLAR.0>
0

>  <SCORE.INTRA.REPUL>
0

>  <SCORE.INTRA.REPUL.0>
0

>  <SCORE.INTRA.SOLV>
0.0586914

>  <SCORE.INTRA.SOLV.lig_0>
-48.6018

>  <SCORE.INTRA.VDW>
-2.31846

>  <SCORE.INTRA.VDW.0>
-2.1506

>  <SCORE.INTRA.norm>
-0.00628365

>  <SCORE.RESTR>
0

>  <SCORE.RESTR.CAVITY>
0

>  <SCORE.RESTR.norm>
0

>  <SCORE.SYSTEM>
0

>  <SCORE.SYSTEM.CONST>
0

>  <SCORE.SYSTEM.DIHEDRAL>
0

>  <SCORE.SYSTEM.SOLV>
0

>  <SCORE.SYSTEM.norm>
0

>  <SCORE.heavy>
27

>  <SCORE.norm>
-0.384439

>  <RMSD>
6.156

$$$$
ligand
 OpenBabel11021811483D
libRbt.so/2013.1/901 2013/11/27
 27 29  0  0  0  0  0  0  0  0999 V2000
   13.9205   -9.7412    6.0151 N   0  0  0  0  0  0  0  0  0  0  0  0
   13.6119   -8.3981    5.5206 C   0  0  2  0  0  0  0  0  0  0  0  0
   14.1999   -8.0426    4.1529 C   0  0  0  0  0  0  0  0  0  0  0  0
   13.4867   -7.4650    3.3334 O   0  0  0  0  0  0  0  0  0  0  0  0
   13.9788   -7.3424    6.5501 C   0  0  0  0  0  0  0  0  0  0  0  0
   13.5835   -5.9504    6.0880 C   0  0  0  0  0  0  0  0  0  0  0  0
   13.7767   -4.7574    7.4238 S   0  0  2  0  0  0  0  0  0  0  0  0
   12.4687   -3.5902    6.9927 C   0  0  0  0  0  0  0  0  0  0  0  0
   15.2131   -3.8316    6.8337 C   0  0  0  0  0  0  0  0  0  0  0  0
   16.5041   -4.4914    7.2821 C   0  0  1  0  0  0  0  0  0  0  0  0
   16.4825   -4.7321    8.6705 O   0  0  0  0  0  0  0  0  0  0  0  0
   16.7184   -5.8521    6.6488 C   0  0  1  0  0  0  0  0  0  0  0  0
   17.4873   -5.6830    5.4847 O   0  0  0  0  0  0  0  0  0  0  0  0
   17.4899   -6.6172    7.7050 C   0  0  1  0  0  0  0  0  0  0  0  0
   18.8502   -6.5891    7.3353 O   0  0  0  0  0  0  0  0  0  0  0  0
   17.2691   -5.8587    9.0155 C   0  0  2  0  0  0  0  0  0  0  0  0
   15.3594   -8.3142    3.8298 O   0  0  0  0  0  0  0  0  0  0  0  0
   14.7243   -5.9761   13.5903 N   0  0  0  0  0  0  0  0  0  0  0  0
   15.3994   -4.9200   13.0280 C   0  0  0  0  0  0  0  0  0  0  0  0
   16.0125   -5.0867   11.8057 N   0  0  0  0  0  0  0  0  0  0  0  0
   15.9579   -6.2684   11.1514 C   0  0  0  0  0  0  0  0  0  0  0  0
   15.2681   -7.3398   11.7000 C   0  0  0  0  0  0  0  0  0  0  0  0
   14.6516   -7.1899   12.9405 C   0  0  0  0  0  0  0  0  0  0  0  0
   13.9850   -8.1979   13.5036 N   0  0  0  0  0  0  0  0  0  0  0  0
   15.3668   -8.3850   10.8387 N   0  0  0  0  0  0  0  0  0  0  0  0
   16.0852   -7.9822    9.7652 C   0  0  0  0  0  0  0  0  0  0  0  0
   16.4531   -6.6709    9.9400 N   0  0  0  0  0  0  0  0  0  0  0  0
  2  1  1  1  0  0  0
  2  3  1  0  0  0  0
  2  5  1  0  0  0  0
  3  4  1  0  0  0  0
  3 17  1  0  0  0  0
  5  6  1  0  0  0  0
  7  6  1  6  0  0  0
  7  8  1  0  0  0  0
  7  9  1  0  0  0  0
 10  9  1  6  0  0  0
 10 11  1  0  0  0  0
 10 12  1  0  0  0  0
 11 16  1  0  0  0  0
 12 13  1  6  0  0  0
 12 14  1  0  0  0  0
 14 15  1  6  0  0  0
 14 16  1  0  0  0  0
 16 27  1  1  0  0  0
 18 19  2  0  0  0  0
 18 23  1  0  0  0  0
 19 20  1  0  0  0  0
 20 21  2  0  0  0  0
 21 22  1  0  0  0  0
 21 27  1  0  0  0  0
 22 23  2  0  0  0  0
 22 25  1  0  0  0  0
 23 24  1  0  0  0  0
 25 26  2  0  0  0  0
 26 27  1  0  0  0  0
M  END
>  <CHROM.1>
136.08397008,-176.38373926,170.68975004,-149.32411402,-87.33737532,-51.28268152
-59.97711030,15.27986441,-6.39418107,8.24678034,1.71808518,-0.88618143,-1.52284388

>  <Name>
ligand

>  <RI>
0

>  <Rbt.Current_Directory>
/home/itssahil/PROJECTS/Mol_Feturizer/New_Systems/rnas/3GX5

>  <Rbt.Executable>
rbdock ($Id: //depot/dev/client3/rdock/2013.1/src/exe/rbdock.cxx#4 $)

>  <Rbt.Library>
libRbt.so (2013.1, Build901 2013/11/27)

>  <Rbt.Parameter_File>
/export/apps/rDock/src/rDock_2013.1_src/data/scripts/dock_solv.prm

>  <Rbt.Receptor>
prm/pocket_docking_4.prm

>  <SCORE>
-11.4239

>  <SCORE.INTER>
-12.1403

>  <SCORE.INTER.CONST>
1

>  <SCORE.INTER.POLAR>
0

>  <SCORE.INTER.ROT>
7

>  <SCORE.INTER.SOLV>
11.1279

>  <SCORE.INTER.VDW>
-20.0695

>  <SCORE.INTER.norm>
-0.449642

>  <SCORE.INTRA>
0.700838

>  <SCORE.INTRA.DIHEDRAL>
3.89278

>  <SCORE.INTRA.DIHEDRAL.0>
4.28829

>  <SCORE.INTRA.POLAR>
0

>  <SCORE.INTRA.POLAR.0>
0

>  <SCORE.INTRA.REPUL>
0

>  <SCORE.INTRA.REPUL.0>
0

>  <SCORE.INTRA.SOLV>
-0.828692

>  <SCORE.INTRA.SOLV.lig_0>
-48.6018

>  <SCORE.INTRA.VDW>
-0.831208

>  <SCORE.INTRA.VDW.0>
-2.1506

>  <SCORE.INTRA.norm>
0.0259569

>  <SCORE.RESTR>
0.0156319

>  <SCORE.RESTR.CAVITY>
0.0156319

>  <SCORE.RESTR.norm>
0.000578961

>  <SCORE.SYSTEM>
0

>  <SCORE.SYSTEM.CONST>
0

>  <SCORE.SYSTEM.DIHEDRAL>
0

>  <SCORE.SYSTEM.SOLV>
0

>  <SCORE.SYSTEM.norm>
0

>  <SCORE.heavy>
27

>  <SCORE.norm>
-0.423106

>  <RMSD>
6.158

$$$$
ligand
 OpenBabel11021811483D
libRbt.so/2013.1/901 2013/11/27
 27 29  0  0  0  0  0  0  0  0999 V2000
   12.8712   -7.7820    4.6719 N   0  0  0  0  0  0  0  0  0  0  0  0
   13.8118   -6.7705    5.1576 C   0  0  2  0  0  0  0  0  0  0  0  0
   14.9167   -7.2819    6.0851 C   0  0  0  0  0  0  0  0  0  0  0  0
   16.0805   -6.9543    5.8571 O   0  0  0  0  0  0  0  0  0  0  0  0
   13.0749   -5.6056    5.7970 C   0  0  0  0  0  0  0  0  0  0  0  0
   14.0259   -4.4836    6.1765 C   0  0  0  0  0  0  0  0  0  0  0  0
   14.7920   -4.8113    7.7736 S   0  0  2  0  0  0  0  0  0  0  0  0
   13.6930   -3.8642    8.8481 C   0  0  0  0  0  0  0  0  0  0  0  0
   16.1974   -3.6760    7.7043 C   0  0  0  0  0  0  0  0  0  0  0  0
   17.1664   -3.9439    8.8411 C   0  0  1  0  0  0  0  0  0  0  0  0
   16.5533   -3.6942   10.0853 O   0  0  0  0  0  0  0  0  0  0  0  0
   17.6116   -5.3917    8.9038 C   0  0  1  0  0  0  0  0  0  0  0  0
   18.8047   -5.5206    8.1724 O   0  0  0  0  0  0  0  0  0  0  0  0
   17.8506   -5.6255   10.3818 C   0  0  1  0  0  0  0  0  0  0  0  0
   19.2393   -5.5255   10.6043 O   0  0  0  0  0  0  0  0  0  0  0  0
   17.1036   -4.5050   11.1084 C   0  0  2  0  0  0  0  0  0  0  0  0
   14.6948   -8.0155    7.0523 O   0  0  0  0  0  0  0  0  0  0  0  0
   12.9175   -7.6458   10.9359 N   0  0  0  0  0  0  0  0  0  0  0  0
   13.8245   -7.3944    9.9353 C   0  0  0  0  0  0  0  0  0  0  0  0
   14.8683   -6.5279   10.1747 N   0  0  0  0  0  0  0  0  0  0  0  0
   15.0153   -5.9252   11.3759 C   0  0  0  0  0  0  0  0  0  0  0  0
   14.1153   -6.1799   12.4004 C   0  0  0  0  0  0  0  0  0  0  0  0
   13.0484   -7.0460   12.1704 C   0  0  0  0  0  0  0  0  0  0  0  0
   12.1589   -7.3110   13.1276 N   0  0  0  0  0  0  0  0  0  0  0  0
   14.5015   -5.4586   13.4843 N   0  0  0  0  0  0  0  0  0  0  0  0
   15.6255   -4.7782   13.1611 C   0  0  0  0  0  0  0  0  0  0  0  0
   15.9613   -5.0619   11.8602 N   0  0  0  0  0  0  0  0  0  0  0  0
  2  1  1  1  0  0  0
  2  3  1  0  0  0  0
  2  5  1  0  0  0  0
  3  4  1  0  0  0  0
  3 17  1  0  0  0  0
  5  6  1  0  0  0  0
  7  6  1  6  0  0  0
  7  8  1  0  0  0  0
  7  9  1  0  0  0  0
 10  9  1  6  0  0  0
 10 11  1  0  0  0  0
 10 12  1  0  0  0  0
 11 16  1  0  0  0  0
 12 13  1  6  0  0  0
 12 14  1  0  0  0  0
 14 15  1  6  0  0  0
 14 16  1  0  0  0  0
 16 27  1  1  0  0  0
 18 19  2  0  0  0  0
 18 23  1  0  0  0  0
 19 20  1  0  0  0  0
 20 21  2  0  0  0  0
 21 22  1  0  0  0  0
 21 27  1  0  0  0  0
 22 23  2  0  0  0  0
 22 25  1  0  0  0  0
 23 24  1  0  0  0  0
 25 26  2  0  0  0  0
 26 27  1  0  0  0  0
M  END
>  <CHROM.1>
131.30433530,-174.11882387,-83.22898413,-95.83983352,-169.36028733,-63.76747969
64.67420362,15.23406372,-5.74661799,9.18807585,1.72364604,-0.44093259,-1.61293126

>  <Name>
ligand

>  <RI>
0

>  <Rbt.Current_Directory>
/home/itssahil/PROJECTS/Mol_Feturizer/New_Systems/rnas/3GX5

>  <Rbt.Executable>
rbdock ($Id: //depot/dev/client3/rdock/2013.1/src/exe/rbdock.cxx#4 $)

>  <Rbt.Library>
libRbt.so (2013.1, Build901 2013/11/27)

>  <Rbt.Parameter_File>
/export/apps/rDock/src/rDock_2013.1_src/data/scripts/dock_solv.prm

>  <Rbt.Receptor>
prm/pocket_docking_7.prm

>  <SCORE>
-10.7172

>  <SCORE.INTER>
-9.45027

>  <SCORE.INTER.CONST>
1

>  <SCORE.INTER.POLAR>
0

>  <SCORE.INTER.ROT>
7

>  <SCORE.INTER.SOLV>
16.3761

>  <SCORE.INTER.VDW>
-20.0255

>  <SCORE.INTER.norm>
-0.35001

>  <SCORE.INTRA>
-1.26689

>  <SCORE.INTRA.DIHEDRAL>
3.89879

>  <SCORE.INTRA.DIHEDRAL.0>
4.28829

>  <SCORE.INTRA.POLAR>
0

>  <SCORE.INTRA.POLAR.0>
0

>  <SCORE.INTRA.REPUL>
0

>  <SCORE.INTRA.REPUL.0>
0

>  <SCORE.INTRA.SOLV>
-0.839389

>  <SCORE.INTRA.SOLV.lig_0>
-48.6018

>  <SCORE.INTRA.VDW>
-2.79659

>  <SCORE.INTRA.VDW.0>
-2.1506

>  <SCORE.INTRA.norm>
-0.046922

>  <SCORE.RESTR>
0

>  <SCORE.RESTR.CAVITY>
0

>  <SCORE.RESTR.norm>
0

>  <SCORE.SYSTEM>
0

>  <SCORE.SYSTEM.CONST>
0

>  <SCORE.SYSTEM.DIHEDRAL>
0

>  <SCORE.SYSTEM.SOLV>
0

>  <SCORE.SYSTEM.norm>
0

>  <SCORE.heavy>
27

>  <SCORE.norm>
-0.396932

>  <RMSD>
6.158

$$$$
ligand
 OpenBabel11021811483D
libRbt.so/2013.1/901 2013/11/27
 27 29  0  0  0  0  0  0  0  0999 V2000
   20.1560   -7.7997    6.9772 N   0  0  0  0  0  0  0  0  0  0  0  0
   18.9189   -8.5477    6.7448 C   0  0  2  0  0  0  0  0  0  0  0  0
   18.7058   -9.0512    5.3152 C   0  0  0  0  0  0  0  0  0  0  0  0
   19.0397  -10.2021    5.0365 O   0  0  0  0  0  0  0  0  0  0  0  0
   17.7098   -7.7589    7.2187 C   0  0  0  0  0  0  0  0  0  0  0  0
   16.4346   -8.5785    7.1202 C   0  0  0  0  0  0  0  0  0  0  0  0
   15.0588   -7.7108    7.8946 S   0  0  2  0  0  0  0  0  0  0  0  0
   13.7202   -8.8701    7.5433 C   0  0  0  0  0  0  0  0  0  0  0  0
   14.7100   -6.4583    6.6383 C   0  0  0  0  0  0  0  0  0  0  0  0
   14.5153   -5.0939    7.2736 C   0  0  1  0  0  0  0  0  0  0  0  0
   13.6088   -5.1721    8.3499 O   0  0  0  0  0  0  0  0  0  0  0  0
   15.7922   -4.5378    7.8725 C   0  0  1  0  0  0  0  0  0  0  0  0
   16.4219   -3.7348    6.9062 O   0  0  0  0  0  0  0  0  0  0  0  0
   15.3028   -3.7037    9.0391 C   0  0  1  0  0  0  0  0  0  0  0  0
   15.2950   -2.3576    8.6198 O   0  0  0  0  0  0  0  0  0  0  0  0
   13.8811   -4.1880    9.3319 C   0  0  2  0  0  0  0  0  0  0  0  0
   18.2178   -8.3520    4.4233 O   0  0  0  0  0  0  0  0  0  0  0  0
   11.8352   -8.1482   12.0795 N   0  0  0  0  0  0  0  0  0  0  0  0
   11.6169   -7.8366   10.7595 C   0  0  0  0  0  0  0  0  0  0  0  0
   12.2517   -6.7437   10.2117 N   0  0  0  0  0  0  0  0  0  0  0  0
   13.0857   -5.9770   10.9494 C   0  0  0  0  0  0  0  0  0  0  0  0
   13.3269   -6.2872   12.2799 C   0  0  0  0  0  0  0  0  0  0  0  0
   12.6842   -7.3836   12.8511 C   0  0  0  0  0  0  0  0  0  0  0  0
   12.8849   -7.7100   14.1281 N   0  0  0  0  0  0  0  0  0  0  0  0
   14.1987   -5.3693   12.7712 N   0  0  0  0  0  0  0  0  0  0  0  0
   14.5149   -4.5103   11.7748 C   0  0  0  0  0  0  0  0  0  0  0  0
   13.8392   -4.8772   10.6370 N   0  0  0  0  0  0  0  0  0  0  0  0
  2  1  1  6  0  0  0
  2  3  1  0  0  0  0
  2  5  1  0  0  0  0
  3  4  1  0  0  0  0
  3 17  1  0  0  0  0
  5  6  1  0  0  0  0
  7  6  1  6  0  0  0
  7  8  1  0  0  0  0
  7  9  1  0  0  0  0
 10  9  1  1  0  0  0
 10 11  1  0  0  0  0
 10 12  1  0  0  0  0
 11 16  1  0  0  0  0
 12 13  1  6  0  0  0
 12 14  1  0  0  0  0
 14 15  1  6  0  0  0
 14 16  1  0  0  0  0
 16 27  1  1  0  0  0
 18 19  2  0  0  0  0
 18 23  1  0  0  0  0
 19 20  1  0  0  0  0
 20 21  2  0  0  0  0
 21 22  1  0  0  0  0
 21 27  1  0  0  0  0
 22 23  2  0  0  0  0
 22 25  1  0  0  0  0
 23 24  1  0  0  0  0
 25 26  2  0  0  0  0
 26 27  1  0  0  0  0
M  END
>  <CHROM.1>
95.49842751,-173.99068065,172.19637206,177.25559364,-134.68077927,-49.25247922
-29.41498702,15.15848918,-6.60692655,8.76557437,0.20968070,-0.85907119,3.06550396

>  <Name>
ligand

>  <RI>
0

>  <Rbt.Current_Directory>
/home/itssahil/PROJECTS/Mol_Feturizer/New_Systems/rnas/3GX5

>  <Rbt.Executable>
rbdock ($Id: //depot/dev/client3/rdock/2013.1/src/exe/rbdock.cxx#4 $)

>  <Rbt.Library>
libRbt.so (2013.1, Build901 2013/11/27)

>  <Rbt.Parameter_File>
/export/apps/rDock/src/rDock_2013.1_src/data/scripts/dock_solv.prm

>  <Rbt.Receptor>
prm/pocket_docking_5.prm

>  <SCORE>
-7.74791

>  <SCORE.INTER>
-8.48128

>  <SCORE.INTER.CONST>
1

>  <SCORE.INTER.POLAR>
0

>  <SCORE.INTER.ROT>
7

>  <SCORE.INTER.SOLV>
8.7377

>  <SCORE.INTER.VDW>
-16.8334

>  <SCORE.INTER.norm>
-0.314121

>  <SCORE.INTRA>
0.733366

>  <SCORE.INTRA.DIHEDRAL>
4.13459

>  <SCORE.INTRA.DIHEDRAL.0>
4.28829

>  <SCORE.INTRA.POLAR>
0

>  <SCORE.INTRA.POLAR.0>
0

>  <SCORE.INTRA.REPUL>
0

>  <SCORE.INTRA.REPUL.0>
0

>  <SCORE.INTRA.SOLV>
-1.03861

>  <SCORE.INTRA.SOLV.lig_0>
-48.6018

>  <SCORE.INTRA.VDW>
-0.814623

>  <SCORE.INTRA.VDW.0>
-2.1506

>  <SCORE.INTRA.norm>
0.0271617

>  <SCORE.RESTR>
0

>  <SCORE.RESTR.CAVITY>
0

>  <SCORE.RESTR.norm>
0

>  <SCORE.SYSTEM>
0

>  <SCORE.SYSTEM.CONST>
0

>  <SCORE.SYSTEM.DIHEDRAL>
0

>  <SCORE.SYSTEM.SOLV>
0

>  <SCORE.SYSTEM.norm>
0

>  <SCORE.heavy>
27

>  <SCORE.norm>
-0.28696

>  <RMSD>
6.178

$$$$
ligand
 OpenBabel11021811483D
libRbt.so/2013.1/901 2013/11/27
 27 29  0  0  0  0  0  0  0  0999 V2000
   16.7515   -8.5654    5.7313 N   0  0  0  0  0  0  0  0  0  0  0  0
   16.6723   -7.1191    5.5171 C   0  0  2  0  0  0  0  0  0  0  0  0
   17.8359   -6.2996    6.0802 C   0  0  0  0  0  0  0  0  0  0  0  0
   18.5938   -6.8275    6.8930 O   0  0  0  0  0  0  0  0  0  0  0  0
   15.3443   -6.5688    6.0096 C   0  0  0  0  0  0  0  0  0  0  0  0
   15.0966   -6.9266    7.4649 C   0  0  0  0  0  0  0  0  0  0  0  0
   13.6274   -6.0889    8.0853 S   0  0  2  0  0  0  0  0  0  0  0  0
   12.5070   -6.3505    6.6940 C   0  0  0  0  0  0  0  0  0  0  0  0
   14.0806   -4.3643    7.7870 C   0  0  0  0  0  0  0  0  0  0  0  0
   14.9779   -3.8412    8.8934 C   0  0  1  0  0  0  0  0  0  0  0  0
   14.3884   -4.0579   10.1550 O   0  0  0  0  0  0  0  0  0  0  0  0
   16.3133   -4.5565    8.9535 C   0  0  1  0  0  0  0  0  0  0  0  0
   17.2394   -3.8316    8.1842 O   0  0  0  0  0  0  0  0  0  0  0  0
   16.6736   -4.5119   10.4247 C   0  0  1  0  0  0  0  0  0  0  0  0
   17.5947   -3.4590   10.6004 O   0  0  0  0  0  0  0  0  0  0  0  0
   15.3676   -4.2183   11.1662 C   0  0  2  0  0  0  0  0  0  0  0  0
   18.0475   -5.1268    5.7600 O   0  0  0  0  0  0  0  0  0  0  0  0
   14.7221   -9.4145   11.1979 N   0  0  0  0  0  0  0  0  0  0  0  0
   15.1910   -8.6295   10.1727 C   0  0  0  0  0  0  0  0  0  0  0  0
   15.2882   -7.2678   10.3574 N   0  0  0  0  0  0  0  0  0  0  0  0
   14.9333   -6.6940   11.5288 C   0  0  0  0  0  0  0  0  0  0  0  0
   14.4712   -7.4752   12.5780 C   0  0  0  0  0  0  0  0  0  0  0  0
   14.3575   -8.8528   12.4031 C   0  0  0  0  0  0  0  0  0  0  0  0
   13.9114   -9.6364   13.3852 N   0  0  0  0  0  0  0  0  0  0  0  0
   14.1994   -6.6520   13.6233 N   0  0  0  0  0  0  0  0  0  0  0  0
   14.4971   -5.3852   13.2527 C   0  0  0  0  0  0  0  0  0  0  0  0
   14.9599   -5.3947   11.9599 N   0  0  0  0  0  0  0  0  0  0  0  0
  2  1  1  1  0  0  0
  2  3  1  0  0  0  0
  2  5  1  0  0  0  0
  3  4  1  0  0  0  0
  3 17  1  0  0  0  0
  5  6  1  0  0  0  0
  7  6  1  6  0  0  0
  7  8  1  0  0  0  0
  7  9  1  0  0  0  0
 10  9  1  6  0  0  0
 10 11  1  0  0  0  0
 10 12  1  0  0  0  0
 11 16  1  0  0  0  0
 12 13  1  6  0  0  0
 12 14  1  0  0  0  0
 14 15  1  6  0  0  0
 14 16  1  0  0  0  0
 16 27  1  1  0  0  0
 18 19  2  0  0  0  0
 18 23  1  0  0  0  0
 19 20  1  0  0  0  0
 20 21  2  0  0  0  0
 21 22  1  0  0  0  0
 21 27  1  0  0  0  0
 22 23  2  0  0  0  0
 22 25  1  0  0  0  0
 23 24  1  0  0  0  0
 25 26  2  0  0  0  0
 26 27  1  0  0  0  0
M  END
>  <CHROM.1>
-14.97108770,55.21081611,172.68395928,43.86202699,-81.48699324,-53.10546473
67.29301581,15.41978434,-6.16732750,9.29812511,0.64043662,-1.14534746,-2.25980452

>  <Name>
ligand

>  <RI>
0

>  <Rbt.Current_Directory>
/home/itssahil/PROJECTS/Mol_Feturizer/New_Systems/rnas/3GX5

>  <Rbt.Executable>
rbdock ($Id: //depot/dev/client3/rdock/2013.1/src/exe/rbdock.cxx#4 $)

>  <Rbt.Library>
libRbt.so (2013.1, Build901 2013/11/27)

>  <Rbt.Parameter_File>
/export/apps/rDock/src/rDock_2013.1_src/data/scripts/dock_solv.prm

>  <Rbt.Receptor>
prm/pocket_docking_4.prm

>  <SCORE>
-6.18935

>  <SCORE.INTER>
-6.80387

>  <SCORE.INTER.CONST>
1

>  <SCORE.INTER.POLAR>
0

>  <SCORE.INTER.ROT>
7

>  <SCORE.INTER.SOLV>
8.28297

>  <SCORE.INTER.VDW>
-15.5636

>  <SCORE.INTER.norm>
-0.251995

>  <SCORE.INTRA>
0.614524

>  <SCORE.INTRA.DIHEDRAL>
0.196501

>  <SCORE.INTRA.DIHEDRAL.0>
4.28829

>  <SCORE.INTRA.POLAR>
0

>  <SCORE.INTRA.POLAR.0>
0

>  <SCORE.INTRA.REPUL>
0

>  <SCORE.INTRA.REPUL.0>
0

>  <SCORE.INTRA.SOLV>
0.22947

>  <SCORE.INTRA.SOLV.lig_0>
-48.6018

>  <SCORE.INTRA.VDW>
0.401539

>  <SCORE.INTRA.VDW.0>
-2.1506

>  <SCORE.INTRA.norm>
0.0227602

>  <SCORE.RESTR>
0

>  <SCORE.RESTR.CAVITY>
0

>  <SCORE.RESTR.norm>
0

>  <SCORE.SYSTEM>
0

>  <SCORE.SYSTEM.CONST>
0

>  <SCORE.SYSTEM.DIHEDRAL>
0

>  <SCORE.SYSTEM.SOLV>
0

>  <SCORE.SYSTEM.norm>
0

>  <SCORE.heavy>
27

>  <SCORE.norm>
-0.229235

>  <RMSD>
6.187

$$$$
ligand
 OpenBabel11021811483D
libRbt.so/2013.1/901 2013/11/27
 27 29  0  0  0  0  0  0  0  0999 V2000
   12.5351   -5.8022    8.8875 N   0  0  0  0  0  0  0  0  0  0  0  0
   13.1568   -4.5944    8.3410 C   0  0  2  0  0  0  0  0  0  0  0  0
   13.2490   -4.5273    6.8147 C   0  0  0  0  0  0  0  0  0  0  0  0
   13.7092   -5.4923    6.2059 O   0  0  0  0  0  0  0  0  0  0  0  0
   14.5191   -4.3527    8.9692 C   0  0  0  0  0  0  0  0  0  0  0  0
   15.2076   -3.1426    8.3617 C   0  0  0  0  0  0  0  0  0  0  0  0
   16.9978   -3.2989    8.4873 S   0  0  2  0  0  0  0  0  0  0  0  0
   17.5015   -1.7306    7.7484 C   0  0  0  0  0  0  0  0  0  0  0  0
   17.3302   -4.4070    7.0980 C   0  0  0  0  0  0  0  0  0  0  0  0
   16.6046   -5.7283    7.2736 C   0  0  1  0  0  0  0  0  0  0  0  0
   16.6110   -6.4620    6.0704 O   0  0  0  0  0  0  0  0  0  0  0  0
   17.2710   -6.6330    8.2914 C   0  0  1  0  0  0  0  0  0  0  0  0
   16.6718   -6.4093    9.5427 O   0  0  0  0  0  0  0  0  0  0  0  0
   16.9642   -8.0266    7.7816 C   0  0  1  0  0  0  0  0  0  0  0  0
   15.8780   -8.5198    8.5333 O   0  0  0  0  0  0  0  0  0  0  0  0
   16.5733   -7.8575    6.3119 C   0  0  2  0  0  0  0  0  0  0  0  0
   12.8868   -3.5438    6.1632 O   0  0  0  0  0  0  0  0  0  0  0  0
   21.7004   -8.4635    5.4382 N   0  0  0  0  0  0  0  0  0  0  0  0
   21.0951   -7.7868    6.4691 C   0  0  0  0  0  0  0  0  0  0  0  0
   19.7197   -7.7376    6.5267 N   0  0  0  0  0  0  0  0  0  0  0  0
   18.9584   -8.3453    5.5892 C   0  0  0  0  0  0  0  0  0  0  0  0
   19.5551   -9.0443    4.5500 C   0  0  0  0  0  0  0  0  0  0  0  0
   20.9454   -9.0944    4.4724 C   0  0  0  0  0  0  0  0  0  0  0  0
   21.5560   -9.7504    3.4853 N   0  0  0  0  0  0  0  0  0  0  0  0
   18.5681   -9.5555    3.7698 N   0  0  0  0  0  0  0  0  0  0  0  0
   17.3779   -9.2045    4.3092 C   0  0  0  0  0  0  0  0  0  0  0  0
   17.6021   -8.4603    5.4412 N   0  0  0  0  0  0  0  0  0  0  0  0
  2  1  1  6  0  0  0
  2  3  1  0  0  0  0
  2  5  1  0  0  0  0
  3  4  1  0  0  0  0
  3 17  1  0  0  0  0
  5  6  1  0  0  0  0
  7  6  1  6  0  0  0
  7  8  1  0  0  0  0
  7  9  1  0  0  0  0
 10  9  1  6  0  0  0
 10 11  1  0  0  0  0
 10 12  1  0  0  0  0
 11 16  1  0  0  0  0
 12 13  1  1  0  0  0
 12 14  1  0  0  0  0
 14 15  1  1  0  0  0
 14 16  1  0  0  0  0
 16 27  1  6  0  0  0
 18 19  2  0  0  0  0
 18 23  1  0  0  0  0
 19 20  1  0  0  0  0
 20 21  2  0  0  0  0
 21 22  1  0  0  0  0
 21 27  1  0  0  0  0
 22 23  2  0  0  0  0
 22 25  1  0  0  0  0
 23 24  1  0  0  0  0
 25 26  2  0  0  0  0
 26 27  1  0  0  0  0
M  END
>  <CHROM.1>
-49.53567387,177.10962239,-153.13487183,-178.33538726,-60.19053560,166.55527139
70.47418135,16.98072940,-6.37021024,6.83170941,2.33876617,0.07944527,0.49401274

>  <Name>
ligand

>  <RI>
0

>  <Rbt.Current_Directory>
/home/itssahil/PROJECTS/Mol_Feturizer/New_Systems/rnas/3GX5

>  <Rbt.Executable>
rbdock ($Id: //depot/dev/client3/rdock/2013.1/src/exe/rbdock.cxx#4 $)

>  <Rbt.Library>
libRbt.so (2013.1, Build901 2013/11/27)

>  <Rbt.Parameter_File>
/export/apps/rDock/src/rDock_2013.1_src/data/scripts/dock_solv.prm

>  <Rbt.Receptor>
prm/pocket_docking_8.prm

>  <SCORE>
-13.3119

>  <SCORE.INTER>
-13.2358

>  <SCORE.INTER.CONST>
1

>  <SCORE.INTER.POLAR>
0

>  <SCORE.INTER.ROT>
7

>  <SCORE.INTER.SOLV>
9.3254

>  <SCORE.INTER.VDW>
-20.199

>  <SCORE.INTER.norm>
-0.490217

>  <SCORE.INTRA>
-0.0760143

>  <SCORE.INTRA.DIHEDRAL>
2.63553

>  <SCORE.INTRA.DIHEDRAL.0>
4.28829

>  <SCORE.INTRA.POLAR>
0

>  <SCORE.INTRA.POLAR.0>
0

>  <SCORE.INTRA.REPUL>
0

>  <SCORE.INTRA.REPUL.0>
0

>  <SCORE.INTRA.SOLV>
-0.338095

>  <SCORE.INTRA.SOLV.lig_0>
-48.6018

>  <SCORE.INTRA.VDW>
-1.22473

>  <SCORE.INTRA.VDW.0>
-2.1506

>  <SCORE.INTRA.norm>
-0.00281535

>  <SCORE.RESTR>
0

>  <SCORE.RESTR.CAVITY>
0

>  <SCORE.RESTR.norm>
0

>  <SCORE.SYSTEM>
0

>  <SCORE.SYSTEM.CONST>
0

>  <SCORE.SYSTEM.DIHEDRAL>
0

>  <SCORE.SYSTEM.SOLV>
0

>  <SCORE.SYSTEM.norm>
0

>  <SCORE.heavy>
27

>  <SCORE.norm>
-0.493032

>  <RMSD>
6.214

$$$$
ligand
 OpenBabel11021811483D
libRbt.so/2013.1/901 2013/11/27
 27 29  0  0  0  0  0  0  0  0999 V2000
   14.2810   -8.8491    3.5195 N   0  0  0  0  0  0  0  0  0  0  0  0
   14.7606   -8.1451    4.7103 C   0  0  2  0  0  0  0  0  0  0  0  0
   15.4304   -9.0188    5.7737 C   0  0  0  0  0  0  0  0  0  0  0  0
   16.6392   -9.2322    5.6898 O   0  0  0  0  0  0  0  0  0  0  0  0
   13.6545   -7.3062    5.3280 C   0  0  0  0  0  0  0  0  0  0  0  0
   14.1699   -5.9531    5.7873 C   0  0  0  0  0  0  0  0  0  0  0  0
   15.4878   -6.1519    6.9993 S   0  0  2  0  0  0  0  0  0  0  0  0
   15.3065   -4.6067    7.9151 C   0  0  0  0  0  0  0  0  0  0  0  0
   16.9291   -5.7366    5.9900 C   0  0  0  0  0  0  0  0  0  0  0  0
   18.2152   -5.9673    6.7619 C   0  0  1  0  0  0  0  0  0  0  0  0
   18.1291   -5.4028    8.0503 O   0  0  0  0  0  0  0  0  0  0  0  0
   18.5050   -7.4373    6.9935 C   0  0  1  0  0  0  0  0  0  0  0  0
   19.3277   -7.8965    5.9508 O   0  0  0  0  0  0  0  0  0  0  0  0
   19.2442   -7.4489    8.3162 C   0  0  1  0  0  0  0  0  0  0  0  0
   20.6204   -7.5546    8.0281 O   0  0  0  0  0  0  0  0  0  0  0  0
   18.9318   -6.1068    8.9815 C   0  0  2  0  0  0  0  0  0  0  0  0
   14.8111   -9.5262    6.7127 O   0  0  0  0  0  0  0  0  0  0  0  0
   15.0088   -8.8519   11.1010 N   0  0  0  0  0  0  0  0  0  0  0  0
   15.5568   -8.9935    9.8493 C   0  0  0  0  0  0  0  0  0  0  0  0
   16.5921   -8.1676    9.4700 N   0  0  0  0  0  0  0  0  0  0  0  0
   17.0776   -7.2250   10.3085 C   0  0  0  0  0  0  0  0  0  0  0  0
   16.5438   -7.0793   11.5807 C   0  0  0  0  0  0  0  0  0  0  0  0
   15.4894   -7.9003   11.9752 C   0  0  0  0  0  0  0  0  0  0  0  0
   14.9452   -7.7865   13.1870 N   0  0  0  0  0  0  0  0  0  0  0  0
   17.2168   -6.0778   12.2037 N   0  0  0  0  0  0  0  0  0  0  0  0
   18.1630   -5.6125   11.3559 C   0  0  0  0  0  0  0  0  0  0  0  0
   18.0949   -6.3175   10.1795 N   0  0  0  0  0  0  0  0  0  0  0  0
  2  1  1  6  0  0  0
  2  3  1  0  0  0  0
  2  5  1  0  0  0  0
  3  4  1  0  0  0  0
  3 17  1  0  0  0  0
  5  6  1  0  0  0  0
  7  6  1  6  0  0  0
  7  8  1  0  0  0  0
  7  9  1  0  0  0  0
 10  9  1  1  0  0  0
 10 11  1  0  0  0  0
 10 12  1  0  0  0  0
 11 16  1  0  0  0  0
 12 13  1  6  0  0  0
 12 14  1  0  0  0  0
 14 15  1  6  0  0  0
 14 16  1  0  0  0  0
 16 27  1  1  0  0  0
 18 19  2  0  0  0  0
 18 23  1  0  0  0  0
 19 20  1  0  0  0  0
 20 21  2  0  0  0  0
 21 22  1  0  0  0  0
 21 27  1  0  0  0  0
 22 23  2  0  0  0  0
 22 25  1  0  0  0  0
 23 24  1  0  0  0  0
 25 26  2  0  0  0  0
 26 27  1  0  0  0  0
M  END
>  <CHROM.1>
88.11127214,-138.84838660,-58.85346362,-152.94093924,-174.23931454,-47.31455012
75.21034269,16.60165514,-7.22186509,8.11085264,1.84381280,-0.29979407,-1.61860524

>  <Name>
ligand

>  <RI>
0

>  <Rbt.Current_Directory>
/home/itssahil/PROJECTS/Mol_Feturizer/New_Systems/rnas/3GX5

>  <Rbt.Executable>
rbdock ($Id: //depot/dev/client3/rdock/2013.1/src/exe/rbdock.cxx#4 $)

>  <Rbt.Library>
libRbt.so (2013.1, Build901 2013/11/27)

>  <Rbt.Parameter_File>
/export/apps/rDock/src/rDock_2013.1_src/data/scripts/dock_solv.prm

>  <Rbt.Receptor>
prm/pocket_docking_8.prm

>  <SCORE>
-8.51596

>  <SCORE.INTER>
-8.90653

>  <SCORE.INTER.CONST>
1

>  <SCORE.INTER.POLAR>
0

>  <SCORE.INTER.ROT>
7

>  <SCORE.INTER.SOLV>
9.68087

>  <SCORE.INTER.VDW>
-17.4313

>  <SCORE.INTER.norm>
-0.329872

>  <SCORE.INTRA>
0.385204

>  <SCORE.INTRA.DIHEDRAL>
7.15443

>  <SCORE.INTRA.DIHEDRAL.0>
4.28829

>  <SCORE.INTRA.POLAR>
0

>  <SCORE.INTRA.POLAR.0>
0

>  <SCORE.INTRA.REPUL>
0

>  <SCORE.INTRA.REPUL.0>
0

>  <SCORE.INTRA.SOLV>
-0.581674

>  <SCORE.INTRA.SOLV.lig_0>
-48.6018

>  <SCORE.INTRA.VDW>
-2.90117

>  <SCORE.INTRA.VDW.0>
-2.1506

>  <SCORE.INTRA.norm>
0.0142668

>  <SCORE.RESTR>
0.00537412

>  <SCORE.RESTR.CAVITY>
0.00537412

>  <SCORE.RESTR.norm>
0.000199042

>  <SCORE.SYSTEM>
0

>  <SCORE.SYSTEM.CONST>
0

>  <SCORE.SYSTEM.DIHEDRAL>
0

>  <SCORE.SYSTEM.SOLV>
0

>  <SCORE.SYSTEM.norm>
0

>  <SCORE.heavy>
27

>  <SCORE.norm>
-0.315406

>  <RMSD>
6.223

$$$$
ligand
 OpenBabel11021811483D
libRbt.so/2013.1/901 2013/11/27
 27 29  0  0  0  0  0  0  0  0999 V2000
   16.9903   -8.9991    7.5707 N   0  0  0  0  0  0  0  0  0  0  0  0
   17.7482   -9.4640    6.4074 C   0  0  2  0  0  0  0  0  0  0  0  0
   19.2093   -9.8357    6.6718 C   0  0  0  0  0  0  0  0  0  0  0  0
   19.7225   -9.4994    7.7382 O   0  0  0  0  0  0  0  0  0  0  0  0
   17.6491   -8.4707    5.2618 C   0  0  0  0  0  0  0  0  0  0  0  0
   16.3683   -8.6602    4.4674 C   0  0  0  0  0  0  0  0  0  0  0  0
   14.9290   -8.2664    5.4765 S   0  0  2  0  0  0  0  0  0  0  0  0
   13.6974   -8.0152    4.1807 C   0  0  0  0  0  0  0  0  0  0  0  0
   15.2815   -6.5433    5.8953 C   0  0  0  0  0  0  0  0  0  0  0  0
   14.0478   -5.8587    6.4542 C   0  0  1  0  0  0  0  0  0  0  0  0
   13.5149   -6.5968    7.5301 O   0  0  0  0  0  0  0  0  0  0  0  0
   14.3462   -4.4868    7.0261 C   0  0  1  0  0  0  0  0  0  0  0  0
   14.1299   -3.5303    6.0194 O   0  0  0  0  0  0  0  0  0  0  0  0
   13.3334   -4.3404    8.1436 C   0  0  1  0  0  0  0  0  0  0  0  0
   12.2751   -3.5495    7.6512 O   0  0  0  0  0  0  0  0  0  0  0  0
   12.8497   -5.7577    8.4577 C   0  0  2  0  0  0  0  0  0  0  0  0
   19.9017  -10.4551    5.8595 O   0  0  0  0  0  0  0  0  0  0  0  0
   11.4430   -7.5423   13.1752 N   0  0  0  0  0  0  0  0  0  0  0  0
   10.6348   -7.2940   12.0924 C   0  0  0  0  0  0  0  0  0  0  0  0
   11.1968   -6.8208   10.9271 N   0  0  0  0  0  0  0  0  0  0  0  0
   12.5271   -6.6004   10.8315 C   0  0  0  0  0  0  0  0  0  0  0  0
   13.3579   -6.8597   11.9119 C   0  0  0  0  0  0  0  0  0  0  0  0
   12.8030   -7.3288   13.1008 C   0  0  0  0  0  0  0  0  0  0  0  0
   13.5674   -7.5835   14.1632 N   0  0  0  0  0  0  0  0  0  0  0  0
   14.6299   -6.5620   11.5413 N   0  0  0  0  0  0  0  0  0  0  0  0
   14.6086   -6.1416   10.2555 C   0  0  0  0  0  0  0  0  0  0  0  0
   13.3139   -6.1662    9.7985 N   0  0  0  0  0  0  0  0  0  0  0  0
  2  1  1  1  0  0  0
  2  3  1  0  0  0  0
  2  5  1  0  0  0  0
  3  4  1  0  0  0  0
  3 17  1  0  0  0  0
  5  6  1  0  0  0  0
  7  6  1  6  0  0  0
  7  8  1  0  0  0  0
  7  9  1  0  0  0  0
 10  9  1  1  0  0  0
 10 11  1  0  0  0  0
 10 12  1  0  0  0  0
 11 16  1  0  0  0  0
 12 13  1  6  0  0  0
 12 14  1  0  0  0  0
 14 15  1  6  0  0  0
 14 16  1  0  0  0  0
 16 27  1  1  0  0  0
 18 19  2  0  0  0  0
 18 23  1  0  0  0  0
 19 20  1  0  0  0  0
 20 21  2  0  0  0  0
 21 22  1  0  0  0  0
 21 27  1  0  0  0  0
 22 23  2  0  0  0  0
 22 25  1  0  0  0  0
 23 24  1  0  0  0  0
 25 26  2  0  0  0  0
 26 27  1  0  0  0  0
M  END
>  <CHROM.1>
-13.28286948,-82.54014271,65.75535126,161.16535445,165.53392985,53.36559223
-121.89929890,14.66661217,-7.13669760,8.22133747,-0.62078209,-0.67896577
1.89561008

>  <Name>
ligand

>  <RI>
0

>  <Rbt.Current_Directory>
/home/itssahil/PROJECTS/Mol_Feturizer/New_Systems/rnas/3GX5

>  <Rbt.Executable>
rbdock ($Id: //depot/dev/client3/rdock/2013.1/src/exe/rbdock.cxx#4 $)

>  <Rbt.Library>
libRbt.so (2013.1, Build901 2013/11/27)

>  <Rbt.Parameter_File>
/export/apps/rDock/src/rDock_2013.1_src/data/scripts/dock_solv.prm

>  <Rbt.Receptor>
prm/pocket_docking_7.prm

>  <SCORE>
-9.85609

>  <SCORE.INTER>
-11.6471

>  <SCORE.INTER.CONST>
1

>  <SCORE.INTER.POLAR>
0

>  <SCORE.INTER.ROT>
7

>  <SCORE.INTER.SOLV>
10.6174

>  <SCORE.INTER.VDW>
-19.5705

>  <SCORE.INTER.norm>
-0.431373

>  <SCORE.INTRA>
1.79098

>  <SCORE.INTRA.DIHEDRAL>
1.52421

>  <SCORE.INTRA.DIHEDRAL.0>
4.28829

>  <SCORE.INTRA.POLAR>
0

>  <SCORE.INTRA.POLAR.0>
0

>  <SCORE.INTRA.REPUL>
0.0185323

>  <SCORE.INTRA.REPUL.0>
0

>  <SCORE.INTRA.SOLV>
1.51385

>  <SCORE.INTRA.SOLV.lig_0>
-48.6018

>  <SCORE.INTRA.VDW>
0.179293

>  <SCORE.INTRA.VDW.0>
-2.1506

>  <SCORE.INTRA.norm>
0.0663327

>  <SCORE.RESTR>
0

>  <SCORE.RESTR.CAVITY>
0

>  <SCORE.RESTR.norm>
0

>  <SCORE.SYSTEM>
0

>  <SCORE.SYSTEM.CONST>
0

>  <SCORE.SYSTEM.DIHEDRAL>
0

>  <SCORE.SYSTEM.SOLV>
0

>  <SCORE.SYSTEM.norm>
0

>  <SCORE.heavy>
27

>  <SCORE.norm>
-0.36504

>  <RMSD>
6.238

$$$$
ligand
 OpenBabel11021811483D
libRbt.so/2013.1/901 2013/11/27
 27 29  0  0  0  0  0  0  0  0999 V2000
   13.9994   -8.7182    4.7590 N   0  0  0  0  0  0  0  0  0  0  0  0
   14.8352   -7.5621    5.0888 C   0  0  2  0  0  0  0  0  0  0  0  0
   16.2374   -7.8837    5.6116 C   0  0  0  0  0  0  0  0  0  0  0  0
   17.1607   -7.1169    5.3415 O   0  0  0  0  0  0  0  0  0  0  0  0
   14.1130   -6.6233    6.0406 C   0  0  0  0  0  0  0  0  0  0  0  0
   14.9147   -5.3579    6.2926 C   0  0  0  0  0  0  0  0  0  0  0  0
   14.0823   -4.3056    7.4946 S   0  0  2  0  0  0  0  0  0  0  0  0
   12.9419   -3.4273    6.4050 C   0  0  0  0  0  0  0  0  0  0  0  0
   15.3302   -3.0180    7.7257 C   0  0  0  0  0  0  0  0  0  0  0  0
   16.3508   -3.4341    8.7689 C   0  0  1  0  0  0  0  0  0  0  0  0
   15.7855   -3.3960   10.0593 O   0  0  0  0  0  0  0  0  0  0  0  0
   16.8259   -4.8624    8.5881 C   0  0  1  0  0  0  0  0  0  0  0  0
   17.9897   -4.8459    7.8003 O   0  0  0  0  0  0  0  0  0  0  0  0
   17.1309   -5.3163   10.0012 C   0  0  1  0  0  0  0  0  0  0  0  0
   18.5255   -5.2167   10.1833 O   0  0  0  0  0  0  0  0  0  0  0  0
   16.3935   -4.3414   10.9217 C   0  0  2  0  0  0  0  0  0  0  0  0
   16.4875   -8.8838    6.2899 O   0  0  0  0  0  0  0  0  0  0  0  0
   11.9754   -7.1004   10.3873 N   0  0  0  0  0  0  0  0  0  0  0  0
   12.7911   -6.6145    9.3945 C   0  0  0  0  0  0  0  0  0  0  0  0
   13.9197   -5.9033    9.7381 N   0  0  0  0  0  0  0  0  0  0  0  0
   14.2378   -5.6792   11.0328 C   0  0  0  0  0  0  0  0  0  0  0  0
   13.4312   -6.1755   12.0466 C   0  0  0  0  0  0  0  0  0  0  0  0
   12.2807   -6.8879   11.7149 C   0  0  0  0  0  0  0  0  0  0  0  0
   11.4768   -7.3752   12.6603 N   0  0  0  0  0  0  0  0  0  0  0  0
   13.9838   -5.8153   13.2337 N   0  0  0  0  0  0  0  0  0  0  0  0
   15.1188   -5.1241   12.9797 C   0  0  0  0  0  0  0  0  0  0  0  0
   15.2945   -5.0369   11.6206 N   0  0  0  0  0  0  0  0  0  0  0  0
  2  1  1  1  0  0  0
  2  3  1  0  0  0  0
  2  5  1  0  0  0  0
  3  4  1  0  0  0  0
  3 17  1  0  0  0  0
  5  6  1  0  0  0  0
  7  6  1  6  0  0  0
  7  8  1  0  0  0  0
  7  9  1  0  0  0  0
 10  9  1  6  0  0  0
 10 11  1  0  0  0  0
 10 12  1  0  0  0  0
 11 16  1  0  0  0  0
 12 13  1  6  0  0  0
 12 14  1  0  0  0  0
 14 15  1  1  0  0  0
 14 16  1  0  0  0  0
 16 27  1  6  0  0  0
 18 19  2  0  0  0  0
 18 23  1  0  0  0  0
 19 20  1  0  0  0  0
 20 21  2  0  0  0  0
 21 22  1  0  0  0  0
 21 27  1  0  0  0  0
 22 23  2  0  0  0  0
 22 25  1  0  0  0  0
 23 24  1  0  0  0  0
 25 26  2  0  0  0  0
 26 27  1  0  0  0  0
M  END
>  <CHROM.1>
146.98909913,-174.80209647,-176.78213871,-84.42271295,-85.17109307,-72.27147574
54.64661978,14.97191001,-5.69671556,8.82583866,1.25516061,-0.56245760,-1.90850075

>  <Name>
ligand

>  <RI>
0

>  <Rbt.Current_Directory>
/home/itssahil/PROJECTS/Mol_Feturizer/New_Systems/rnas/3GX5

>  <Rbt.Executable>
rbdock ($Id: //depot/dev/client3/rdock/2013.1/src/exe/rbdock.cxx#4 $)

>  <Rbt.Library>
libRbt.so (2013.1, Build901 2013/11/27)

>  <Rbt.Parameter_File>
/export/apps/rDock/src/rDock_2013.1_src/data/scripts/dock_solv.prm

>  <Rbt.Receptor>
prm/pocket_docking_7.prm

>  <SCORE>
-14.1594

>  <SCORE.INTER>
-13.7202

>  <SCORE.INTER.CONST>
1

>  <SCORE.INTER.POLAR>
0

>  <SCORE.INTER.ROT>
7

>  <SCORE.INTER.SOLV>
12.447

>  <SCORE.INTER.VDW>
-21.5625

>  <SCORE.INTER.norm>
-0.508156

>  <SCORE.INTRA>
-0.439215

>  <SCORE.INTRA.DIHEDRAL>
1.19568

>  <SCORE.INTRA.DIHEDRAL.0>
4.28829

>  <SCORE.INTRA.POLAR>
0

>  <SCORE.INTRA.POLAR.0>
0

>  <SCORE.INTRA.REPUL>
0

>  <SCORE.INTRA.REPUL.0>
0

>  <SCORE.INTRA.SOLV>
-0.783045

>  <SCORE.INTRA.SOLV.lig_0>
-48.6018

>  <SCORE.INTRA.VDW>
-0.645533

>  <SCORE.INTRA.VDW.0>
-2.1506

>  <SCORE.INTRA.norm>
-0.0162672

>  <SCORE.RESTR>
0

>  <SCORE.RESTR.CAVITY>
0

>  <SCORE.RESTR.norm>
0

>  <SCORE.SYSTEM>
0

>  <SCORE.SYSTEM.CONST>
0

>  <SCORE.SYSTEM.DIHEDRAL>
0

>  <SCORE.SYSTEM.SOLV>
0

>  <SCORE.SYSTEM.norm>
0

>  <SCORE.heavy>
27

>  <SCORE.norm>
-0.524423

>  <RMSD>
6.242

$$$$
ligand
 OpenBabel11021811483D
libRbt.so/2013.1/901 2013/11/27
 27 29  0  0  0  0  0  0  0  0999 V2000
   20.6341   -8.2789    7.9412 N   0  0  0  0  0  0  0  0  0  0  0  0
   19.3746   -8.7465    7.3589 C   0  0  2  0  0  0  0  0  0  0  0  0
   19.4624  -10.0300    6.5296 C   0  0  0  0  0  0  0  0  0  0  0  0
   20.0329  -11.0082    7.0105 O   0  0  0  0  0  0  0  0  0  0  0  0
   18.7007   -7.6416    6.5628 C   0  0  0  0  0  0  0  0  0  0  0  0
   17.2115   -7.8957    6.4046 C   0  0  0  0  0  0  0  0  0  0  0  0
   16.2613   -6.7923    7.4652 S   0  0  2  0  0  0  0  0  0  0  0  0
   14.6615   -7.6283    7.4334 C   0  0  0  0  0  0  0  0  0  0  0  0
   15.9185   -5.4418    6.3130 C   0  0  0  0  0  0  0  0  0  0  0  0
   15.6596   -4.1460    7.0593 C   0  0  1  0  0  0  0  0  0  0  0  0
   14.5910   -4.2997    7.9651 O   0  0  0  0  0  0  0  0  0  0  0  0
   16.8381   -3.7125    7.9089 C   0  0  1  0  0  0  0  0  0  0  0  0
   17.6346   -2.8388    7.1491 O   0  0  0  0  0  0  0  0  0  0  0  0
   16.1898   -2.9877    9.0709 C   0  0  1  0  0  0  0  0  0  0  0  0
   16.2836   -1.6053    8.8094 O   0  0  0  0  0  0  0  0  0  0  0  0
   14.7277   -3.4388    9.0819 C   0  0  2  0  0  0  0  0  0  0  0  0
   18.9905  -10.1285    5.3936 O   0  0  0  0  0  0  0  0  0  0  0  0
   12.1319   -7.5503   11.0248 N   0  0  0  0  0  0  0  0  0  0  0  0
   12.1301   -7.0867    9.7316 C   0  0  0  0  0  0  0  0  0  0  0  0
   12.8837   -5.9785    9.4125 N   0  0  0  0  0  0  0  0  0  0  0  0
   13.6249   -5.3439   10.3482 C   0  0  0  0  0  0  0  0  0  0  0  0
   13.6477   -5.8087   11.6551 C   0  0  0  0  0  0  0  0  0  0  0  0
   12.8827   -6.9222   11.9957 C   0  0  0  0  0  0  0  0  0  0  0  0
   12.8731   -7.3951   13.2423 N   0  0  0  0  0  0  0  0  0  0  0  0
   14.4698   -4.9995   12.3716 N   0  0  0  0  0  0  0  0  0  0  0  0
   14.9680   -4.0574   11.5380 C   0  0  0  0  0  0  0  0  0  0  0  0
   14.4599   -4.2610   10.2786 N   0  0  0  0  0  0  0  0  0  0  0  0
  2  1  1  6  0  0  0
  2  3  1  0  0  0  0
  2  5  1  0  0  0  0
  3  4  1  0  0  0  0
  3 17  1  0  0  0  0
  5  6  1  0  0  0  0
  7  6  1  6  0  0  0
  7  8  1  0  0  0  0
  7  9  1  0  0  0  0
 10  9  1  1  0  0  0
 10 11  1  0  0  0  0
 10 12  1  0  0  0  0
 11 16  1  0  0  0  0
 12 13  1  6  0  0  0
 12 14  1  0  0  0  0
 14 15  1  6  0  0  0
 14 16  1  0  0  0  0
 16 27  1  1  0  0  0
 18 19  2  0  0  0  0
 18 23  1  0  0  0  0
 19 20  1  0  0  0  0
 20 21  2  0  0  0  0
 21 22  1  0  0  0  0
 21 27  1  0  0  0  0
 22 23  2  0  0  0  0
 22 25  1  0  0  0  0
 23 24  1  0  0  0  0
 25 26  2  0  0  0  0
 26 27  1  0  0  0  0
M  END
>  <CHROM.1>
49.83429579,-158.24920614,106.07822001,-164.26859559,-155.74248041,-57.25104569
-30.33039762,15.91697606,-6.18587397,8.63851048,0.44172530,-0.71276014,3.01741774

>  <Name>
ligand

>  <RI>
0

>  <Rbt.Current_Directory>
/home/itssahil/PROJECTS/Mol_Feturizer/New_Systems/rnas/3GX5

>  <Rbt.Executable>
rbdock ($Id: //depot/dev/client3/rdock/2013.1/src/exe/rbdock.cxx#4 $)

>  <Rbt.Library>
libRbt.so (2013.1, Build901 2013/11/27)

>  <Rbt.Parameter_File>
/export/apps/rDock/src/rDock_2013.1_src/data/scripts/dock_solv.prm

>  <Rbt.Receptor>
prm/pocket_docking_7.prm

>  <SCORE>
-7.23477

>  <SCORE.INTER>
-10.9905

>  <SCORE.INTER.CONST>
1

>  <SCORE.INTER.POLAR>
0

>  <SCORE.INTER.ROT>
7

>  <SCORE.INTER.SOLV>
9.76037

>  <SCORE.INTER.VDW>
-18.8472

>  <SCORE.INTER.norm>
-0.407057

>  <SCORE.INTRA>
3.75577

>  <SCORE.INTRA.DIHEDRAL>
9.48318

>  <SCORE.INTRA.DIHEDRAL.0>
4.28829

>  <SCORE.INTRA.POLAR>
0

>  <SCORE.INTRA.POLAR.0>
0

>  <SCORE.INTRA.REPUL>
0

>  <SCORE.INTRA.REPUL.0>
0

>  <SCORE.INTRA.SOLV>
-1.00468

>  <SCORE.INTRA.SOLV.lig_0>
-48.6018

>  <SCORE.INTRA.VDW>
-0.483473

>  <SCORE.INTRA.VDW.0>
-2.1506

>  <SCORE.INTRA.norm>
0.139103

>  <SCORE.RESTR>
0

>  <SCORE.RESTR.CAVITY>
0

>  <SCORE.RESTR.norm>
0

>  <SCORE.SYSTEM>
0

>  <SCORE.SYSTEM.CONST>
0

>  <SCORE.SYSTEM.DIHEDRAL>
0

>  <SCORE.SYSTEM.SOLV>
0

>  <SCORE.SYSTEM.norm>
0

>  <SCORE.heavy>
27

>  <SCORE.norm>
-0.267955

>  <RMSD>
6.247

$$$$
ligand
 OpenBabel11021811483D
libRbt.so/2013.1/901 2013/11/27
 27 29  0  0  0  0  0  0  0  0999 V2000
   13.6248   -8.3408    4.0004 N   0  0  0  0  0  0  0  0  0  0  0  0
   14.4971   -7.6134    4.9245 C   0  0  2  0  0  0  0  0  0  0  0  0
   15.3149   -8.4789    5.8862 C   0  0  0  0  0  0  0  0  0  0  0  0
   16.5179   -8.2526    6.0098 O   0  0  0  0  0  0  0  0  0  0  0  0
   13.7179   -6.5563    5.6888 C   0  0  0  0  0  0  0  0  0  0  0  0
   14.6414   -5.5257    6.3152 C   0  0  0  0  0  0  0  0  0  0  0  0
   13.7161   -4.4056    7.3804 S   0  0  2  0  0  0  0  0  0  0  0  0
   12.6559   -3.6116    6.1538 C   0  0  0  0  0  0  0  0  0  0  0  0
   14.9367   -3.0933    7.6183 C   0  0  0  0  0  0  0  0  0  0  0  0
   15.8581   -3.4152    8.7804 C   0  0  1  0  0  0  0  0  0  0  0  0
   15.1235   -3.5410    9.9765 O   0  0  0  0  0  0  0  0  0  0  0  0
   16.5713   -4.7426    8.6136 C   0  0  1  0  0  0  0  0  0  0  0  0
   17.8144   -4.5041    8.0029 O   0  0  0  0  0  0  0  0  0  0  0  0
   16.7483   -5.2314   10.0369 C   0  0  1  0  0  0  0  0  0  0  0  0
   18.0721   -4.9357   10.4217 O   0  0  0  0  0  0  0  0  0  0  0  0
   15.7489   -4.4358   10.8794 C   0  0  2  0  0  0  0  0  0  0  0  0
   14.8232   -9.4011    6.5424 O   0  0  0  0  0  0  0  0  0  0  0  0
   12.1753   -8.0566    9.6395 N   0  0  0  0  0  0  0  0  0  0  0  0
   13.0683   -7.4324    8.8028 C   0  0  0  0  0  0  0  0  0  0  0  0
   13.9366   -6.4971    9.3216 N   0  0  0  0  0  0  0  0  0  0  0  0
   13.9257   -6.1870   10.6374 C   0  0  0  0  0  0  0  0  0  0  0  0
   13.0392   -6.8191   11.4971 C   0  0  0  0  0  0  0  0  0  0  0  0
   12.1478   -7.7599   10.9856 C   0  0  0  0  0  0  0  0  0  0  0  0
   11.2762   -8.3839   11.7785 N   0  0  0  0  0  0  0  0  0  0  0  0
   13.2485   -6.3297   12.7465 N   0  0  0  0  0  0  0  0  0  0  0  0
   14.2520   -5.4244   12.6836 C   0  0  0  0  0  0  0  0  0  0  0  0
   14.6877   -5.3293   11.3848 N   0  0  0  0  0  0  0  0  0  0  0  0
  2  1  1  1  0  0  0
  2  3  1  0  0  0  0
  2  5  1  0  0  0  0
  3  4  1  0  0  0  0
  3 17  1  0  0  0  0
  5  6  1  0  0  0  0
  7  6  1  6  0  0  0
  7  8  1  0  0  0  0
  7  9  1  0  0  0  0
 10  9  1  6  0  0  0
 10 11  1  0  0  0  0
 10 12  1  0  0  0  0
 11 16  1  0  0  0  0
 12 13  1  1  0  0  0
 12 14  1  0  0  0  0
 14 15  1  1  0  0  0
 14 16  1  0  0  0  0
 16 27  1  6  0  0  0
 18 19  2  0  0  0  0
 18 23  1  0  0  0  0
 19 20  1  0  0  0  0
 20 21  2  0  0  0  0
 21 22  1  0  0  0  0
 21 27  1  0  0  0  0
 22 23  2  0  0  0  0
 22 25  1  0  0  0  0
 23 24  1  0  0  0  0
 25 26  2  0  0  0  0
 26 27  1  0  0  0  0
M  END
>  <CHROM.1>
131.99733869,-162.44329114,-172.98690681,-64.26449240,-86.50015288,-60.48637974
61.77450494,14.54146125,-5.98610854,8.64209563,1.48083521,-0.84479735,-1.88265397

>  <Name>
ligand

>  <RI>
0

>  <Rbt.Current_Directory>
/home/itssahil/PROJECTS/Mol_Feturizer/New_Systems/rnas/3GX5

>  <Rbt.Executable>
rbdock ($Id: //depot/dev/client3/rdock/2013.1/src/exe/rbdock.cxx#4 $)

>  <Rbt.Library>
libRbt.so (2013.1, Build901 2013/11/27)

>  <Rbt.Parameter_File>
/export/apps/rDock/src/rDock_2013.1_src/data/scripts/dock_solv.prm

>  <Rbt.Receptor>
prm/pocket_docking_3.prm

>  <SCORE>
-13.5633

>  <SCORE.INTER>
-12.071

>  <SCORE.INTER.CONST>
1

>  <SCORE.INTER.POLAR>
0

>  <SCORE.INTER.ROT>
7

>  <SCORE.INTER.SOLV>
13.6286

>  <SCORE.INTER.VDW>
-20.8569

>  <SCORE.INTER.norm>
-0.447074

>  <SCORE.INTRA>
-1.4923

>  <SCORE.INTRA.DIHEDRAL>
1.23627

>  <SCORE.INTRA.DIHEDRAL.0>
4.28829

>  <SCORE.INTRA.POLAR>
0

>  <SCORE.INTRA.POLAR.0>
0

>  <SCORE.INTRA.REPUL>
0

>  <SCORE.INTRA.REPUL.0>
0

>  <SCORE.INTRA.SOLV>
-0.875163

>  <SCORE.INTRA.SOLV.lig_0>
-48.6018

>  <SCORE.INTRA.VDW>
-1.67285

>  <SCORE.INTRA.VDW.0>
-2.1506

>  <SCORE.INTRA.norm>
-0.0552702

>  <SCORE.RESTR>
0

>  <SCORE.RESTR.CAVITY>
0

>  <SCORE.RESTR.norm>
0

>  <SCORE.SYSTEM>
0

>  <SCORE.SYSTEM.CONST>
0

>  <SCORE.SYSTEM.DIHEDRAL>
0

>  <SCORE.SYSTEM.SOLV>
0

>  <SCORE.SYSTEM.norm>
0

>  <SCORE.heavy>
27

>  <SCORE.norm>
-0.502344

>  <RMSD>
6.250

$$$$
ligand
 OpenBabel11021811483D
libRbt.so/2013.1/901 2013/11/27
 27 29  0  0  0  0  0  0  0  0999 V2000
   17.8842   -8.6265    8.6867 N   0  0  0  0  0  0  0  0  0  0  0  0
   17.3781   -8.5219    7.3168 C   0  0  2  0  0  0  0  0  0  0  0  0
   18.2299   -9.1991    6.2405 C   0  0  0  0  0  0  0  0  0  0  0  0
   17.6868   -9.5667    5.1995 O   0  0  0  0  0  0  0  0  0  0  0  0
   17.1042   -7.0735    6.9479 C   0  0  0  0  0  0  0  0  0  0  0  0
   16.3217   -6.9660    5.6503 C   0  0  0  0  0  0  0  0  0  0  0  0
   14.7130   -7.7610    5.8092 S   0  0  2  0  0  0  0  0  0  0  0  0
   14.7383   -8.8145    4.3434 C   0  0  0  0  0  0  0  0  0  0  0  0
   13.6322   -6.4402    5.2125 C   0  0  0  0  0  0  0  0  0  0  0  0
   13.2527   -5.4996    6.3413 C   0  0  1  0  0  0  0  0  0  0  0  0
   12.5784   -6.1973    7.3634 O   0  0  0  0  0  0  0  0  0  0  0  0
   14.4586   -4.8773    7.0172 C   0  0  1  0  0  0  0  0  0  0  0  0
   14.7266   -3.6445    6.3981 O   0  0  0  0  0  0  0  0  0  0  0  0
   14.0008   -4.6803    8.4481 C   0  0  1  0  0  0  0  0  0  0  0  0
   13.6285   -3.3277    8.5882 O   0  0  0  0  0  0  0  0  0  0  0  0
   12.7891   -5.5971    8.6293 C   0  0  2  0  0  0  0  0  0  0  0  0
   19.4405   -9.3997    6.3706 O   0  0  0  0  0  0  0  0  0  0  0  0
   11.1842   -8.4251   12.7335 N   0  0  0  0  0  0  0  0  0  0  0  0
   10.5085   -7.4187   12.0873 C   0  0  0  0  0  0  0  0  0  0  0  0
   11.1038   -6.7865   11.0179 N   0  0  0  0  0  0  0  0  0  0  0  0
   12.3374   -7.1416   10.5939 C   0  0  0  0  0  0  0  0  0  0  0  0
   13.0264   -8.1655   11.2277 C   0  0  0  0  0  0  0  0  0  0  0  0
   12.4417   -8.8076   12.3173 C   0  0  0  0  0  0  0  0  0  0  0  0
   13.0748   -9.7915   12.9567 N   0  0  0  0  0  0  0  0  0  0  0  0
   14.2205   -8.3167   10.5989 N   0  0  0  0  0  0  0  0  0  0  0  0
   14.2800   -7.4246    9.5835 C   0  0  0  0  0  0  0  0  0  0  0  0
   13.1179   -6.6934    9.5621 N   0  0  0  0  0  0  0  0  0  0  0  0
  2  1  1  1  0  0  0
  2  3  1  0  0  0  0
  2  5  1  0  0  0  0
  3  4  1  0  0  0  0
  3 17  1  0  0  0  0
  5  6  1  0  0  0  0
  7  6  1  6  0  0  0
  7  8  1  0  0  0  0
  7  9  1  0  0  0  0
 10  9  1  6  0  0  0
 10 11  1  0  0  0  0
 10 12  1  0  0  0  0
 11 16  1  0  0  0  0
 12 13  1  6  0  0  0
 12 14  1  0  0  0  0
 14 15  1  6  0  0  0
 14 16  1  0  0  0  0
 16 27  1  1  0  0  0
 18 19  2  0  0  0  0
 18 23  1  0  0  0  0
 19 20  1  0  0  0  0
 20 21  2  0  0  0  0
 21 22  1  0  0  0  0
 21 27  1  0  0  0  0
 22 23  2  0  0  0  0
 22 25  1  0  0  0  0
 23 24  1  0  0  0  0
 25 26  2  0  0  0  0
 26 27  1  0  0  0  0
M  END
>  <CHROM.1>
154.70705838,-168.44351713,61.80239876,-129.32017988,-86.90330968,-59.72855655
-111.42277920,14.44155996,-7.22974748,8.19491843,-0.55991243,-0.69231072
2.27078213

>  <Name>
ligand

>  <RI>
0

>  <Rbt.Current_Directory>
/home/itssahil/PROJECTS/Mol_Feturizer/New_Systems/rnas/3GX5

>  <Rbt.Executable>
rbdock ($Id: //depot/dev/client3/rdock/2013.1/src/exe/rbdock.cxx#4 $)

>  <Rbt.Library>
libRbt.so (2013.1, Build901 2013/11/27)

>  <Rbt.Parameter_File>
/export/apps/rDock/src/rDock_2013.1_src/data/scripts/dock_solv.prm

>  <Rbt.Receptor>
prm/pocket_docking_5.prm

>  <SCORE>
-9.80359

>  <SCORE.INTER>
-10.7197

>  <SCORE.INTER.CONST>
1

>  <SCORE.INTER.POLAR>
0

>  <SCORE.INTER.ROT>
7

>  <SCORE.INTER.SOLV>
6.82793

>  <SCORE.INTER.VDW>
-17.6891

>  <SCORE.INTER.norm>
-0.397026

>  <SCORE.INTRA>
0.916107

>  <SCORE.INTRA.DIHEDRAL>
4.78992

>  <SCORE.INTRA.DIHEDRAL.0>
4.28829

>  <SCORE.INTRA.POLAR>
0

>  <SCORE.INTRA.POLAR.0>
0

>  <SCORE.INTRA.REPUL>
0

>  <SCORE.INTRA.REPUL.0>
0

>  <SCORE.INTRA.SOLV>
-0.578908

>  <SCORE.INTRA.SOLV.lig_0>
-48.6018

>  <SCORE.INTRA.VDW>
-1.1894

>  <SCORE.INTRA.VDW.0>
-2.1506

>  <SCORE.INTRA.norm>
0.0339299

>  <SCORE.RESTR>
0

>  <SCORE.RESTR.CAVITY>
0

>  <SCORE.RESTR.norm>
0

>  <SCORE.SYSTEM>
0

>  <SCORE.SYSTEM.CONST>
0

>  <SCORE.SYSTEM.DIHEDRAL>
0

>  <SCORE.SYSTEM.SOLV>
0

>  <SCORE.SYSTEM.norm>
0

>  <SCORE.heavy>
27

>  <SCORE.norm>
-0.363096

>  <RMSD>
6.253

$$$$
ligand
 OpenBabel11021811483D
libRbt.so/2013.1/901 2013/11/27
 27 29  0  0  0  0  0  0  0  0999 V2000
   13.9342   -7.1632   11.7580 N   0  0  0  0  0  0  0  0  0  0  0  0
   13.2127   -7.1095   10.4851 C   0  0  2  0  0  0  0  0  0  0  0  0
   12.7531   -8.4577    9.9248 C   0  0  0  0  0  0  0  0  0  0  0  0
   11.5468   -8.6747    9.8182 O   0  0  0  0  0  0  0  0  0  0  0  0
   14.0069   -6.3409    9.4423 C   0  0  0  0  0  0  0  0  0  0  0  0
   13.0991   -5.5228    8.5400 C   0  0  0  0  0  0  0  0  0  0  0  0
   14.0562   -4.6872    7.2630 S   0  0  2  0  0  0  0  0  0  0  0  0
   12.7234   -3.8829    6.3488 C   0  0  0  0  0  0  0  0  0  0  0  0
   14.3952   -6.0693    6.1478 C   0  0  0  0  0  0  0  0  0  0  0  0
   15.7094   -6.7408    6.5017 C   0  0  1  0  0  0  0  0  0  0  0  0
   15.8044   -8.0032    5.8826 O   0  0  0  0  0  0  0  0  0  0  0  0
   16.9157   -5.9669    6.0075 C   0  0  1  0  0  0  0  0  0  0  0  0
   17.3474   -5.1138    7.0374 O   0  0  0  0  0  0  0  0  0  0  0  0
   17.9407   -7.0476    5.7294 C   0  0  1  0  0  0  0  0  0  0  0  0
   18.8206   -7.0860    6.8304 O   0  0  0  0  0  0  0  0  0  0  0  0
   17.1517   -8.3542    5.6208 C   0  0  2  0  0  0  0  0  0  0  0  0
   13.5393   -9.3436    9.5785 O   0  0  0  0  0  0  0  0  0  0  0  0
   14.4537   -9.0621    1.1894 N   0  0  0  0  0  0  0  0  0  0  0  0
   14.0208   -8.4802    2.3561 C   0  0  0  0  0  0  0  0  0  0  0  0
   14.8867   -8.3863    3.4234 N   0  0  0  0  0  0  0  0  0  0  0  0
   16.1524   -8.8536    3.3402 C   0  0  0  0  0  0  0  0  0  0  0  0
   16.6083   -9.4312    2.1641 C   0  0  0  0  0  0  0  0  0  0  0  0
   15.7412   -9.5428    1.0792 C   0  0  0  0  0  0  0  0  0  0  0  0
   16.1399  -10.0976   -0.0658 N   0  0  0  0  0  0  0  0  0  0  0  0
   17.9014   -9.7998    2.3539 N   0  0  0  0  0  0  0  0  0  0  0  0
   18.2610   -9.4500    3.6105 C   0  0  0  0  0  0  0  0  0  0  0  0
   17.1908   -8.8560    4.2328 N   0  0  0  0  0  0  0  0  0  0  0  0
  2  1  1  1  0  0  0
  2  3  1  0  0  0  0
  2  5  1  0  0  0  0
  3  4  1  0  0  0  0
  3 17  1  0  0  0  0
  5  6  1  0  0  0  0
  7  6  1  1  0  0  0
  7  8  1  0  0  0  0
  7  9  1  0  0  0  0
 10  9  1  6  0  0  0
 10 11  1  0  0  0  0
 10 12  1  0  0  0  0
 11 16  1  0  0  0  0
 12 13  1  1  0  0  0
 12 14  1  0  0  0  0
 14 15  1  1  0  0  0
 14 16  1  0  0  0  0
 16 27  1  6  0  0  0
 18 19  2  0  0  0  0
 18 23  1  0  0  0  0
 19 20  1  0  0  0  0
 20 21  2  0  0  0  0
 21 22  1  0  0  0  0
 21 27  1  0  0  0  0
 22 23  2  0  0  0  0
 22 25  1  0  0  0  0
 23 24  1  0  0  0  0
 25 26  2  0  0  0  0
 26 27  1  0  0  0  0
M  END
>  <CHROM.1>
115.75405489,-143.61306618,-177.17348305,177.86002879,-91.52405832,164.55024511
5.87077874,15.26175153,-7.50276065,5.97074214,-1.97865694,-0.38861727,-2.06938120

>  <Name>
ligand

>  <RI>
0

>  <Rbt.Current_Directory>
/home/itssahil/PROJECTS/Mol_Feturizer/New_Systems/rnas/3GX5

>  <Rbt.Executable>
rbdock ($Id: //depot/dev/client3/rdock/2013.1/src/exe/rbdock.cxx#4 $)

>  <Rbt.Library>
libRbt.so (2013.1, Build901 2013/11/27)

>  <Rbt.Parameter_File>
/export/apps/rDock/src/rDock_2013.1_src/data/scripts/dock_solv.prm

>  <Rbt.Receptor>
prm/pocket_docking_8.prm

>  <SCORE>
-15.5856

>  <SCORE.INTER>
-16.5684

>  <SCORE.INTER.CONST>
1

>  <SCORE.INTER.POLAR>
0

>  <SCORE.INTER.ROT>
7

>  <SCORE.INTER.SOLV>
10.0049

>  <SCORE.INTER.VDW>
-22.6473

>  <SCORE.INTER.norm>
-0.613645

>  <SCORE.INTRA>
0.982816

>  <SCORE.INTRA.DIHEDRAL>
4.94962

>  <SCORE.INTRA.DIHEDRAL.0>
4.28829

>  <SCORE.INTRA.POLAR>
0

>  <SCORE.INTRA.POLAR.0>
0

>  <SCORE.INTRA.REPUL>
0

>  <SCORE.INTRA.REPUL.0>
0

>  <SCORE.INTRA.SOLV>
-1.00762

>  <SCORE.INTRA.SOLV.lig_0>
-48.6018

>  <SCORE.INTRA.VDW>
-0.988182

>  <SCORE.INTRA.VDW.0>
-2.1506

>  <SCORE.INTRA.norm>
0.0364006

>  <SCORE.RESTR>
0

>  <SCORE.RESTR.CAVITY>
0

>  <SCORE.RESTR.norm>
0

>  <SCORE.SYSTEM>
0

>  <SCORE.SYSTEM.CONST>
0

>  <SCORE.SYSTEM.DIHEDRAL>
0

>  <SCORE.SYSTEM.SOLV>
0

>  <SCORE.SYSTEM.norm>
0

>  <SCORE.heavy>
27

>  <SCORE.norm>
-0.577245

>  <RMSD>
6.254

$$$$
ligand
 OpenBabel11021811483D
libRbt.so/2013.1/901 2013/11/27
 27 29  0  0  0  0  0  0  0  0999 V2000
   15.9545   -8.8734    5.8347 N   0  0  0  0  0  0  0  0  0  0  0  0
   16.1136   -7.4300    5.6472 C   0  0  2  0  0  0  0  0  0  0  0  0
   17.5561   -6.9284    5.5456 C   0  0  0  0  0  0  0  0  0  0  0  0
   17.7546   -5.7537    5.2384 O   0  0  0  0  0  0  0  0  0  0  0  0
   15.3532   -6.6567    6.7115 C   0  0  0  0  0  0  0  0  0  0  0  0
   15.0887   -5.2246    6.2796 C   0  0  0  0  0  0  0  0  0  0  0  0
   14.5186   -4.2346    7.6724 S   0  0  2  0  0  0  0  0  0  0  0  0
   13.3419   -3.1561    6.8289 C   0  0  0  0  0  0  0  0  0  0  0  0
   15.9045   -3.0874    7.8506 C   0  0  0  0  0  0  0  0  0  0  0  0
   16.8741   -3.5705    8.9134 C   0  0  1  0  0  0  0  0  0  0  0  0
   16.2894   -3.4884   10.1931 O   0  0  0  0  0  0  0  0  0  0  0  0
   17.2510   -5.0292    8.7445 C   0  0  1  0  0  0  0  0  0  0  0  0
   18.4272   -5.0972    7.9784 O   0  0  0  0  0  0  0  0  0  0  0  0
   17.4973   -5.4986   10.1640 C   0  0  1  0  0  0  0  0  0  0  0  0
   18.8919   -5.4965   10.3717 O   0  0  0  0  0  0  0  0  0  0  0  0
   16.8135   -4.4711   11.0686 C   0  0  2  0  0  0  0  0  0  0  0  0
   18.5342   -7.6517    5.7530 O   0  0  0  0  0  0  0  0  0  0  0  0
   12.3271   -7.1030   10.4659 N   0  0  0  0  0  0  0  0  0  0  0  0
   13.2089   -6.7056    9.4904 C   0  0  0  0  0  0  0  0  0  0  0  0
   14.3449   -6.0146    9.8504 N   0  0  0  0  0  0  0  0  0  0  0  0
   14.6063   -5.7247   11.1448 C   0  0  0  0  0  0  0  0  0  0  0  0
   13.7322   -6.1315   12.1423 C   0  0  0  0  0  0  0  0  0  0  0  0
   12.5737   -6.8223   11.7930 C   0  0  0  0  0  0  0  0  0  0  0  0
   11.7060   -7.2242   12.7221 N   0  0  0  0  0  0  0  0  0  0  0  0
   14.2380   -5.7204   13.3337 N   0  0  0  0  0  0  0  0  0  0  0  0
   15.4094   -5.0852   13.0995 C   0  0  0  0  0  0  0  0  0  0  0  0
   15.6558   -5.0854   11.7486 N   0  0  0  0  0  0  0  0  0  0  0  0
  2  1  1  1  0  0  0
  2  3  1  0  0  0  0
  2  5  1  0  0  0  0
  3  4  1  0  0  0  0
  3 17  1  0  0  0  0
  5  6  1  0  0  0  0
  7  6  1  6  0  0  0
  7  8  1  0  0  0  0
  7  9  1  0  0  0  0
 10  9  1  6  0  0  0
 10 11  1  0  0  0  0
 10 12  1  0  0  0  0
 11 16  1  0  0  0  0
 12 13  1  6  0  0  0
 12 14  1  0  0  0  0
 14 15  1  1  0  0  0
 14 16  1  0  0  0  0
 16 27  1  6  0  0  0
 18 19  2  0  0  0  0
 18 23  1  0  0  0  0
 19 20  1  0  0  0  0
 20 21  2  0  0  0  0
 21 22  1  0  0  0  0
 21 27  1  0  0  0  0
 22 23  2  0  0  0  0
 22 25  1  0  0  0  0
 23 24  1  0  0  0  0
 25 26  2  0  0  0  0
 26 27  1  0  0  0  0
M  END
>  <CHROM.1>
171.91883840,-159.86636885,-167.60973021,-144.31178380,-96.20379833,-68.72516756
58.84370268,15.57723355,-5.58745180,8.98740117,1.01837650,-0.37787563,-1.84129372

>  <Name>
ligand

>  <RI>
0

>  <Rbt.Current_Directory>
/home/itssahil/PROJECTS/Mol_Feturizer/New_Systems/rnas/3GX5

>  <Rbt.Executable>
rbdock ($Id: //depot/dev/client3/rdock/2013.1/src/exe/rbdock.cxx#4 $)

>  <Rbt.Library>
libRbt.so (2013.1, Build901 2013/11/27)

>  <Rbt.Parameter_File>
/export/apps/rDock/src/rDock_2013.1_src/data/scripts/dock_solv.prm

>  <Rbt.Receptor>
prm/pocket_docking_6.prm

>  <SCORE>
-12.7571

>  <SCORE.INTER>
-13.5215

>  <SCORE.INTER.CONST>
1

>  <SCORE.INTER.POLAR>
0

>  <SCORE.INTER.ROT>
7

>  <SCORE.INTER.SOLV>
12.5066

>  <SCORE.INTER.VDW>
-21.4499

>  <SCORE.INTER.norm>
-0.500797

>  <SCORE.INTRA>
0.763865

>  <SCORE.INTRA.DIHEDRAL>
6.7267

>  <SCORE.INTRA.DIHEDRAL.0>
4.28829

>  <SCORE.INTRA.POLAR>
0

>  <SCORE.INTRA.POLAR.0>
0

>  <SCORE.INTRA.REPUL>
0

>  <SCORE.INTRA.REPUL.0>
0

>  <SCORE.INTRA.SOLV>
-0.397902

>  <SCORE.INTRA.SOLV.lig_0>
-48.6018

>  <SCORE.INTRA.VDW>
-2.40053

>  <SCORE.INTRA.VDW.0>
-2.1506

>  <SCORE.INTRA.norm>
0.0282913

>  <SCORE.RESTR>
0.000543913

>  <SCORE.RESTR.CAVITY>
0.000543913

>  <SCORE.RESTR.norm>
2.01449e-05

>  <SCORE.SYSTEM>
0

>  <SCORE.SYSTEM.CONST>
0

>  <SCORE.SYSTEM.DIHEDRAL>
0

>  <SCORE.SYSTEM.SOLV>
0

>  <SCORE.SYSTEM.norm>
0

>  <SCORE.heavy>
27

>  <SCORE.norm>
-0.472486

>  <RMSD>
6.265

$$$$
ligand
 OpenBabel11021811483D
libRbt.so/2013.1/901 2013/11/27
 27 29  0  0  0  0  0  0  0  0999 V2000
   12.4236   -8.2933   10.0359 N   0  0  0  0  0  0  0  0  0  0  0  0
   13.5088   -8.0992    9.0723 C   0  0  2  0  0  0  0  0  0  0  0  0
   14.6341   -9.1356    9.1216 C   0  0  0  0  0  0  0  0  0  0  0  0
   15.0889   -9.5671    8.0630 O   0  0  0  0  0  0  0  0  0  0  0  0
   14.0744   -6.6921    9.1670 C   0  0  0  0  0  0  0  0  0  0  0  0
   13.1255   -5.6673    8.5697 C   0  0  0  0  0  0  0  0  0  0  0  0
   13.8322   -4.9361    7.0827 S   0  0  2  0  0  0  0  0  0  0  0  0
   12.5922   -3.6705    6.7365 C   0  0  0  0  0  0  0  0  0  0  0  0
   13.3557   -6.1699    5.8501 C   0  0  0  0  0  0  0  0  0  0  0  0
   14.2545   -7.3901    5.9299 C   0  0  1  0  0  0  0  0  0  0  0  0
   13.9389   -8.3069    4.9071 O   0  0  0  0  0  0  0  0  0  0  0  0
   15.7184   -7.0552    5.7221 C   0  0  1  0  0  0  0  0  0  0  0  0
   16.3055   -6.8348    6.9798 O   0  0  0  0  0  0  0  0  0  0  0  0
   16.2786   -8.3032    5.0704 C   0  0  1  0  0  0  0  0  0  0  0  0
   16.9252   -9.0493    6.0770 O   0  0  0  0  0  0  0  0  0  0  0  0
   15.0711   -9.0663    4.5218 C   0  0  2  0  0  0  0  0  0  0  0  0
   15.1051   -9.5648   10.1783 O   0  0  0  0  0  0  0  0  0  0  0  0
   17.9974   -9.7386    0.2319 N   0  0  0  0  0  0  0  0  0  0  0  0
   18.3815   -9.8731    1.5439 C   0  0  0  0  0  0  0  0  0  0  0  0
   17.4585   -9.6506    2.5421 N   0  0  0  0  0  0  0  0  0  0  0  0
   16.1839   -9.3059    2.2517 C   0  0  0  0  0  0  0  0  0  0  0  0
   15.7776   -9.1798    0.9312 C   0  0  0  0  0  0  0  0  0  0  0  0
   16.7023   -9.3915   -0.0894 C   0  0  0  0  0  0  0  0  0  0  0  0
   16.3519   -9.2735   -1.3704 N   0  0  0  0  0  0  0  0  0  0  0  0
   14.4633   -8.8382    0.9297 N   0  0  0  0  0  0  0  0  0  0  0  0
   14.0433   -8.7662    2.2138 C   0  0  0  0  0  0  0  0  0  0  0  0
   15.0957   -9.0603    3.0455 N   0  0  0  0  0  0  0  0  0  0  0  0
  2  1  1  1  0  0  0
  2  3  1  0  0  0  0
  2  5  1  0  0  0  0
  3  4  1  0  0  0  0
  3 17  1  0  0  0  0
  5  6  1  0  0  0  0
  7  6  1  1  0  0  0
  7  8  1  0  0  0  0
  7  9  1  0  0  0  0
 10  9  1  6  0  0  0
 10 11  1  0  0  0  0
 10 12  1  0  0  0  0
 11 16  1  0  0  0  0
 12 13  1  1  0  0  0
 12 14  1  0  0  0  0
 14 15  1  1  0  0  0
 14 16  1  0  0  0  0
 16 27  1  6  0  0  0
 18 19  2  0  0  0  0
 18 23  1  0  0  0  0
 19 20  1  0  0  0  0
 20 21  2  0  0  0  0
 21 22  1  0  0  0  0
 21 27  1  0  0  0  0
 22 23  2  0  0  0  0
 22 25  1  0  0  0  0
 23 24  1  0  0  0  0
 25 26  2  0  0  0  0
 26 27  1  0  0  0  0
M  END
>  <CHROM.1>
137.78193431,-73.52719614,-113.04447726,-173.93430870,-77.26534285,-175.88796199
158.97048120,15.05498457,-7.99976132,5.22809774,-2.18053816,0.98106720,-1.34983830

>  <Name>
ligand

>  <RI>
0

>  <Rbt.Current_Directory>
/home/itssahil/PROJECTS/Mol_Feturizer/New_Systems/rnas/3GX5

>  <Rbt.Executable>
rbdock ($Id: //depot/dev/client3/rdock/2013.1/src/exe/rbdock.cxx#4 $)

>  <Rbt.Library>
libRbt.so (2013.1, Build901 2013/11/27)

>  <Rbt.Parameter_File>
/export/apps/rDock/src/rDock_2013.1_src/data/scripts/dock_solv.prm

>  <Rbt.Receptor>
prm/pocket_docking_8.prm

>  <SCORE>
-15.8028

>  <SCORE.INTER>
-16.848

>  <SCORE.INTER.CONST>
1

>  <SCORE.INTER.POLAR>
0

>  <SCORE.INTER.ROT>
7

>  <SCORE.INTER.SOLV>
6.99353

>  <SCORE.INTER.VDW>
-21.8298

>  <SCORE.INTER.norm>
-0.624

>  <SCORE.INTRA>
1.04523

>  <SCORE.INTRA.DIHEDRAL>
6.17057

>  <SCORE.INTRA.DIHEDRAL.0>
4.28829

>  <SCORE.INTRA.POLAR>
0

>  <SCORE.INTRA.POLAR.0>
0

>  <SCORE.INTRA.REPUL>
0

>  <SCORE.INTRA.REPUL.0>
0

>  <SCORE.INTRA.SOLV>
0.329877

>  <SCORE.INTRA.SOLV.lig_0>
-48.6018

>  <SCORE.INTRA.VDW>
-2.20499

>  <SCORE.INTRA.VDW.0>
-2.1506

>  <SCORE.INTRA.norm>
0.0387123

>  <SCORE.RESTR>
0

>  <SCORE.RESTR.CAVITY>
0

>  <SCORE.RESTR.norm>
0

>  <SCORE.SYSTEM>
0

>  <SCORE.SYSTEM.CONST>
0

>  <SCORE.SYSTEM.DIHEDRAL>
0

>  <SCORE.SYSTEM.SOLV>
0

>  <SCORE.SYSTEM.norm>
0

>  <SCORE.heavy>
27

>  <SCORE.norm>
-0.585288

>  <RMSD>
6.297

$$$$
ligand
 OpenBabel11021811483D
libRbt.so/2013.1/901 2013/11/27
 27 29  0  0  0  0  0  0  0  0999 V2000
   13.9821   -7.5211    3.8769 N   0  0  0  0  0  0  0  0  0  0  0  0
   14.4499   -7.9146    5.2073 C   0  0  2  0  0  0  0  0  0  0  0  0
   14.1746   -9.3666    5.6057 C   0  0  0  0  0  0  0  0  0  0  0  0
   14.7710  -10.2662    5.0151 O   0  0  0  0  0  0  0  0  0  0  0  0
   13.9293   -6.9616    6.2702 C   0  0  0  0  0  0  0  0  0  0  0  0
   14.6258   -5.6134    6.2011 C   0  0  0  0  0  0  0  0  0  0  0  0
   13.9181   -4.4692    7.3992 S   0  0  2  0  0  0  0  0  0  0  0  0
   12.7293   -3.6099    6.3469 C   0  0  0  0  0  0  0  0  0  0  0  0
   15.2202   -3.2168    7.4678 C   0  0  0  0  0  0  0  0  0  0  0  0
   16.2641   -3.5776    8.5086 C   0  0  1  0  0  0  0  0  0  0  0  0
   15.7308   -3.4606    9.8079 O   0  0  0  0  0  0  0  0  0  0  0  0
   16.7279   -5.0168    8.4003 C   0  0  1  0  0  0  0  0  0  0  0  0
   17.8721   -5.0536    7.5850 O   0  0  0  0  0  0  0  0  0  0  0  0
   17.0653   -5.3893    9.8298 C   0  0  1  0  0  0  0  0  0  0  0  0
   18.4643   -5.2878    9.9720 O   0  0  0  0  0  0  0  0  0  0  0  0
   16.3553   -4.3577   10.7092 C   0  0  2  0  0  0  0  0  0  0  0  0
   13.3746   -9.6792    6.4917 O   0  0  0  0  0  0  0  0  0  0  0  0
   11.9912   -7.2397   10.4515 N   0  0  0  0  0  0  0  0  0  0  0  0
   12.7967   -6.8352    9.4148 C   0  0  0  0  0  0  0  0  0  0  0  0
   13.9115   -6.0728    9.6862 N   0  0  0  0  0  0  0  0  0  0  0  0
   14.2260   -5.7201   10.9528 C   0  0  0  0  0  0  0  0  0  0  0  0
   13.4300   -6.1329   12.0113 C   0  0  0  0  0  0  0  0  0  0  0  0
   12.2933   -6.8957   11.7520 C   0  0  0  0  0  0  0  0  0  0  0  0
   11.4996   -7.3059   12.7416 N   0  0  0  0  0  0  0  0  0  0  0  0
   13.9762   -5.6505   13.1573 N   0  0  0  0  0  0  0  0  0  0  0  0
   15.0974   -4.9649   12.8357 C   0  0  0  0  0  0  0  0  0  0  0  0
   15.2705   -5.0044   11.4740 N   0  0  0  0  0  0  0  0  0  0  0  0
  2  1  1  6  0  0  0
  2  3  1  0  0  0  0
  2  5  1  0  0  0  0
  3  4  1  0  0  0  0
  3 17  1  0  0  0  0
  5  6  1  0  0  0  0
  7  6  1  6  0  0  0
  7  8  1  0  0  0  0
  7  9  1  0  0  0  0
 10  9  1  6  0  0  0
 10 11  1  0  0  0  0
 10 12  1  0  0  0  0
 11 16  1  0  0  0  0
 12 13  1  6  0  0  0
 12 14  1  0  0  0  0
 14 15  1  6  0  0  0
 14 16  1  0  0  0  0
 16 27  1  1  0  0  0
 18 19  2  0  0  0  0
 18 23  1  0  0  0  0
 19 20  1  0  0  0  0
 20 21  2  0  0  0  0
 21 22  1  0  0  0  0
 21 27  1  0  0  0  0
 22 23  2  0  0  0  0
 22 25  1  0  0  0  0
 23 24  1  0  0  0  0
 25 26  2  0  0  0  0
 26 27  1  0  0  0  0
M  END
>  <CHROM.1>
68.15903754,-72.24290343,176.34609822,-95.34369551,-88.12076734,-69.53292729
57.51311486,14.60710804,-5.95234847,8.71208799,-1.66131487,0.78533525,1.23458717

>  <Name>
ligand

>  <RI>
0

>  <Rbt.Current_Directory>
/home/itssahil/PROJECTS/Mol_Feturizer/New_Systems/rnas/3GX5

>  <Rbt.Executable>
rbdock ($Id: //depot/dev/client3/rdock/2013.1/src/exe/rbdock.cxx#4 $)

>  <Rbt.Library>
libRbt.so (2013.1, Build901 2013/11/27)

>  <Rbt.Parameter_File>
/export/apps/rDock/src/rDock_2013.1_src/data/scripts/dock_solv.prm

>  <Rbt.Receptor>
prm/pocket_docking_7.prm

>  <SCORE>
-13.541

>  <SCORE.INTER>
-13.8645

>  <SCORE.INTER.CONST>
1

>  <SCORE.INTER.POLAR>
0

>  <SCORE.INTER.ROT>
7

>  <SCORE.INTER.SOLV>
14.8579

>  <SCORE.INTER.VDW>
-22.4623

>  <SCORE.INTER.norm>
-0.513499

>  <SCORE.INTRA>
0.323413

>  <SCORE.INTRA.DIHEDRAL>
2.81968

>  <SCORE.INTRA.DIHEDRAL.0>
4.28829

>  <SCORE.INTRA.POLAR>
0

>  <SCORE.INTRA.POLAR.0>
0

>  <SCORE.INTRA.REPUL>
0

>  <SCORE.INTRA.REPUL.0>
0

>  <SCORE.INTRA.SOLV>
-0.240474

>  <SCORE.INTRA.SOLV.lig_0>
-48.6018

>  <SCORE.INTRA.VDW>
-0.966187

>  <SCORE.INTRA.VDW.0>
-2.1506

>  <SCORE.INTRA.norm>
0.0119783

>  <SCORE.RESTR>
0

>  <SCORE.RESTR.CAVITY>
0

>  <SCORE.RESTR.norm>
0

>  <SCORE.SYSTEM>
0

>  <SCORE.SYSTEM.CONST>
0

>  <SCORE.SYSTEM.DIHEDRAL>
0

>  <SCORE.SYSTEM.SOLV>
0

>  <SCORE.SYSTEM.norm>
0

>  <SCORE.heavy>
27

>  <SCORE.norm>
-0.50152

>  <RMSD>
6.315

$$$$
ligand
 OpenBabel11021811483D
libRbt.so/2013.1/901 2013/11/27
 27 29  0  0  0  0  0  0  0  0999 V2000
   13.9909   -9.3865    9.6345 N   0  0  0  0  0  0  0  0  0  0  0  0
   14.3483   -8.3723    8.6408 C   0  0  2  0  0  0  0  0  0  0  0  0
   15.8466   -8.1912    8.3858 C   0  0  0  0  0  0  0  0  0  0  0  0
   16.2338   -8.0121    7.2318 O   0  0  0  0  0  0  0  0  0  0  0  0
   13.6973   -7.0386    8.9672 C   0  0  0  0  0  0  0  0  0  0  0  0
   13.8947   -6.0317    7.8471 C   0  0  0  0  0  0  0  0  0  0  0  0
   13.2954   -4.4059    8.3397 S   0  0  2  0  0  0  0  0  0  0  0  0
   12.5483   -3.8643    6.7880 C   0  0  0  0  0  0  0  0  0  0  0  0
   14.8327   -3.4562    8.2816 C   0  0  0  0  0  0  0  0  0  0  0  0
   15.6553   -3.6802    9.5371 C   0  0  1  0  0  0  0  0  0  0  0  0
   14.8229   -3.7329   10.6731 O   0  0  0  0  0  0  0  0  0  0  0  0
   16.3935   -5.0043    9.5267 C   0  0  1  0  0  0  0  0  0  0  0  0
   17.6815   -4.7897    9.0071 O   0  0  0  0  0  0  0  0  0  0  0  0
   16.4537   -5.3883   10.9913 C   0  0  1  0  0  0  0  0  0  0  0  0
   17.7369   -5.0448   11.4637 O   0  0  0  0  0  0  0  0  0  0  0  0
   15.3783   -4.5513   11.6874 C   0  0  2  0  0  0  0  0  0  0  0  0
   16.6891   -8.2220    9.2869 O   0  0  0  0  0  0  0  0  0  0  0  0
   13.6837   -7.6559   15.5485 N   0  0  0  0  0  0  0  0  0  0  0  0
   14.8543   -6.9389   15.4955 C   0  0  0  0  0  0  0  0  0  0  0  0
   15.1256   -6.1738   14.3825 N   0  0  0  0  0  0  0  0  0  0  0  0
   14.2595   -6.1152   13.3462 C   0  0  0  0  0  0  0  0  0  0  0  0
   13.0670   -6.8227   13.3912 C   0  0  0  0  0  0  0  0  0  0  0  0
   12.7830   -7.6092   14.5057 C   0  0  0  0  0  0  0  0  0  0  0  0
   11.6507   -8.3088   14.5834 N   0  0  0  0  0  0  0  0  0  0  0  0
   12.3932   -6.5789   12.2376 N   0  0  0  0  0  0  0  0  0  0  0  0
   13.1306   -5.7267   11.4889 C   0  0  0  0  0  0  0  0  0  0  0  0
   14.2870   -5.4238   12.1647 N   0  0  0  0  0  0  0  0  0  0  0  0
  2  1  1  1  0  0  0
  2  3  1  0  0  0  0
  2  5  1  0  0  0  0
  3  4  1  0  0  0  0
  3 17  1  0  0  0  0
  5  6  1  0  0  0  0
  7  6  1  6  0  0  0
  7  8  1  0  0  0  0
  7  9  1  0  0  0  0
 10  9  1  6  0  0  0
 10 11  1  0  0  0  0
 10 12  1  0  0  0  0
 11 16  1  0  0  0  0
 12 13  1  1  0  0  0
 12 14  1  0  0  0  0
 14 15  1  1  0  0  0
 14 16  1  0  0  0  0
 16 27  1  6  0  0  0
 18 19  2  0  0  0  0
 18 23  1  0  0  0  0
 19 20  1  0  0  0  0
 20 21  2  0  0  0  0
 21 22  1  0  0  0  0
 21 27  1  0  0  0  0
 22 23  2  0  0  0  0
 22 25  1  0  0  0  0
 23 24  1  0  0  0  0
 25 26  2  0  0  0  0
 26 27  1  0  0  0  0
M  END
>  <CHROM.1>
140.03968915,-171.92122451,-172.99916616,-141.15722666,-80.45323069,-39.61756919
-161.75907436,14.61071505,-6.06194333,10.65749089,2.06536867,1.09977472,1.39525950

>  <Name>
ligand

>  <RI>
0

>  <Rbt.Current_Directory>
/home/itssahil/PROJECTS/Mol_Feturizer/New_Systems/rnas/3GX5

>  <Rbt.Executable>
rbdock ($Id: //depot/dev/client3/rdock/2013.1/src/exe/rbdock.cxx#4 $)

>  <Rbt.Library>
libRbt.so (2013.1, Build901 2013/11/27)

>  <Rbt.Parameter_File>
/export/apps/rDock/src/rDock_2013.1_src/data/scripts/dock_solv.prm

>  <Rbt.Receptor>
prm/pocket_docking_6.prm

>  <SCORE>
-10.7495

>  <SCORE.INTER>
-10.8065

>  <SCORE.INTER.CONST>
1

>  <SCORE.INTER.POLAR>
0

>  <SCORE.INTER.ROT>
7

>  <SCORE.INTER.SOLV>
9.06375

>  <SCORE.INTER.VDW>
-18.4922

>  <SCORE.INTER.norm>
-0.400239

>  <SCORE.INTRA>
0.0569505

>  <SCORE.INTRA.DIHEDRAL>
5.1024

>  <SCORE.INTRA.DIHEDRAL.0>
4.28829

>  <SCORE.INTRA.POLAR>
0

>  <SCORE.INTRA.POLAR.0>
0

>  <SCORE.INTRA.REPUL>
0

>  <SCORE.INTRA.REPUL.0>
0

>  <SCORE.INTRA.SOLV>
-0.808181

>  <SCORE.INTRA.SOLV.lig_0>
-48.6018

>  <SCORE.INTRA.VDW>
-2.09016

>  <SCORE.INTRA.VDW.0>
-2.1506

>  <SCORE.INTRA.norm>
0.00210928

>  <SCORE.RESTR>
0

>  <SCORE.RESTR.CAVITY>
0

>  <SCORE.RESTR.norm>
0

>  <SCORE.SYSTEM>
0

>  <SCORE.SYSTEM.CONST>
0

>  <SCORE.SYSTEM.DIHEDRAL>
0

>  <SCORE.SYSTEM.SOLV>
0

>  <SCORE.SYSTEM.norm>
0

>  <SCORE.heavy>
27

>  <SCORE.norm>
-0.39813

>  <RMSD>
6.343

$$$$
ligand
 OpenBabel11021811483D
libRbt.so/2013.1/901 2013/11/27
 27 29  0  0  0  0  0  0  0  0999 V2000
   14.9501   -8.8011    6.9898 N   0  0  0  0  0  0  0  0  0  0  0  0
   14.3796   -7.4890    6.6789 C   0  0  2  0  0  0  0  0  0  0  0  0
   13.3570   -7.4623    5.5402 C   0  0  0  0  0  0  0  0  0  0  0  0
   12.3224   -6.8133    5.6881 O   0  0  0  0  0  0  0  0  0  0  0  0
   15.4746   -6.4637    6.4371 C   0  0  0  0  0  0  0  0  0  0  0  0
   14.8985   -5.0851    6.1635 C   0  0  0  0  0  0  0  0  0  0  0  0
   13.9900   -4.4790    7.5961 S   0  0  2  0  0  0  0  0  0  0  0  0
   12.6243   -3.6376    6.7678 C   0  0  0  0  0  0  0  0  0  0  0  0
   14.9985   -3.0470    8.0444 C   0  0  0  0  0  0  0  0  0  0  0  0
   16.0357   -3.4205    9.0874 C   0  0  1  0  0  0  0  0  0  0  0  0
   15.4586   -3.4512   10.3728 O   0  0  0  0  0  0  0  0  0  0  0  0
   16.6057   -4.8095    8.8772 C   0  0  1  0  0  0  0  0  0  0  0  0
   17.7722   -4.6972    8.1016 O   0  0  0  0  0  0  0  0  0  0  0  0
   16.9283   -5.2768   10.2821 C   0  0  1  0  0  0  0  0  0  0  0  0
   18.3117   -5.0901   10.4802 O   0  0  0  0  0  0  0  0  0  0  0  0
   16.1206   -4.3753   11.2183 C   0  0  2  0  0  0  0  0  0  0  0  0
   13.5199   -8.0685    4.4778 O   0  0  0  0  0  0  0  0  0  0  0  0
   11.7057   -7.1223   10.6010 N   0  0  0  0  0  0  0  0  0  0  0  0
   12.4663   -6.5194    9.6288 C   0  0  0  0  0  0  0  0  0  0  0  0
   13.6044   -5.8339    9.9928 N   0  0  0  0  0  0  0  0  0  0  0  0
   13.9850   -5.7479   11.2872 C   0  0  0  0  0  0  0  0  0  0  0  0
   13.2347   -6.3633   12.2786 C   0  0  0  0  0  0  0  0  0  0  0  0
   12.0754   -7.0516   11.9274 C   0  0  0  0  0  0  0  0  0  0  0  0
   11.3242   -7.6505   12.8519 N   0  0  0  0  0  0  0  0  0  0  0  0
   13.8429   -6.1270   13.4696 N   0  0  0  0  0  0  0  0  0  0  0  0
   14.9576   -5.3960   13.2378 C   0  0  0  0  0  0  0  0  0  0  0  0
   15.0642   -5.1586   11.8896 N   0  0  0  0  0  0  0  0  0  0  0  0
  2  1  1  6  0  0  0
  2  3  1  0  0  0  0
  2  5  1  0  0  0  0
  3  4  1  0  0  0  0
  3 17  1  0  0  0  0
  5  6  1  0  0  0  0
  7  6  1  6  0  0  0
  7  8  1  0  0  0  0
  7  9  1  0  0  0  0
 10  9  1  6  0  0  0
 10 11  1  0  0  0  0
 10 12  1  0  0  0  0
 11 16  1  0  0  0  0
 12 13  1  6  0  0  0
 12 14  1  0  0  0  0
 14 15  1  1  0  0  0
 14 16  1  0  0  0  0
 16 27  1  6  0  0  0
 18 19  2  0  0  0  0
 18 23  1  0  0  0  0
 19 20  1  0  0  0  0
 20 21  2  0  0  0  0
 21 22  1  0  0  0  0
 21 27  1  0  0  0  0
 22 23  2  0  0  0  0
 22 25  1  0  0  0  0
 23 24  1  0  0  0  0
 25 26  2  0  0  0  0
 26 27  1  0  0  0  0
M  END
>  <CHROM.1>
135.78706261,-177.90446891,63.14975234,-142.53539513,-93.37316334,-80.43581290
47.93962216,14.45922337,-5.67692936,9.09534942,1.62510993,-0.60168518,-1.66133873

>  <Name>
ligand

>  <RI>
0

>  <Rbt.Current_Directory>
/home/itssahil/PROJECTS/Mol_Feturizer/New_Systems/rnas/3GX5

>  <Rbt.Executable>
rbdock ($Id: //depot/dev/client3/rdock/2013.1/src/exe/rbdock.cxx#4 $)

>  <Rbt.Library>
libRbt.so (2013.1, Build901 2013/11/27)

>  <Rbt.Parameter_File>
/export/apps/rDock/src/rDock_2013.1_src/data/scripts/dock_solv.prm

>  <Rbt.Receptor>
prm/pocket_docking_6.prm

>  <SCORE>
-12.8872

>  <SCORE.INTER>
-14.1955

>  <SCORE.INTER.CONST>
1

>  <SCORE.INTER.POLAR>
0

>  <SCORE.INTER.ROT>
7

>  <SCORE.INTER.SOLV>
10.9964

>  <SCORE.INTER.VDW>
-21.3958

>  <SCORE.INTER.norm>
-0.525761

>  <SCORE.INTRA>
1.3083

>  <SCORE.INTRA.DIHEDRAL>
5.88722

>  <SCORE.INTRA.DIHEDRAL.0>
4.28829

>  <SCORE.INTRA.POLAR>
0

>  <SCORE.INTRA.POLAR.0>
0

>  <SCORE.INTRA.REPUL>
0

>  <SCORE.INTRA.REPUL.0>
0

>  <SCORE.INTRA.SOLV>
-0.419127

>  <SCORE.INTRA.SOLV.lig_0>
-48.6018

>  <SCORE.INTRA.VDW>
-1.42575

>  <SCORE.INTRA.VDW.0>
-2.1506

>  <SCORE.INTRA.norm>
0.0484555

>  <SCORE.RESTR>
0

>  <SCORE.RESTR.CAVITY>
0

>  <SCORE.RESTR.norm>
0

>  <SCORE.SYSTEM>
0

>  <SCORE.SYSTEM.CONST>
0

>  <SCORE.SYSTEM.DIHEDRAL>
0

>  <SCORE.SYSTEM.SOLV>
0

>  <SCORE.SYSTEM.norm>
0

>  <SCORE.heavy>
27

>  <SCORE.norm>
-0.477305

>  <RMSD>
6.347

$$$$
ligand
 OpenBabel11021811483D
libRbt.so/2013.1/901 2013/11/27
 27 29  0  0  0  0  0  0  0  0999 V2000
   19.6624   -9.3642    4.9427 N   0  0  0  0  0  0  0  0  0  0  0  0
   18.4300   -8.6097    4.7066 C   0  0  2  0  0  0  0  0  0  0  0  0
   18.0570   -7.5919    5.7872 C   0  0  0  0  0  0  0  0  0  0  0  0
   17.7091   -6.4630    5.4430 O   0  0  0  0  0  0  0  0  0  0  0  0
   17.2650   -9.5449    4.4291 C   0  0  0  0  0  0  0  0  0  0  0  0
   16.0116   -8.7772    4.0457 C   0  0  0  0  0  0  0  0  0  0  0  0
   15.1676   -8.1623    5.5137 S   0  0  2  0  0  0  0  0  0  0  0  0
   14.1675   -9.6071    5.9279 C   0  0  0  0  0  0  0  0  0  0  0  0
   13.8974   -7.1245    4.7533 C   0  0  0  0  0  0  0  0  0  0  0  0
   13.2677   -6.2003    5.7792 C   0  0  1  0  0  0  0  0  0  0  0  0
   12.5945   -6.9432    6.7697 O   0  0  0  0  0  0  0  0  0  0  0  0
   14.2922   -5.3751    6.5327 C   0  0  1  0  0  0  0  0  0  0  0  0
   14.4457   -4.1457    5.8693 O   0  0  0  0  0  0  0  0  0  0  0  0
   13.6597   -5.1833    7.8962 C   0  0  1  0  0  0  0  0  0  0  0  0
   13.0844   -3.8962    7.9157 O   0  0  0  0  0  0  0  0  0  0  0  0
   12.5796   -6.2611    8.0113 C   0  0  2  0  0  0  0  0  0  0  0  0
   18.0942   -7.8497    6.9933 O   0  0  0  0  0  0  0  0  0  0  0  0
   11.4551   -8.2917   12.7049 N   0  0  0  0  0  0  0  0  0  0  0  0
   10.7764   -7.3081   12.0274 C   0  0  0  0  0  0  0  0  0  0  0  0
   11.2329   -6.9032   10.7923 N   0  0  0  0  0  0  0  0  0  0  0  0
   12.3331   -7.4589   10.2370 C   0  0  0  0  0  0  0  0  0  0  0  0
   13.0209   -8.4630   10.9029 C   0  0  0  0  0  0  0  0  0  0  0  0
   12.5774   -8.8761   12.1575 C   0  0  0  0  0  0  0  0  0  0  0  0
   13.2152   -9.8334   12.8316 N   0  0  0  0  0  0  0  0  0  0  0  0
   14.0661   -8.8412   10.1227 N   0  0  0  0  0  0  0  0  0  0  0  0
   14.0320   -8.1088    8.9856 C   0  0  0  0  0  0  0  0  0  0  0  0
   12.9600   -7.2523    9.0373 N   0  0  0  0  0  0  0  0  0  0  0  0
  2  1  1  1  0  0  0
  2  3  1  0  0  0  0
  2  5  1  0  0  0  0
  3  4  1  0  0  0  0
  3 17  1  0  0  0  0
  5  6  1  0  0  0  0
  7  6  1  6  0  0  0
  7  8  1  0  0  0  0
  7  9  1  0  0  0  0
 10  9  1  6  0  0  0
 10 11  1  0  0  0  0
 10 12  1  0  0  0  0
 11 16  1  0  0  0  0
 12 13  1  6  0  0  0
 12 14  1  0  0  0  0
 14 15  1  6  0  0  0
 14 16  1  0  0  0  0
 16 27  1  1  0  0  0
 18 19  2  0  0  0  0
 18 23  1  0  0  0  0
 19 20  1  0  0  0  0
 20 21  2  0  0  0  0
 21 22  1  0  0  0  0
 21 27  1  0  0  0  0
 22 23  2  0  0  0  0
 22 25  1  0  0  0  0
 23 24  1  0  0  0  0
 25 26  2  0  0  0  0
 26 27  1  0  0  0  0
M  END
>  <CHROM.1>
133.84390732,-174.31172129,-81.43287020,-85.86182863,-165.19480925,-63.63692367
-133.54101009,14.45645826,-7.49266922,7.62403218,-0.60970243,-0.69543497
2.27162204

>  <Name>
ligand

>  <RI>
0

>  <Rbt.Current_Directory>
/home/itssahil/PROJECTS/Mol_Feturizer/New_Systems/rnas/3GX5

>  <Rbt.Executable>
rbdock ($Id: //depot/dev/client3/rdock/2013.1/src/exe/rbdock.cxx#4 $)

>  <Rbt.Library>
libRbt.so (2013.1, Build901 2013/11/27)

>  <Rbt.Parameter_File>
/export/apps/rDock/src/rDock_2013.1_src/data/scripts/dock_solv.prm

>  <Rbt.Receptor>
prm/pocket_docking_7.prm

>  <SCORE>
-11.864

>  <SCORE.INTER>
-11.8404

>  <SCORE.INTER.CONST>
1

>  <SCORE.INTER.POLAR>
0

>  <SCORE.INTER.ROT>
7

>  <SCORE.INTER.SOLV>
8.73784

>  <SCORE.INTER.VDW>
-19.0729

>  <SCORE.INTER.norm>
-0.438534

>  <SCORE.INTRA>
-0.0235585

>  <SCORE.INTRA.DIHEDRAL>
3.05169

>  <SCORE.INTRA.DIHEDRAL.0>
4.28829

>  <SCORE.INTRA.POLAR>
0

>  <SCORE.INTRA.POLAR.0>
0

>  <SCORE.INTRA.REPUL>
0

>  <SCORE.INTRA.REPUL.0>
0

>  <SCORE.INTRA.SOLV>
-0.947203

>  <SCORE.INTRA.SOLV.lig_0>
-48.6018

>  <SCORE.INTRA.VDW>
-1.0758

>  <SCORE.INTRA.VDW.0>
-2.1506

>  <SCORE.INTRA.norm>
-0.000872537

>  <SCORE.RESTR>
0

>  <SCORE.RESTR.CAVITY>
0

>  <SCORE.RESTR.norm>
0

>  <SCORE.SYSTEM>
0

>  <SCORE.SYSTEM.CONST>
0

>  <SCORE.SYSTEM.DIHEDRAL>
0

>  <SCORE.SYSTEM.SOLV>
0

>  <SCORE.SYSTEM.norm>
0

>  <SCORE.heavy>
27

>  <SCORE.norm>
-0.439407

>  <RMSD>
6.348

$$$$
ligand
 OpenBabel11021811483D
libRbt.so/2013.1/901 2013/11/27
 27 29  0  0  0  0  0  0  0  0999 V2000
   14.7399   -7.2350   11.3216 N   0  0  0  0  0  0  0  0  0  0  0  0
   13.8573   -6.9408   10.1910 C   0  0  2  0  0  0  0  0  0  0  0  0
   13.3566   -8.1555    9.4056 C   0  0  0  0  0  0  0  0  0  0  0  0
   12.1733   -8.1983    9.0715 O   0  0  0  0  0  0  0  0  0  0  0  0
   14.4921   -5.9252    9.2559 C   0  0  0  0  0  0  0  0  0  0  0  0
   13.4681   -5.3184    8.3121 C   0  0  0  0  0  0  0  0  0  0  0  0
   14.2735   -4.6361    6.8523 S   0  0  2  0  0  0  0  0  0  0  0  0
   12.8657   -3.8197    6.0709 C   0  0  0  0  0  0  0  0  0  0  0  0
   14.3799   -6.1124    5.8142 C   0  0  0  0  0  0  0  0  0  0  0  0
   15.5428   -6.9902    6.2388 C   0  0  1  0  0  0  0  0  0  0  0  0
   15.5585   -8.1874    5.4953 O   0  0  0  0  0  0  0  0  0  0  0  0
   16.8902   -6.3460    5.9782 C   0  0  1  0  0  0  0  0  0  0  0  0
   17.2882   -5.6651    7.1414 O   0  0  0  0  0  0  0  0  0  0  0  0
   17.7993   -7.5257    5.6993 C   0  0  1  0  0  0  0  0  0  0  0  0
   18.5175   -7.7923    6.8830 O   0  0  0  0  0  0  0  0  0  0  0  0
   16.8739   -8.6939    5.3526 C   0  0  2  0  0  0  0  0  0  0  0  0
   14.0863   -9.1010    9.0951 O   0  0  0  0  0  0  0  0  0  0  0  0
   14.5903   -8.8521    0.6432 N   0  0  0  0  0  0  0  0  0  0  0  0
   14.0669   -8.3695    1.8181 C   0  0  0  0  0  0  0  0  0  0  0  0
   14.8294   -8.4166    2.9644 N   0  0  0  0  0  0  0  0  0  0  0  0
   16.0816   -8.9258    2.9510 C   0  0  0  0  0  0  0  0  0  0  0  0
   16.6289   -9.4041    1.7693 C   0  0  0  0  0  0  0  0  0  0  0  0
   15.8664   -9.3728    0.6036 C   0  0  0  0  0  0  0  0  0  0  0  0
   16.3545   -9.8290   -0.5502 N   0  0  0  0  0  0  0  0  0  0  0  0
   17.8854   -9.8429    2.0388 N   0  0  0  0  0  0  0  0  0  0  0  0
   18.1344   -9.6330    3.3520 C   0  0  0  0  0  0  0  0  0  0  0  0
   17.0292   -9.0587    3.9303 N   0  0  0  0  0  0  0  0  0  0  0  0
  2  1  1  1  0  0  0
  2  3  1  0  0  0  0
  2  5  1  0  0  0  0
  3  4  1  0  0  0  0
  3 17  1  0  0  0  0
  5  6  1  0  0  0  0
  7  6  1  1  0  0  0
  7  8  1  0  0  0  0
  7  9  1  0  0  0  0
 10  9  1  6  0  0  0
 10 11  1  0  0  0  0
 10 12  1  0  0  0  0
 11 16  1  0  0  0  0
 12 13  1  1  0  0  0
 12 14  1  0  0  0  0
 14 15  1  1  0  0  0
 14 16  1  0  0  0  0
 16 27  1  6  0  0  0
 18 19  2  0  0  0  0
 18 23  1  0  0  0  0
 19 20  1  0  0  0  0
 20 21  2  0  0  0  0
 21 22  1  0  0  0  0
 21 27  1  0  0  0  0
 22 23  2  0  0  0  0
 22 25  1  0  0  0  0
 23 24  1  0  0  0  0
 25 26  2  0  0  0  0
 26 27  1  0  0  0  0
M  END
>  <CHROM.1>
136.58222235,-164.01821422,-158.37092529,-172.77060214,-79.44352026,175.44903427
0.13850760,15.39098960,-7.53202235,5.63957218,-1.91845033,0.59153254,-1.73639333

>  <Name>
ligand

>  <RI>
0

>  <Rbt.Current_Directory>
/home/itssahil/PROJECTS/Mol_Feturizer/New_Systems/rnas/3GX5

>  <Rbt.Executable>
rbdock ($Id: //depot/dev/client3/rdock/2013.1/src/exe/rbdock.cxx#4 $)

>  <Rbt.Library>
libRbt.so (2013.1, Build901 2013/11/27)

>  <Rbt.Parameter_File>
/export/apps/rDock/src/rDock_2013.1_src/data/scripts/dock_solv.prm

>  <Rbt.Receptor>
prm/pocket_docking_8.prm

>  <SCORE>
-15.8461

>  <SCORE.INTER>
-15.4848

>  <SCORE.INTER.CONST>
1

>  <SCORE.INTER.POLAR>
0

>  <SCORE.INTER.ROT>
7

>  <SCORE.INTER.SOLV>
6.68825

>  <SCORE.INTER.VDW>
-20.8193

>  <SCORE.INTER.norm>
-0.573511

>  <SCORE.INTRA>
-0.361295

>  <SCORE.INTRA.DIHEDRAL>
2.69968

>  <SCORE.INTRA.DIHEDRAL.0>
4.28829

>  <SCORE.INTRA.POLAR>
0

>  <SCORE.INTRA.POLAR.0>
0

>  <SCORE.INTRA.REPUL>
0

>  <SCORE.INTRA.REPUL.0>
0

>  <SCORE.INTRA.SOLV>
-0.85956

>  <SCORE.INTRA.SOLV.lig_0>
-48.6018

>  <SCORE.INTRA.VDW>
-1.28135

>  <SCORE.INTRA.VDW.0>
-2.1506

>  <SCORE.INTRA.norm>
-0.0133813

>  <SCORE.RESTR>
0

>  <SCORE.RESTR.CAVITY>
0

>  <SCORE.RESTR.norm>
0

>  <SCORE.SYSTEM>
0

>  <SCORE.SYSTEM.CONST>
0

>  <SCORE.SYSTEM.DIHEDRAL>
0

>  <SCORE.SYSTEM.SOLV>
0

>  <SCORE.SYSTEM.norm>
0

>  <SCORE.heavy>
27

>  <SCORE.norm>
-0.586893

>  <RMSD>
6.352

$$$$
ligand
 OpenBabel11021811483D
libRbt.so/2013.1/901 2013/11/27
 27 29  0  0  0  0  0  0  0  0999 V2000
   13.6512   -7.4707    3.7459 N   0  0  0  0  0  0  0  0  0  0  0  0
   14.2978   -7.8311    5.0091 C   0  0  2  0  0  0  0  0  0  0  0  0
   14.2283   -9.3113    5.3923 C   0  0  0  0  0  0  0  0  0  0  0  0
   14.9193  -10.1173    4.7705 O   0  0  0  0  0  0  0  0  0  0  0  0
   13.7906   -6.9609    6.1468 C   0  0  0  0  0  0  0  0  0  0  0  0
   14.4333   -5.5847    6.1267 C   0  0  0  0  0  0  0  0  0  0  0  0
   13.7855   -4.5600    7.4593 S   0  0  2  0  0  0  0  0  0  0  0  0
   12.4892   -3.6725    6.5699 C   0  0  0  0  0  0  0  0  0  0  0  0
   15.0469   -3.2664    7.5234 C   0  0  0  0  0  0  0  0  0  0  0  0
   16.1163   -3.6032    8.5461 C   0  0  1  0  0  0  0  0  0  0  0  0
   15.5985   -3.5137    9.8537 O   0  0  0  0  0  0  0  0  0  0  0  0
   16.6229   -5.0263    8.4185 C   0  0  1  0  0  0  0  0  0  0  0  0
   17.7558   -5.0207    7.5868 O   0  0  0  0  0  0  0  0  0  0  0  0
   16.9922   -5.4000    9.8398 C   0  0  1  0  0  0  0  0  0  0  0  0
   18.3894   -5.2563    9.9630 O   0  0  0  0  0  0  0  0  0  0  0  0
   16.2634   -4.3984   10.7382 C   0  0  2  0  0  0  0  0  0  0  0  0
   13.5041   -9.7372    6.2961 O   0  0  0  0  0  0  0  0  0  0  0  0
   11.9378   -7.3405   10.5133 N   0  0  0  0  0  0  0  0  0  0  0  0
   12.7077   -6.8923    9.4676 C   0  0  0  0  0  0  0  0  0  0  0  0
   13.8181   -6.1208    9.7312 N   0  0  0  0  0  0  0  0  0  0  0  0
   14.1626   -5.8012   10.9988 C   0  0  0  0  0  0  0  0  0  0  0  0
   13.4028   -6.2581   12.0658 C   0  0  0  0  0  0  0  0  0  0  0  0
   12.2709   -7.0309   11.8148 C   0  0  0  0  0  0  0  0  0  0  0  0
   11.5115   -7.4831   12.8130 N   0  0  0  0  0  0  0  0  0  0  0  0
   13.9735   -5.8017   13.2104 N   0  0  0  0  0  0  0  0  0  0  0  0
   15.0749   -5.0890   12.8791 C   0  0  0  0  0  0  0  0  0  0  0  0
   15.2103   -5.0849   11.5126 N   0  0  0  0  0  0  0  0  0  0  0  0
  2  1  1  6  0  0  0
  2  3  1  0  0  0  0
  2  5  1  0  0  0  0
  3  4  1  0  0  0  0
  3 17  1  0  0  0  0
  5  6  1  0  0  0  0
  7  6  1  6  0  0  0
  7  8  1  0  0  0  0
  7  9  1  0  0  0  0
 10  9  1  6  0  0  0
 10 11  1  0  0  0  0
 10 12  1  0  0  0  0
 11 16  1  0  0  0  0
 12 13  1  6  0  0  0
 12 14  1  0  0  0  0
 14 15  1  6  0  0  0
 14 16  1  0  0  0  0
 16 27  1  1  0  0  0
 18 19  2  0  0  0  0
 18 23  1  0  0  0  0
 19 20  1  0  0  0  0
 20 21  2  0  0  0  0
 21 22  1  0  0  0  0
 21 27  1  0  0  0  0
 22 23  2  0  0  0  0
 22 25  1  0  0  0  0
 23 24  1  0  0  0  0
 25 26  2  0  0  0  0
 26 27  1  0  0  0  0
M  END
>  <CHROM.1>
72.63492504,-78.09972619,178.59245035,-95.41140989,-93.35996289,-69.67200312
55.80468301,14.52373758,-5.99143499,8.70699295,1.65059065,-0.78302107,-1.87896037

>  <Name>
ligand

>  <RI>
0

>  <Rbt.Current_Directory>
/home/itssahil/PROJECTS/Mol_Feturizer/New_Systems/rnas/3GX5

>  <Rbt.Executable>
rbdock ($Id: //depot/dev/client3/rdock/2013.1/src/exe/rbdock.cxx#4 $)

>  <Rbt.Library>
libRbt.so (2013.1, Build901 2013/11/27)

>  <Rbt.Parameter_File>
/export/apps/rDock/src/rDock_2013.1_src/data/scripts/dock_solv.prm

>  <Rbt.Receptor>
prm/pocket_docking_5.prm

>  <SCORE>
-13.4852

>  <SCORE.INTER>
-14.2811

>  <SCORE.INTER.CONST>
1

>  <SCORE.INTER.POLAR>
0

>  <SCORE.INTER.ROT>
7

>  <SCORE.INTER.SOLV>
15.1412

>  <SCORE.INTER.VDW>
-22.8345

>  <SCORE.INTER.norm>
-0.528931

>  <SCORE.INTRA>
0.795909

>  <SCORE.INTRA.DIHEDRAL>
3.93048

>  <SCORE.INTRA.DIHEDRAL.0>
4.28829

>  <SCORE.INTRA.POLAR>
0

>  <SCORE.INTRA.POLAR.0>
0

>  <SCORE.INTRA.REPUL>
0

>  <SCORE.INTRA.REPUL.0>
0

>  <SCORE.INTRA.SOLV>
-0.321912

>  <SCORE.INTRA.SOLV.lig_0>
-48.6018

>  <SCORE.INTRA.VDW>
-1.00838

>  <SCORE.INTRA.VDW.0>
-2.1506

>  <SCORE.INTRA.norm>
0.0294781

>  <SCORE.RESTR>
0

>  <SCORE.RESTR.CAVITY>
0

>  <SCORE.RESTR.norm>
0

>  <SCORE.SYSTEM>
0

>  <SCORE.SYSTEM.CONST>
0

>  <SCORE.SYSTEM.DIHEDRAL>
0

>  <SCORE.SYSTEM.SOLV>
0

>  <SCORE.SYSTEM.norm>
0

>  <SCORE.heavy>
27

>  <SCORE.norm>
-0.499453

>  <RMSD>
6.359

$$$$
ligand
 OpenBabel11021811483D
libRbt.so/2013.1/901 2013/11/27
 27 29  0  0  0  0  0  0  0  0999 V2000
   14.0973   -8.2524    2.6770 N   0  0  0  0  0  0  0  0  0  0  0  0
   14.7074   -8.3147    4.0066 C   0  0  2  0  0  0  0  0  0  0  0  0
   15.5864   -9.5382    4.2773 C   0  0  0  0  0  0  0  0  0  0  0  0
   16.4623   -9.4597    5.1378 O   0  0  0  0  0  0  0  0  0  0  0  0
   13.6574   -8.1607    5.0940 C   0  0  0  0  0  0  0  0  0  0  0  0
   13.1111   -6.7443    5.1465 C   0  0  0  0  0  0  0  0  0  0  0  0
   13.5821   -5.9369    6.6864 S   0  0  2  0  0  0  0  0  0  0  0  0
   12.7875   -4.3326    6.4545 C   0  0  0  0  0  0  0  0  0  0  0  0
   15.2916   -5.4835    6.3115 C   0  0  0  0  0  0  0  0  0  0  0  0
   16.1053   -5.3397    7.5844 C   0  0  1  0  0  0  0  0  0  0  0  0
   15.3161   -4.8000    8.6198 O   0  0  0  0  0  0  0  0  0  0  0  0
   16.6005   -6.6696    8.1177 C   0  0  1  0  0  0  0  0  0  0  0  0
   17.8876   -6.9019    7.6033 O   0  0  0  0  0  0  0  0  0  0  0  0
   16.6433   -6.4566    9.6173 C   0  0  1  0  0  0  0  0  0  0  0  0
   17.9823   -6.1849    9.9656 O   0  0  0  0  0  0  0  0  0  0  0  0
   15.7549   -5.2415    9.8925 C   0  0  2  0  0  0  0  0  0  0  0  0
   15.4611  -10.6029    3.6664 O   0  0  0  0  0  0  0  0  0  0  0  0
   11.6635   -8.5064   10.0310 N   0  0  0  0  0  0  0  0  0  0  0  0
   12.6718   -8.4574    9.0992 C   0  0  0  0  0  0  0  0  0  0  0  0
   13.6689   -7.5166    9.2348 N   0  0  0  0  0  0  0  0  0  0  0  0
   13.6725   -6.6455   10.2686 C   0  0  0  0  0  0  0  0  0  0  0  0
   12.6686   -6.6919   11.2250 C   0  0  0  0  0  0  0  0  0  0  0  0
   11.6475   -7.6310   11.0960 C   0  0  0  0  0  0  0  0  0  0  0  0
   10.6617   -7.7026   11.9909 N   0  0  0  0  0  0  0  0  0  0  0  0
   12.9210   -5.7229   12.1424 N   0  0  0  0  0  0  0  0  0  0  0  0
   14.0630   -5.0905   11.7866 C   0  0  0  0  0  0  0  0  0  0  0  0
   14.5453   -5.6549   10.6314 N   0  0  0  0  0  0  0  0  0  0  0  0
  2  1  1  6  0  0  0
  2  3  1  0  0  0  0
  2  5  1  0  0  0  0
  3  4  1  0  0  0  0
  3 17  1  0  0  0  0
  5  6  1  0  0  0  0
  7  6  1  6  0  0  0
  7  8  1  0  0  0  0
  7  9  1  0  0  0  0
 10  9  1  6  0  0  0
 10 11  1  0  0  0  0
 10 12  1  0  0  0  0
 11 16  1  0  0  0  0
 12 13  1  6  0  0  0
 12 14  1  0  0  0  0
 14 15  1  6  0  0  0
 14 16  1  0  0  0  0
 16 27  1  1  0  0  0
 18 19  2  0  0  0  0
 18 23  1  0  0  0  0
 19 20  1  0  0  0  0
 20 21  2  0  0  0  0
 21 22  1  0  0  0  0
 21 27  1  0  0  0  0
 22 23  2  0  0  0  0
 22 25  1  0  0  0  0
 23 24  1  0  0  0  0
 25 26  2  0  0  0  0
 26 27  1  0  0  0  0
M  END
>  <CHROM.1>
155.76819766,-70.51437740,-113.47960146,-179.32798154,-155.31864756,-35.53229259
60.74886971,14.44096823,-6.92142790,7.94619327,1.30892551,-0.33306375,-1.96472851

>  <Name>
ligand

>  <RI>
0

>  <Rbt.Current_Directory>
/home/itssahil/PROJECTS/Mol_Feturizer/New_Systems/rnas/3GX5

>  <Rbt.Executable>
rbdock ($Id: //depot/dev/client3/rdock/2013.1/src/exe/rbdock.cxx#4 $)

>  <Rbt.Library>
libRbt.so (2013.1, Build901 2013/11/27)

>  <Rbt.Parameter_File>
/export/apps/rDock/src/rDock_2013.1_src/data/scripts/dock_solv.prm

>  <Rbt.Receptor>
prm/pocket_docking_5.prm

>  <SCORE>
-8.75715

>  <SCORE.INTER>
-10.8603

>  <SCORE.INTER.CONST>
1

>  <SCORE.INTER.POLAR>
0

>  <SCORE.INTER.ROT>
7

>  <SCORE.INTER.SOLV>
16.0839

>  <SCORE.INTER.VDW>
-20.8682

>  <SCORE.INTER.norm>
-0.402235

>  <SCORE.INTRA>
2.10318

>  <SCORE.INTRA.DIHEDRAL>
9.67661

>  <SCORE.INTRA.DIHEDRAL.0>
4.28829

>  <SCORE.INTRA.POLAR>
0

>  <SCORE.INTRA.POLAR.0>
0

>  <SCORE.INTRA.REPUL>
0

>  <SCORE.INTRA.REPUL.0>
0

>  <SCORE.INTRA.SOLV>
-0.343991

>  <SCORE.INTRA.SOLV.lig_0>
-48.6018

>  <SCORE.INTRA.VDW>
-2.56313

>  <SCORE.INTRA.VDW.0>
-2.1506

>  <SCORE.INTRA.norm>
0.0778955

>  <SCORE.RESTR>
0

>  <SCORE.RESTR.CAVITY>
0

>  <SCORE.RESTR.norm>
0

>  <SCORE.SYSTEM>
0

>  <SCORE.SYSTEM.CONST>
0

>  <SCORE.SYSTEM.DIHEDRAL>
0

>  <SCORE.SYSTEM.SOLV>
0

>  <SCORE.SYSTEM.norm>
0

>  <SCORE.heavy>
27

>  <SCORE.norm>
-0.324339

>  <RMSD>
6.361

$$$$
ligand
 OpenBabel11021811483D
libRbt.so/2013.1/901 2013/11/27
 27 29  0  0  0  0  0  0  0  0999 V2000
   15.4177   -8.7978    6.3616 N   0  0  0  0  0  0  0  0  0  0  0  0
   14.4953   -7.7020    6.0579 C   0  0  2  0  0  0  0  0  0  0  0  0
   13.6399   -7.8828    4.8015 C   0  0  0  0  0  0  0  0  0  0  0  0
   12.4325   -7.6564    4.8693 O   0  0  0  0  0  0  0  0  0  0  0  0
   15.2270   -6.3709    6.0184 C   0  0  0  0  0  0  0  0  0  0  0  0
   14.2618   -5.2069    5.8746 C   0  0  0  0  0  0  0  0  0  0  0  0
   13.8320   -4.5331    7.4890 S   0  0  2  0  0  0  0  0  0  0  0  0
   12.4159   -3.5098    7.0343 C   0  0  0  0  0  0  0  0  0  0  0  0
   15.0919   -3.2472    7.6556 C   0  0  0  0  0  0  0  0  0  0  0  0
   16.0913   -3.6056    8.7399 C   0  0  1  0  0  0  0  0  0  0  0  0
   15.4663   -3.6300   10.0028 O   0  0  0  0  0  0  0  0  0  0  0  0
   16.6774   -4.9925    8.5626 C   0  0  1  0  0  0  0  0  0  0  0  0
   17.8716   -4.8788    7.8306 O   0  0  0  0  0  0  0  0  0  0  0  0
   16.9496   -5.4466    9.9824 C   0  0  1  0  0  0  0  0  0  0  0  0
   18.3234   -5.2494   10.2309 O   0  0  0  0  0  0  0  0  0  0  0  0
   16.1017   -4.5431   10.8802 C   0  0  2  0  0  0  0  0  0  0  0  0
   14.1056   -8.2521    3.7201 O   0  0  0  0  0  0  0  0  0  0  0  0
   12.0931   -7.8240   10.1156 N   0  0  0  0  0  0  0  0  0  0  0  0
   12.9408   -7.2947    9.1731 C   0  0  0  0  0  0  0  0  0  0  0  0
   13.9441   -6.4401    9.5739 N   0  0  0  0  0  0  0  0  0  0  0  0
   14.1091   -6.1175   10.8763 C   0  0  0  0  0  0  0  0  0  0  0  0
   13.2696   -6.6550   11.8412 C   0  0  0  0  0  0  0  0  0  0  0  0
   12.2436   -7.5128   11.4503 C   0  0  0  0  0  0  0  0  0  0  0  0
   11.4122   -8.0443   12.3469 N   0  0  0  0  0  0  0  0  0  0  0  0
   13.6615   -6.1752   13.0496 N   0  0  0  0  0  0  0  0  0  0  0  0
   14.7309   -5.3687   12.8581 C   0  0  0  0  0  0  0  0  0  0  0  0
   15.0256   -5.3278   11.5175 N   0  0  0  0  0  0  0  0  0  0  0  0
  2  1  1  6  0  0  0
  2  3  1  0  0  0  0
  2  5  1  0  0  0  0
  3  4  1  0  0  0  0
  3 17  1  0  0  0  0
  5  6  1  0  0  0  0
  7  6  1  6  0  0  0
  7  8  1  0  0  0  0
  7  9  1  0  0  0  0
 10  9  1  6  0  0  0
 10 11  1  0  0  0  0
 10 12  1  0  0  0  0
 11 16  1  0  0  0  0
 12 13  1  6  0  0  0
 12 14  1  0  0  0  0
 14 15  1  1  0  0  0
 14 16  1  0  0  0  0
 16 27  1  6  0  0  0
 18 19  2  0  0  0  0
 18 23  1  0  0  0  0
 19 20  1  0  0  0  0
 20 21  2  0  0  0  0
 21 22  1  0  0  0  0
 21 27  1  0  0  0  0
 22 23  2  0  0  0  0
 22 25  1  0  0  0  0
 23 24  1  0  0  0  0
 25 26  2  0  0  0  0
 26 27  1  0  0  0  0
M  END
>  <CHROM.1>
132.71029331,-172.99738316,93.92246811,-166.37688039,-111.04282828,-65.36442710
60.02306281,14.51589373,-5.91793989,8.70153202,1.64547099,-0.67670253,-1.70424893

>  <Name>
ligand

>  <RI>
0

>  <Rbt.Current_Directory>
/home/itssahil/PROJECTS/Mol_Feturizer/New_Systems/rnas/3GX5

>  <Rbt.Executable>
rbdock ($Id: //depot/dev/client3/rdock/2013.1/src/exe/rbdock.cxx#4 $)

>  <Rbt.Library>
libRbt.so (2013.1, Build901 2013/11/27)

>  <Rbt.Parameter_File>
/export/apps/rDock/src/rDock_2013.1_src/data/scripts/dock_solv.prm

>  <Rbt.Receptor>
prm/pocket_docking_6.prm

>  <SCORE>
-12.2751

>  <SCORE.INTER>
-13.1988

>  <SCORE.INTER.CONST>
1

>  <SCORE.INTER.POLAR>
0

>  <SCORE.INTER.ROT>
7

>  <SCORE.INTER.SOLV>
9.09347

>  <SCORE.INTER.VDW>
-20.097

>  <SCORE.INTER.norm>
-0.488843

>  <SCORE.INTRA>
0.923614

>  <SCORE.INTRA.DIHEDRAL>
7.48304

>  <SCORE.INTRA.DIHEDRAL.0>
4.28829

>  <SCORE.INTRA.POLAR>
0

>  <SCORE.INTRA.POLAR.0>
0

>  <SCORE.INTRA.REPUL>
0

>  <SCORE.INTRA.REPUL.0>
0

>  <SCORE.INTRA.SOLV>
-0.67892

>  <SCORE.INTRA.SOLV.lig_0>
-48.6018

>  <SCORE.INTRA.VDW>
-2.47845

>  <SCORE.INTRA.VDW.0>
-2.1506

>  <SCORE.INTRA.norm>
0.0342079

>  <SCORE.RESTR>
0

>  <SCORE.RESTR.CAVITY>
0

>  <SCORE.RESTR.norm>
0

>  <SCORE.SYSTEM>
0

>  <SCORE.SYSTEM.CONST>
0

>  <SCORE.SYSTEM.DIHEDRAL>
0

>  <SCORE.SYSTEM.SOLV>
0

>  <SCORE.SYSTEM.norm>
0

>  <SCORE.heavy>
27

>  <SCORE.norm>
-0.454635

>  <RMSD>
6.367

$$$$
ligand
 OpenBabel11021811483D
libRbt.so/2013.1/901 2013/11/27
 27 29  0  0  0  0  0  0  0  0999 V2000
   12.8422   -8.1493    3.8342 N   0  0  0  0  0  0  0  0  0  0  0  0
   13.9227   -7.3890    4.4653 C   0  0  2  0  0  0  0  0  0  0  0  0
   15.1565   -8.1994    4.8702 C   0  0  0  0  0  0  0  0  0  0  0  0
   16.2476   -7.6330    4.9184 O   0  0  0  0  0  0  0  0  0  0  0  0
   13.4034   -6.5826    5.6438 C   0  0  0  0  0  0  0  0  0  0  0  0
   14.4068   -5.5319    6.0871 C   0  0  0  0  0  0  0  0  0  0  0  0
   13.8297   -4.6858    7.5692 S   0  0  2  0  0  0  0  0  0  0  0  0
   12.4991   -3.6907    6.8634 C   0  0  0  0  0  0  0  0  0  0  0  0
   15.1016   -3.4121    7.7380 C   0  0  0  0  0  0  0  0  0  0  0  0
   16.3706   -3.9900    8.3369 C   0  0  1  0  0  0  0  0  0  0  0  0
   16.1092   -4.5592    9.5994 O   0  0  0  0  0  0  0  0  0  0  0  0
   16.9499   -5.1189    7.5072 C   0  0  1  0  0  0  0  0  0  0  0  0
   17.8974   -4.5772    6.6220 O   0  0  0  0  0  0  0  0  0  0  0  0
   17.6135   -6.0112    8.5366 C   0  0  1  0  0  0  0  0  0  0  0  0
   18.9932   -5.7211    8.5177 O   0  0  0  0  0  0  0  0  0  0  0  0
   16.9974   -5.6258    9.8832 C   0  0  2  0  0  0  0  0  0  0  0  0
   15.1089   -9.4011    5.1464 O   0  0  0  0  0  0  0  0  0  0  0  0
   12.4894   -6.9608   12.1883 N   0  0  0  0  0  0  0  0  0  0  0  0
   12.9093   -5.7052   11.8217 C   0  0  0  0  0  0  0  0  0  0  0  0
   14.1407   -5.5551   11.2227 N   0  0  0  0  0  0  0  0  0  0  0  0
   14.9387   -6.6208   10.9880 C   0  0  0  0  0  0  0  0  0  0  0  0
   14.5224   -7.8966   11.3400 C   0  0  0  0  0  0  0  0  0  0  0  0
   13.2839   -8.0634   11.9561 C   0  0  0  0  0  0  0  0  0  0  0  0
   12.8516   -9.2724   12.3152 N   0  0  0  0  0  0  0  0  0  0  0  0
   15.5023   -8.7678   10.9865 N   0  0  0  0  0  0  0  0  0  0  0  0
   16.5052   -8.0656   10.4106 C   0  0  0  0  0  0  0  0  0  0  0  0
   16.1687   -6.7344   10.3972 N   0  0  0  0  0  0  0  0  0  0  0  0
  2  1  1  1  0  0  0
  2  3  1  0  0  0  0
  2  5  1  0  0  0  0
  3  4  1  0  0  0  0
  3 17  1  0  0  0  0
  5  6  1  0  0  0  0
  7  6  1  6  0  0  0
  7  8  1  0  0  0  0
  7  9  1  0  0  0  0
 10  9  1  6  0  0  0
 10 11  1  0  0  0  0
 10 12  1  0  0  0  0
 11 16  1  0  0  0  0
 12 13  1  6  0  0  0
 12 14  1  0  0  0  0
 14 15  1  1  0  0  0
 14 16  1  0  0  0  0
 16 27  1  6  0  0  0
 18 19  2  0  0  0  0
 18 23  1  0  0  0  0
 19 20  1  0  0  0  0
 20 21  2  0  0  0  0
 21 22  1  0  0  0  0
 21 27  1  0  0  0  0
 22 23  2  0  0  0  0
 22 25  1  0  0  0  0
 23 24  1  0  0  0  0
 25 26  2  0  0  0  0
 26 27  1  0  0  0  0
M  END
>  <CHROM.1>
152.67405088,-165.54839410,-175.17459849,-72.24445380,-78.24778201,-58.48110158
-23.85240360,15.04654603,-6.33138263,8.37899362,1.43336037,-0.69294632,-1.57489333

>  <Name>
ligand

>  <RI>
0

>  <Rbt.Current_Directory>
/home/itssahil/PROJECTS/Mol_Feturizer/New_Systems/rnas/3GX5

>  <Rbt.Executable>
rbdock ($Id: //depot/dev/client3/rdock/2013.1/src/exe/rbdock.cxx#4 $)

>  <Rbt.Library>
libRbt.so (2013.1, Build901 2013/11/27)

>  <Rbt.Parameter_File>
/export/apps/rDock/src/rDock_2013.1_src/data/scripts/dock_solv.prm

>  <Rbt.Receptor>
prm/pocket_docking_8.prm

>  <SCORE>
-8.65313

>  <SCORE.INTER>
-8.41006

>  <SCORE.INTER.CONST>
1

>  <SCORE.INTER.POLAR>
0

>  <SCORE.INTER.ROT>
7

>  <SCORE.INTER.SOLV>
12.7667

>  <SCORE.INTER.VDW>
-18.1289

>  <SCORE.INTER.norm>
-0.311484

>  <SCORE.INTRA>
-0.243066

>  <SCORE.INTRA.DIHEDRAL>
0.156053

>  <SCORE.INTRA.DIHEDRAL.0>
4.28829

>  <SCORE.INTRA.POLAR>
0

>  <SCORE.INTRA.POLAR.0>
0

>  <SCORE.INTRA.REPUL>
0

>  <SCORE.INTRA.REPUL.0>
0

>  <SCORE.INTRA.SOLV>
-0.894406

>  <SCORE.INTRA.SOLV.lig_0>
-48.6018

>  <SCORE.INTRA.VDW>
0.126111

>  <SCORE.INTRA.VDW.0>
-2.1506

>  <SCORE.INTRA.norm>
-0.00900243

>  <SCORE.RESTR>
0

>  <SCORE.RESTR.CAVITY>
0

>  <SCORE.RESTR.norm>
0

>  <SCORE.SYSTEM>
0

>  <SCORE.SYSTEM.CONST>
0

>  <SCORE.SYSTEM.DIHEDRAL>
0

>  <SCORE.SYSTEM.SOLV>
0

>  <SCORE.SYSTEM.norm>
0

>  <SCORE.heavy>
27

>  <SCORE.norm>
-0.320486

>  <RMSD>
6.369

$$$$
ligand
 OpenBabel11021811483D
libRbt.so/2013.1/901 2013/11/27
 27 29  0  0  0  0  0  0  0  0999 V2000
   14.4238   -8.5592    4.8141 N   0  0  0  0  0  0  0  0  0  0  0  0
   15.5912   -7.7385    5.1419 C   0  0  2  0  0  0  0  0  0  0  0  0
   16.8926   -8.5045    5.3916 C   0  0  0  0  0  0  0  0  0  0  0  0
   17.9179   -8.1317    4.8229 O   0  0  0  0  0  0  0  0  0  0  0  0
   15.2904   -6.8047    6.3022 C   0  0  0  0  0  0  0  0  0  0  0  0
   14.2130   -5.7961    5.9426 C   0  0  0  0  0  0  0  0  0  0  0  0
   13.8887   -4.6902    7.3272 S   0  0  2  0  0  0  0  0  0  0  0  0
   12.6164   -3.6384    6.5964 C   0  0  0  0  0  0  0  0  0  0  0  0
   15.3084   -3.5780    7.2004 C   0  0  0  0  0  0  0  0  0  0  0  0
   16.2419   -3.7546    8.3839 C   0  0  1  0  0  0  0  0  0  0  0  0
   15.5480   -3.5662    9.5960 O   0  0  0  0  0  0  0  0  0  0  0  0
   16.8188   -5.1537    8.4726 C   0  0  1  0  0  0  0  0  0  0  0  0
   18.0530   -5.1677    7.8005 O   0  0  0  0  0  0  0  0  0  0  0  0
   17.0066   -5.3662    9.9611 C   0  0  1  0  0  0  0  0  0  0  0  0
   18.3670   -5.1352   10.2507 O   0  0  0  0  0  0  0  0  0  0  0  0
   16.1221   -4.3228   10.6471 C   0  0  2  0  0  0  0  0  0  0  0  0
   16.9610   -9.4865    6.1357 O   0  0  0  0  0  0  0  0  0  0  0  0
   14.7265   -8.1165   13.9755 N   0  0  0  0  0  0  0  0  0  0  0  0
   15.9936   -7.7769   13.5676 C   0  0  0  0  0  0  0  0  0  0  0  0
   16.1588   -6.7397   12.6763 N   0  0  0  0  0  0  0  0  0  0  0  0
   15.0974   -6.0509   12.2003 C   0  0  0  0  0  0  0  0  0  0  0  0
   13.8129   -6.3731   12.6137 C   0  0  0  0  0  0  0  0  0  0  0  0
   13.6287   -7.4265   13.5070 C   0  0  0  0  0  0  0  0  0  0  0  0
   12.4095   -7.7707   13.9227 N   0  0  0  0  0  0  0  0  0  0  0  0
   12.9503   -5.5268   11.9942 N   0  0  0  0  0  0  0  0  0  0  0  0
   13.6697   -4.6799   11.2222 C   0  0  0  0  0  0  0  0  0  0  0  0
   15.0026   -4.9867   11.3441 N   0  0  0  0  0  0  0  0  0  0  0  0
  2  1  1  1  0  0  0
  2  3  1  0  0  0  0
  2  5  1  0  0  0  0
  3  4  1  0  0  0  0
  3 17  1  0  0  0  0
  5  6  1  0  0  0  0
  7  6  1  6  0  0  0
  7  8  1  0  0  0  0
  7  9  1  0  0  0  0
 10  9  1  6  0  0  0
 10 11  1  0  0  0  0
 10 12  1  0  0  0  0
 11 16  1  0  0  0  0
 12 13  1  6  0  0  0
 12 14  1  0  0  0  0
 14 15  1  6  0  0  0
 14 16  1  0  0  0  0
 16 27  1  6  0  0  0
 18 19  2  0  0  0  0
 18 23  1  0  0  0  0
 19 20  1  0  0  0  0
 20 21  2  0  0  0  0
 21 22  1  0  0  0  0
 21 27  1  0  0  0  0
 22 23  2  0  0  0  0
 22 25  1  0  0  0  0
 23 24  1  0  0  0  0
 25 26  2  0  0  0  0
 26 27  1  0  0  0  0
M  END
>  <CHROM.1>
131.36936915,-64.20742283,-179.35786770,179.48567457,-112.54371849,-55.88092437
163.11474885,15.33869278,-6.02735306,9.13130885,-1.12374537,-1.09399397,1.92580227

>  <Name>
ligand

>  <RI>
0

>  <Rbt.Current_Directory>
/home/itssahil/PROJECTS/Mol_Feturizer/New_Systems/rnas/3GX5

>  <Rbt.Executable>
rbdock ($Id: //depot/dev/client3/rdock/2013.1/src/exe/rbdock.cxx#4 $)

>  <Rbt.Library>
libRbt.so (2013.1, Build901 2013/11/27)

>  <Rbt.Parameter_File>
/export/apps/rDock/src/rDock_2013.1_src/data/scripts/dock_solv.prm

>  <Rbt.Receptor>
prm/pocket_docking_6.prm

>  <SCORE>
-11.2799

>  <SCORE.INTER>
-11.8117

>  <SCORE.INTER.CONST>
1

>  <SCORE.INTER.POLAR>
0

>  <SCORE.INTER.ROT>
7

>  <SCORE.INTER.SOLV>
9.8927

>  <SCORE.INTER.VDW>
-19.4387

>  <SCORE.INTER.norm>
-0.437472

>  <SCORE.INTRA>
0.531794

>  <SCORE.INTRA.DIHEDRAL>
3.1225

>  <SCORE.INTRA.DIHEDRAL.0>
4.28829

>  <SCORE.INTRA.POLAR>
0

>  <SCORE.INTRA.POLAR.0>
0

>  <SCORE.INTRA.REPUL>
0

>  <SCORE.INTRA.REPUL.0>
0

>  <SCORE.INTRA.SOLV>
-0.200007

>  <SCORE.INTRA.SOLV.lig_0>
-48.6018

>  <SCORE.INTRA.VDW>
-0.92945

>  <SCORE.INTRA.VDW.0>
-2.1506

>  <SCORE.INTRA.norm>
0.0196961

>  <SCORE.RESTR>
0

>  <SCORE.RESTR.CAVITY>
0

>  <SCORE.RESTR.norm>
0

>  <SCORE.SYSTEM>
0

>  <SCORE.SYSTEM.CONST>
0

>  <SCORE.SYSTEM.DIHEDRAL>
0

>  <SCORE.SYSTEM.SOLV>
0

>  <SCORE.SYSTEM.norm>
0

>  <SCORE.heavy>
27

>  <SCORE.norm>
-0.417775

>  <RMSD>
6.382

$$$$
ligand
 OpenBabel11021811483D
libRbt.so/2013.1/901 2013/11/27
 27 29  0  0  0  0  0  0  0  0999 V2000
   15.4690   -8.5493    6.6274 N   0  0  0  0  0  0  0  0  0  0  0  0
   14.5895   -7.4016    6.3970 C   0  0  2  0  0  0  0  0  0  0  0  0
   13.5828   -7.5550    5.2543 C   0  0  0  0  0  0  0  0  0  0  0  0
   13.9482   -8.0965    4.2117 O   0  0  0  0  0  0  0  0  0  0  0  0
   15.3954   -6.1242    6.2305 C   0  0  0  0  0  0  0  0  0  0  0  0
   14.4949   -4.9189    6.0210 C   0  0  0  0  0  0  0  0  0  0  0  0
   13.6917   -4.4485    7.5634 S   0  0  2  0  0  0  0  0  0  0  0  0
   12.2317   -3.6095    6.9128 C   0  0  0  0  0  0  0  0  0  0  0  0
   14.6844   -3.0102    8.0267 C   0  0  0  0  0  0  0  0  0  0  0  0
   15.6650   -3.3619    9.1302 C   0  0  1  0  0  0  0  0  0  0  0  0
   14.9886   -3.5621   10.3503 O   0  0  0  0  0  0  0  0  0  0  0  0
   16.4011   -4.6612    8.8691 C   0  0  1  0  0  0  0  0  0  0  0  0
   17.6092   -4.3627    8.2161 O   0  0  0  0  0  0  0  0  0  0  0  0
   16.6540   -5.2109   10.2583 C   0  0  1  0  0  0  0  0  0  0  0  0
   17.9866   -4.8994   10.5978 O   0  0  0  0  0  0  0  0  0  0  0  0
   15.6753   -4.4814   11.1811 C   0  0  2  0  0  0  0  0  0  0  0  0
   12.4180   -7.1544    5.3279 O   0  0  0  0  0  0  0  0  0  0  0  0
   12.0618   -8.0557    9.9223 N   0  0  0  0  0  0  0  0  0  0  0  0
   12.8899   -7.3597    9.0755 C   0  0  0  0  0  0  0  0  0  0  0  0
   13.7820   -6.4516    9.6019 N   0  0  0  0  0  0  0  0  0  0  0  0
   13.8573   -6.2373   10.9345 C   0  0  0  0  0  0  0  0  0  0  0  0
   13.0372   -6.9426   11.8032 C   0  0  0  0  0  0  0  0  0  0  0  0
   12.1225   -7.8571   11.2852 C   0  0  0  0  0  0  0  0  0  0  0  0
   11.3128   -8.5494   12.0870 N   0  0  0  0  0  0  0  0  0  0  0  0
   13.3258   -6.5415   13.0681 N   0  0  0  0  0  0  0  0  0  0  0  0
   14.3138   -5.6192   13.0044 C   0  0  0  0  0  0  0  0  0  0  0  0
   14.6596   -5.4245   11.6898 N   0  0  0  0  0  0  0  0  0  0  0  0
  2  1  1  6  0  0  0
  2  3  1  0  0  0  0
  2  5  1  0  0  0  0
  3  4  1  0  0  0  0
  3 17  1  0  0  0  0
  5  6  1  0  0  0  0
  7  6  1  6  0  0  0
  7  8  1  0  0  0  0
  7  9  1  0  0  0  0
 10  9  1  6  0  0  0
 10 11  1  0  0  0  0
 10 12  1  0  0  0  0
 11 16  1  0  0  0  0
 12 13  1  1  0  0  0
 12 14  1  0  0  0  0
 14 15  1  1  0  0  0
 14 16  1  0  0  0  0
 16 27  1  6  0  0  0
 18 19  2  0  0  0  0
 18 23  1  0  0  0  0
 19 20  1  0  0  0  0
 20 21  2  0  0  0  0
 21 22  1  0  0  0  0
 21 27  1  0  0  0  0
 22 23  2  0  0  0  0
 22 25  1  0  0  0  0
 23 24  1  0  0  0  0
 25 26  2  0  0  0  0
 26 27  1  0  0  0  0
M  END
>  <CHROM.1>
-40.66611150,-178.75012161,73.93771302,-155.24744522,-103.14991161,-71.29488813
59.69765717,14.33290099,-5.84005568,8.87908745,1.61012003,-0.78346374,-1.63982056

>  <Name>
ligand

>  <RI>
0

>  <Rbt.Current_Directory>
/home/itssahil/PROJECTS/Mol_Feturizer/New_Systems/rnas/3GX5

>  <Rbt.Executable>
rbdock ($Id: //depot/dev/client3/rdock/2013.1/src/exe/rbdock.cxx#4 $)

>  <Rbt.Library>
libRbt.so (2013.1, Build901 2013/11/27)

>  <Rbt.Parameter_File>
/export/apps/rDock/src/rDock_2013.1_src/data/scripts/dock_solv.prm

>  <Rbt.Receptor>
prm/pocket_docking_3.prm

>  <SCORE>
-12.2364

>  <SCORE.INTER>
-12.447

>  <SCORE.INTER.CONST>
1

>  <SCORE.INTER.POLAR>
0

>  <SCORE.INTER.ROT>
7

>  <SCORE.INTER.SOLV>
9.31614

>  <SCORE.INTER.VDW>
-19.67

>  <SCORE.INTER.norm>
-0.460998

>  <SCORE.INTRA>
0.206904

>  <SCORE.INTRA.DIHEDRAL>
5.46147

>  <SCORE.INTRA.DIHEDRAL.0>
4.28829

>  <SCORE.INTRA.POLAR>
0

>  <SCORE.INTRA.POLAR.0>
0

>  <SCORE.INTRA.REPUL>
0

>  <SCORE.INTRA.REPUL.0>
0

>  <SCORE.INTRA.SOLV>
-0.381465

>  <SCORE.INTRA.SOLV.lig_0>
-48.6018

>  <SCORE.INTRA.VDW>
-2.3331

>  <SCORE.INTRA.VDW.0>
-2.1506

>  <SCORE.INTRA.norm>
0.0076631

>  <SCORE.RESTR>
0.00360696

>  <SCORE.RESTR.CAVITY>
0.00360696

>  <SCORE.RESTR.norm>
0.000133591

>  <SCORE.SYSTEM>
0

>  <SCORE.SYSTEM.CONST>
0

>  <SCORE.SYSTEM.DIHEDRAL>
0

>  <SCORE.SYSTEM.SOLV>
0

>  <SCORE.SYSTEM.norm>
0

>  <SCORE.heavy>
27

>  <SCORE.norm>
-0.453202

>  <RMSD>
6.383

$$$$
ligand
 OpenBabel11021811483D
libRbt.so/2013.1/901 2013/11/27
 27 29  0  0  0  0  0  0  0  0999 V2000
   11.9800   -9.2885    9.4301 N   0  0  0  0  0  0  0  0  0  0  0  0
   12.8010   -8.0800    9.5266 C   0  0  2  0  0  0  0  0  0  0  0  0
   12.2767   -6.9944   10.4697 C   0  0  0  0  0  0  0  0  0  0  0  0
   13.0313   -6.0799   10.7981 O   0  0  0  0  0  0  0  0  0  0  0  0
   13.0802   -7.5013    8.1496 C   0  0  0  0  0  0  0  0  0  0  0  0
   13.8928   -8.4593    7.2954 C   0  0  0  0  0  0  0  0  0  0  0  0
   14.4892   -7.6365    5.8080 S   0  0  2  0  0  0  0  0  0  0  0  0
   12.9780   -7.6410    4.8205 C   0  0  0  0  0  0  0  0  0  0  0  0
   15.3739   -8.9970    5.0110 C   0  0  0  0  0  0  0  0  0  0  0  0
   16.7900   -8.5856    4.6525 C   0  0  1  0  0  0  0  0  0  0  0  0
   17.4439   -8.0304    5.7707 O   0  0  0  0  0  0  0  0  0  0  0  0
   17.6534   -9.7588    4.2325 C   0  0  1  0  0  0  0  0  0  0  0  0
   17.5878   -9.8791    2.8338 O   0  0  0  0  0  0  0  0  0  0  0  0
   19.0434   -9.3543    4.6800 C   0  0  1  0  0  0  0  0  0  0  0  0
   19.7239   -8.8634    3.5469 O   0  0  0  0  0  0  0  0  0  0  0  0
   18.8432   -8.2446    5.7144 C   0  0  2  0  0  0  0  0  0  0  0  0
   11.1289   -6.9964   10.9228 O   0  0  0  0  0  0  0  0  0  0  0  0
   21.1270  -12.0859    8.4433 N   0  0  0  0  0  0  0  0  0  0  0  0
   20.9550  -12.0055    7.0827 C   0  0  0  0  0  0  0  0  0  0  0  0
   20.3223  -10.9050    6.5477 N   0  0  0  0  0  0  0  0  0  0  0  0
   19.8720   -9.9046    7.3377 C   0  0  0  0  0  0  0  0  0  0  0  0
   20.0508   -9.9650    8.7121 C   0  0  0  0  0  0  0  0  0  0  0  0
   20.6797  -11.0766    9.2691 C   0  0  0  0  0  0  0  0  0  0  0  0
   20.8641  -11.1745   10.5860 N   0  0  0  0  0  0  0  0  0  0  0  0
   19.5176   -8.8389    9.2523 N   0  0  0  0  0  0  0  0  0  0  0  0
   19.0293   -8.0773    8.2463 C   0  0  0  0  0  0  0  0  0  0  0  0
   19.2473   -8.7200    7.0526 N   0  0  0  0  0  0  0  0  0  0  0  0
  2  1  1  6  0  0  0
  2  3  1  0  0  0  0
  2  5  1  0  0  0  0
  3  4  1  0  0  0  0
  3 17  1  0  0  0  0
  5  6  1  0  0  0  0
  7  6  1  1  0  0  0
  7  8  1  0  0  0  0
  7  9  1  0  0  0  0
 10  9  1  1  0  0  0
 10 11  1  0  0  0  0
 10 12  1  0  0  0  0
 11 16  1  0  0  0  0
 12 13  1  6  0  0  0
 12 14  1  0  0  0  0
 14 15  1  6  0  0  0
 14 16  1  0  0  0  0
 16 27  1  1  0  0  0
 18 19  2  0  0  0  0
 18 23  1  0  0  0  0
 19 20  1  0  0  0  0
 20 21  2  0  0  0  0
 21 22  1  0  0  0  0
 21 27  1  0  0  0  0
 22 23  2  0  0  0  0
 22 25  1  0  0  0  0
 23 24  1  0  0  0  0
 25 26  2  0  0  0  0
 26 27  1  0  0  0  0
M  END
>  <CHROM.1>
165.97838768,-63.37694643,-168.70319468,-77.46607781,-127.78295029,51.45019413
121.65360967,16.81399358,-8.89402619,7.16047538,-2.91618526,0.37595596,-1.50886533

>  <Name>
ligand

>  <RI>
0

>  <Rbt.Current_Directory>
/home/itssahil/PROJECTS/Mol_Feturizer/New_Systems/rnas/3GX5

>  <Rbt.Executable>
rbdock ($Id: //depot/dev/client3/rdock/2013.1/src/exe/rbdock.cxx#4 $)

>  <Rbt.Library>
libRbt.so (2013.1, Build901 2013/11/27)

>  <Rbt.Parameter_File>
/export/apps/rDock/src/rDock_2013.1_src/data/scripts/dock_solv.prm

>  <Rbt.Receptor>
prm/pocket_docking_8.prm

>  <SCORE>
-8.49756

>  <SCORE.INTER>
-11.1147

>  <SCORE.INTER.CONST>
1

>  <SCORE.INTER.POLAR>
0

>  <SCORE.INTER.ROT>
7

>  <SCORE.INTER.SOLV>
13.6405

>  <SCORE.INTER.VDW>
-20.2233

>  <SCORE.INTER.norm>
-0.411655

>  <SCORE.INTRA>
2.61713

>  <SCORE.INTRA.DIHEDRAL>
4.44063

>  <SCORE.INTRA.DIHEDRAL.0>
4.28829

>  <SCORE.INTRA.POLAR>
0

>  <SCORE.INTRA.POLAR.0>
0

>  <SCORE.INTRA.REPUL>
0

>  <SCORE.INTRA.REPUL.0>
0

>  <SCORE.INTRA.SOLV>
-0.595932

>  <SCORE.INTRA.SOLV.lig_0>
-48.6018

>  <SCORE.INTRA.VDW>
0.694785

>  <SCORE.INTRA.VDW.0>
-2.1506

>  <SCORE.INTRA.norm>
0.0969308

>  <SCORE.RESTR>
0

>  <SCORE.RESTR.CAVITY>
0

>  <SCORE.RESTR.norm>
0

>  <SCORE.SYSTEM>
0

>  <SCORE.SYSTEM.CONST>
0

>  <SCORE.SYSTEM.DIHEDRAL>
0

>  <SCORE.SYSTEM.SOLV>
0

>  <SCORE.SYSTEM.norm>
0

>  <SCORE.heavy>
27

>  <SCORE.norm>
-0.314724

>  <RMSD>
6.385

$$$$
ligand
 OpenBabel11021811483D
libRbt.so/2013.1/901 2013/11/27
 27 29  0  0  0  0  0  0  0  0999 V2000
   15.9299   -8.1354    7.1705 N   0  0  0  0  0  0  0  0  0  0  0  0
   14.4969   -7.8357    7.1888 C   0  0  2  0  0  0  0  0  0  0  0  0
   13.5654   -9.0485    7.2535 C   0  0  0  0  0  0  0  0  0  0  0  0
   13.5024   -9.7996    6.2811 O   0  0  0  0  0  0  0  0  0  0  0  0
   14.1160   -6.9314    6.0287 C   0  0  0  0  0  0  0  0  0  0  0  0
   14.7314   -5.5500    6.1718 C   0  0  0  0  0  0  0  0  0  0  0  0
   13.8073   -4.5614    7.3608 S   0  0  2  0  0  0  0  0  0  0  0  0
   12.6387   -3.7482    6.2507 C   0  0  0  0  0  0  0  0  0  0  0  0
   14.9660   -3.1996    7.6286 C   0  0  0  0  0  0  0  0  0  0  0  0
   15.8269   -3.4540    8.8522 C   0  0  1  0  0  0  0  0  0  0  0  0
   15.0299   -3.5376   10.0114 O   0  0  0  0  0  0  0  0  0  0  0  0
   16.5661   -4.7759    8.7851 C   0  0  1  0  0  0  0  0  0  0  0  0
   17.8373   -4.5453    8.2320 O   0  0  0  0  0  0  0  0  0  0  0  0
   16.6718   -5.1972   10.2368 C   0  0  1  0  0  0  0  0  0  0  0  0
   17.9685   -4.8632   10.6784 O   0  0  0  0  0  0  0  0  0  0  0  0
   15.6172   -4.3806   10.9869 C   0  0  2  0  0  0  0  0  0  0  0  0
   12.8672   -9.3066    8.2376 O   0  0  0  0  0  0  0  0  0  0  0  0
   13.8782   -7.2982   14.9720 N   0  0  0  0  0  0  0  0  0  0  0  0
   15.0195   -6.5354   14.9209 C   0  0  0  0  0  0  0  0  0  0  0  0
   15.3093   -5.8333   13.7716 N   0  0  0  0  0  0  0  0  0  0  0  0
   14.4895   -5.8807   12.6978 C   0  0  0  0  0  0  0  0  0  0  0  0
   13.3263   -6.6355   12.7394 C   0  0  0  0  0  0  0  0  0  0  0  0
   13.0246   -7.3594   13.8910 C   0  0  0  0  0  0  0  0  0  0  0  0
   11.9197   -8.1017   13.9672 N   0  0  0  0  0  0  0  0  0  0  0  0
   12.6961   -6.4975   11.5444 N   0  0  0  0  0  0  0  0  0  0  0  0
   13.4310   -5.6643   10.7723 C   0  0  0  0  0  0  0  0  0  0  0  0
   14.5421   -5.2673   11.4748 N   0  0  0  0  0  0  0  0  0  0  0  0
  2  1  1  6  0  0  0
  2  3  1  0  0  0  0
  2  5  1  0  0  0  0
  3  4  1  0  0  0  0
  3 17  1  0  0  0  0
  5  6  1  0  0  0  0
  7  6  1  6  0  0  0
  7  8  1  0  0  0  0
  7  9  1  0  0  0  0
 10  9  1  6  0  0  0
 10 11  1  0  0  0  0
 10 12  1  0  0  0  0
 11 16  1  0  0  0  0
 12 13  1  1  0  0  0
 12 14  1  0  0  0  0
 14 15  1  1  0  0  0
 14 16  1  0  0  0  0
 16 27  1  6  0  0  0
 18 19  2  0  0  0  0
 18 23  1  0  0  0  0
 19 20  1  0  0  0  0
 20 21  2  0  0  0  0
 21 22  1  0  0  0  0
 21 27  1  0  0  0  0
 22 23  2  0  0  0  0
 22 25  1  0  0  0  0
 23 24  1  0  0  0  0
 25 26  2  0  0  0  0
 26 27  1  0  0  0  0
M  END
>  <CHROM.1>
-68.16445824,-66.89962943,-78.14566372,-91.75178499,-95.25375437,-61.96047420
-154.57628194,14.57302012,-5.99246390,9.71336485,1.44601861,-0.98728900,-1.59625174

>  <Name>
ligand

>  <RI>
0

>  <Rbt.Current_Directory>
/home/itssahil/PROJECTS/Mol_Feturizer/New_Systems/rnas/3GX5

>  <Rbt.Executable>
rbdock ($Id: //depot/dev/client3/rdock/2013.1/src/exe/rbdock.cxx#4 $)

>  <Rbt.Library>
libRbt.so (2013.1, Build901 2013/11/27)

>  <Rbt.Parameter_File>
/export/apps/rDock/src/rDock_2013.1_src/data/scripts/dock_solv.prm

>  <Rbt.Receptor>
prm/pocket_docking_5.prm

>  <SCORE>
-13.811

>  <SCORE.INTER>
-14.5983

>  <SCORE.INTER.CONST>
1

>  <SCORE.INTER.POLAR>
0

>  <SCORE.INTER.ROT>
7

>  <SCORE.INTER.SOLV>
8.40793

>  <SCORE.INTER.VDW>
-20.8015

>  <SCORE.INTER.norm>
-0.540676

>  <SCORE.INTRA>
0.787265

>  <SCORE.INTRA.DIHEDRAL>
3.53818

>  <SCORE.INTRA.DIHEDRAL.0>
4.28829

>  <SCORE.INTRA.POLAR>
0

>  <SCORE.INTRA.POLAR.0>
0

>  <SCORE.INTRA.REPUL>
0

>  <SCORE.INTRA.REPUL.0>
0

>  <SCORE.INTRA.SOLV>
0.906893

>  <SCORE.INTRA.SOLV.lig_0>
-48.6018

>  <SCORE.INTRA.VDW>
-1.43527

>  <SCORE.INTRA.VDW.0>
-2.1506

>  <SCORE.INTRA.norm>
0.029158

>  <SCORE.RESTR>
0

>  <SCORE.RESTR.CAVITY>
0

>  <SCORE.RESTR.norm>
0

>  <SCORE.SYSTEM>
0

>  <SCORE.SYSTEM.CONST>
0

>  <SCORE.SYSTEM.DIHEDRAL>
0

>  <SCORE.SYSTEM.SOLV>
0

>  <SCORE.SYSTEM.norm>
0

>  <SCORE.heavy>
27

>  <SCORE.norm>
-0.511518

>  <RMSD>
6.400

$$$$
ligand
 OpenBabel11021811483D
libRbt.so/2013.1/901 2013/11/27
 27 29  0  0  0  0  0  0  0  0999 V2000
   20.1004   -8.3598    8.7061 N   0  0  0  0  0  0  0  0  0  0  0  0
   19.0518   -8.6138    7.7162 C   0  0  2  0  0  0  0  0  0  0  0  0
   19.2375   -9.8681    6.8589 C   0  0  0  0  0  0  0  0  0  0  0  0
   18.4622  -10.0672    5.9245 O   0  0  0  0  0  0  0  0  0  0  0  0
   18.8276   -7.3948    6.8372 C   0  0  0  0  0  0  0  0  0  0  0  0
   18.1473   -6.2723    7.6017 C   0  0  0  0  0  0  0  0  0  0  0  0
   17.4014   -5.0894    6.4662 S   0  0  2  0  0  0  0  0  0  0  0  0
   17.2226   -3.6693    7.5664 C   0  0  0  0  0  0  0  0  0  0  0  0
   15.6919   -5.6777    6.4533 C   0  0  0  0  0  0  0  0  0  0  0  0
   15.6291   -7.1513    6.0960 C   0  0  1  0  0  0  0  0  0  0  0  0
   15.8293   -7.9487    7.2407 O   0  0  0  0  0  0  0  0  0  0  0  0
   14.2746   -7.5673    5.5570 C   0  0  1  0  0  0  0  0  0  0  0  0
   14.3072   -7.4725    4.1552 O   0  0  0  0  0  0  0  0  0  0  0  0
   14.1433   -9.0096    6.0027 C   0  0  1  0  0  0  0  0  0  0  0  0
   14.4724   -9.8226    4.8988 O   0  0  0  0  0  0  0  0  0  0  0  0
   15.1596   -9.1923    7.1320 C   0  0  2  0  0  0  0  0  0  0  0  0
   20.1290  -10.6960    7.0652 O   0  0  0  0  0  0  0  0  0  0  0  0
   15.6673  -10.4164   12.1977 N   0  0  0  0  0  0  0  0  0  0  0  0
   16.6609  -10.2877   11.2579 C   0  0  0  0  0  0  0  0  0  0  0  0
   16.3247   -9.9579    9.9633 N   0  0  0  0  0  0  0  0  0  0  0  0
   15.0368   -9.7567    9.6049 C   0  0  0  0  0  0  0  0  0  0  0  0
   14.0238   -9.8695   10.5460 C   0  0  0  0  0  0  0  0  0  0  0  0
   14.3469  -10.2126   11.8572 C   0  0  0  0  0  0  0  0  0  0  0  0
   13.4012  -10.3370   12.7887 N   0  0  0  0  0  0  0  0  0  0  0  0
   12.8450   -9.6102    9.9235 N   0  0  0  0  0  0  0  0  0  0  0  0
   13.1052   -9.3242    8.6269 C   0  0  0  0  0  0  0  0  0  0  0  0
   14.4595   -9.4036    8.4146 N   0  0  0  0  0  0  0  0  0  0  0  0
  2  1  1  6  0  0  0
  2  3  1  0  0  0  0
  2  5  1  0  0  0  0
  3  4  1  0  0  0  0
  3 17  1  0  0  0  0
  5  6  1  0  0  0  0
  7  6  1  1  0  0  0
  7  8  1  0  0  0  0
  7  9  1  0  0  0  0
 10  9  1  1  0  0  0
 10 11  1  0  0  0  0
 10 12  1  0  0  0  0
 11 16  1  0  0  0  0
 12 13  1  6  0  0  0
 12 14  1  0  0  0  0
 14 15  1  6  0  0  0
 14 16  1  0  0  0  0
 16 27  1  1  0  0  0
 18 19  2  0  0  0  0
 18 23  1  0  0  0  0
 19 20  1  0  0  0  0
 20 21  2  0  0  0  0
 21 22  1  0  0  0  0
 21 27  1  0  0  0  0
 22 23  2  0  0  0  0
 22 25  1  0  0  0  0
 23 24  1  0  0  0  0
 25 26  2  0  0  0  0
 26 27  1  0  0  0  0
M  END
>  <CHROM.1>
-173.04371140,-71.24219687,-161.01265047,-161.00645439,-54.21248264,84.63982417
-74.44551922,16.17764306,-8.43438492,7.88939737,-1.09473300,0.01270822,2.19885556

>  <Name>
ligand

>  <RI>
0

>  <Rbt.Current_Directory>
/home/itssahil/PROJECTS/Mol_Feturizer/New_Systems/rnas/3GX5

>  <Rbt.Executable>
rbdock ($Id: //depot/dev/client3/rdock/2013.1/src/exe/rbdock.cxx#4 $)

>  <Rbt.Library>
libRbt.so (2013.1, Build901 2013/11/27)

>  <Rbt.Parameter_File>
/export/apps/rDock/src/rDock_2013.1_src/data/scripts/dock_solv.prm

>  <Rbt.Receptor>
prm/pocket_docking_7.prm

>  <SCORE>
-11.0871

>  <SCORE.INTER>
-13.2007

>  <SCORE.INTER.CONST>
1

>  <SCORE.INTER.POLAR>
0

>  <SCORE.INTER.ROT>
7

>  <SCORE.INTER.SOLV>
7.73069

>  <SCORE.INTER.VDW>
-19.644

>  <SCORE.INTER.norm>
-0.488914

>  <SCORE.INTRA>
2.11356

>  <SCORE.INTRA.DIHEDRAL>
5.39419

>  <SCORE.INTRA.DIHEDRAL.0>
4.28829

>  <SCORE.INTRA.POLAR>
0

>  <SCORE.INTRA.POLAR.0>
0

>  <SCORE.INTRA.REPUL>
0

>  <SCORE.INTRA.REPUL.0>
0

>  <SCORE.INTRA.SOLV>
-0.329828

>  <SCORE.INTRA.SOLV.lig_0>
-48.6018

>  <SCORE.INTRA.VDW>
-0.418622

>  <SCORE.INTRA.VDW.0>
-2.1506

>  <SCORE.INTRA.norm>
0.0782799

>  <SCORE.RESTR>
0

>  <SCORE.RESTR.CAVITY>
0

>  <SCORE.RESTR.norm>
0

>  <SCORE.SYSTEM>
0

>  <SCORE.SYSTEM.CONST>
0

>  <SCORE.SYSTEM.DIHEDRAL>
0

>  <SCORE.SYSTEM.SOLV>
0

>  <SCORE.SYSTEM.norm>
0

>  <SCORE.heavy>
27

>  <SCORE.norm>
-0.410634

>  <RMSD>
6.400

$$$$
ligand
 OpenBabel11021811483D
libRbt.so/2013.1/901 2013/11/27
 27 29  0  0  0  0  0  0  0  0999 V2000
   14.5190   -8.8054    6.0921 N   0  0  0  0  0  0  0  0  0  0  0  0
   13.5583   -8.1450    5.2062 C   0  0  2  0  0  0  0  0  0  0  0  0
   14.0276   -7.9210    3.7666 C   0  0  0  0  0  0  0  0  0  0  0  0
   15.1038   -8.4010    3.4128 O   0  0  0  0  0  0  0  0  0  0  0  0
   13.0633   -6.8438    5.8148 C   0  0  0  0  0  0  0  0  0  0  0  0
   14.2135   -5.9076    6.1433 C   0  0  0  0  0  0  0  0  0  0  0  0
   13.6457   -4.5345    7.1620 S   0  0  2  0  0  0  0  0  0  0  0  0
   12.6361   -3.6472    5.9568 C   0  0  0  0  0  0  0  0  0  0  0  0
   15.1183   -3.4856    7.1519 C   0  0  0  0  0  0  0  0  0  0  0  0
   16.0321   -3.8242    8.3153 C   0  0  1  0  0  0  0  0  0  0  0  0
   15.3266   -3.7662    9.5340 O   0  0  0  0  0  0  0  0  0  0  0  0
   16.5773   -5.2368    8.2416 C   0  0  1  0  0  0  0  0  0  0  0  0
   17.8196   -5.1988    7.5855 O   0  0  0  0  0  0  0  0  0  0  0  0
   16.7408   -5.6302    9.6957 C   0  0  1  0  0  0  0  0  0  0  0  0
   18.1020   -5.4671   10.0251 O   0  0  0  0  0  0  0  0  0  0  0  0
   15.8703   -4.6563   10.4927 C   0  0  2  0  0  0  0  0  0  0  0  0
   13.3769   -7.2738    2.9417 O   0  0  0  0  0  0  0  0  0  0  0  0
   11.9990   -8.0892    9.6888 N   0  0  0  0  0  0  0  0  0  0  0  0
   12.9536   -7.6704    8.7941 C   0  0  0  0  0  0  0  0  0  0  0  0
   13.8969   -6.7507    9.1970 N   0  0  0  0  0  0  0  0  0  0  0  0
   13.8997   -6.2577   10.4557 C   0  0  0  0  0  0  0  0  0  0  0  0
   12.9506   -6.6815   11.3745 C   0  0  0  0  0  0  0  0  0  0  0  0
   11.9837   -7.6035   10.9791 C   0  0  0  0  0  0  0  0  0  0  0  0
   11.0510   -8.0302   11.8309 N   0  0  0  0  0  0  0  0  0  0  0  0
   13.1895   -6.0403   12.5475 N   0  0  0  0  0  0  0  0  0  0  0  0
   14.2710   -5.2444   12.3819 C   0  0  0  0  0  0  0  0  0  0  0  0
   14.7275   -5.3728   11.0933 N   0  0  0  0  0  0  0  0  0  0  0  0
  2  1  1  1  0  0  0
  2  3  1  0  0  0  0
  2  5  1  0  0  0  0
  3  4  1  0  0  0  0
  3 17  1  0  0  0  0
  5  6  1  0  0  0  0
  7  6  1  6  0  0  0
  7  8  1  0  0  0  0
  7  9  1  0  0  0  0
 10  9  1  6  0  0  0
 10 11  1  0  0  0  0
 10 12  1  0  0  0  0
 11 16  1  0  0  0  0
 12 13  1  6  0  0  0
 12 14  1  0  0  0  0
 14 15  1  1  0  0  0
 14 16  1  0  0  0  0
 16 27  1  6  0  0  0
 18 19  2  0  0  0  0
 18 23  1  0  0  0  0
 19 20  1  0  0  0  0
 20 21  2  0  0  0  0
 21 22  1  0  0  0  0
 21 27  1  0  0  0  0
 22 23  2  0  0  0  0
 22 25  1  0  0  0  0
 23 24  1  0  0  0  0
 25 26  2  0  0  0  0
 26 27  1  0  0  0  0
M  END
>  <CHROM.1>
6.32000434,56.35128391,-168.33377862,-69.26613107,-90.53964926,-53.96343291
66.45380881,14.33801324,-6.06626302,8.22215595,1.58472421,-0.66679290,-1.74213648

>  <Name>
ligand

>  <RI>
0

>  <Rbt.Current_Directory>
/home/itssahil/PROJECTS/Mol_Feturizer/New_Systems/rnas/3GX5

>  <Rbt.Executable>
rbdock ($Id: //depot/dev/client3/rdock/2013.1/src/exe/rbdock.cxx#4 $)

>  <Rbt.Library>
libRbt.so (2013.1, Build901 2013/11/27)

>  <Rbt.Parameter_File>
/export/apps/rDock/src/rDock_2013.1_src/data/scripts/dock_solv.prm

>  <Rbt.Receptor>
prm/pocket_docking_3.prm

>  <SCORE>
-14.5654

>  <SCORE.INTER>
-13.751

>  <SCORE.INTER.CONST>
1

>  <SCORE.INTER.POLAR>
0

>  <SCORE.INTER.ROT>
7

>  <SCORE.INTER.SOLV>
11.1967

>  <SCORE.INTER.VDW>
-21.1662

>  <SCORE.INTER.norm>
-0.509296

>  <SCORE.INTRA>
-0.837055

>  <SCORE.INTRA.DIHEDRAL>
1.07073

>  <SCORE.INTRA.DIHEDRAL.0>
4.28829

>  <SCORE.INTRA.POLAR>
0

>  <SCORE.INTRA.POLAR.0>
0

>  <SCORE.INTRA.REPUL>
0

>  <SCORE.INTRA.REPUL.0>
0

>  <SCORE.INTRA.SOLV>
0.433505

>  <SCORE.INTRA.SOLV.lig_0>
-48.6018

>  <SCORE.INTRA.VDW>
-1.58917

>  <SCORE.INTRA.VDW.0>
-2.1506

>  <SCORE.INTRA.norm>
-0.031002

>  <SCORE.RESTR>
0.0226535

>  <SCORE.RESTR.CAVITY>
0.0226535

>  <SCORE.RESTR.norm>
0.000839018

>  <SCORE.SYSTEM>
0

>  <SCORE.SYSTEM.CONST>
0

>  <SCORE.SYSTEM.DIHEDRAL>
0

>  <SCORE.SYSTEM.SOLV>
0

>  <SCORE.SYSTEM.norm>
0

>  <SCORE.heavy>
27

>  <SCORE.norm>
-0.539459

>  <RMSD>
6.403

$$$$
ligand
 OpenBabel11021811483D
libRbt.so/2013.1/901 2013/11/27
 27 29  0  0  0  0  0  0  0  0999 V2000
   14.2025   -8.8792    7.7660 N   0  0  0  0  0  0  0  0  0  0  0  0
   13.9744   -7.7550    6.8561 C   0  0  2  0  0  0  0  0  0  0  0  0
   13.5014   -8.1255    5.4483 C   0  0  0  0  0  0  0  0  0  0  0  0
   12.5293   -7.5376    4.9761 O   0  0  0  0  0  0  0  0  0  0  0  0
   15.1959   -6.8538    6.7889 C   0  0  0  0  0  0  0  0  0  0  0  0
   14.8657   -5.5113    6.1597 C   0  0  0  0  0  0  0  0  0  0  0  0
   14.0125   -4.4487    7.3379 S   0  0  2  0  0  0  0  0  0  0  0  0
   12.8530   -3.6202    6.2297 C   0  0  0  0  0  0  0  0  0  0  0  0
   15.2334   -3.1302    7.5369 C   0  0  0  0  0  0  0  0  0  0  0  0
   16.1752   -3.4336    8.6876 C   0  0  1  0  0  0  0  0  0  0  0  0
   15.4886   -3.3846    9.9174 O   0  0  0  0  0  0  0  0  0  0  0  0
   16.7579   -4.8313    8.6162 C   0  0  1  0  0  0  0  0  0  0  0  0
   17.9877   -4.7648    7.9393 O   0  0  0  0  0  0  0  0  0  0  0  0
   16.9561   -5.2076   10.0706 C   0  0  1  0  0  0  0  0  0  0  0  0
   18.3176   -5.0044   10.3758 O   0  0  0  0  0  0  0  0  0  0  0  0
   16.0724   -4.2512   10.8741 C   0  0  2  0  0  0  0  0  0  0  0  0
   14.0485   -8.9941    4.7635 O   0  0  0  0  0  0  0  0  0  0  0  0
   14.7323   -8.2408   13.9894 N   0  0  0  0  0  0  0  0  0  0  0  0
   15.9964   -7.8276   13.6453 C   0  0  0  0  0  0  0  0  0  0  0  0
   16.1462   -6.7473   12.8038 N   0  0  0  0  0  0  0  0  0  0  0  0
   15.0722   -6.0876   12.3150 C   0  0  0  0  0  0  0  0  0  0  0  0
   13.7896   -6.4844   12.6645 C   0  0  0  0  0  0  0  0  0  0  0  0
   13.6217   -7.5817   13.5066 C   0  0  0  0  0  0  0  0  0  0  0  0
   12.4052   -7.9977   13.8601 N   0  0  0  0  0  0  0  0  0  0  0  0
   12.9122   -5.6524   12.0465 N   0  0  0  0  0  0  0  0  0  0  0  0
   13.6195   -4.7422   11.3380 C   0  0  0  0  0  0  0  0  0  0  0  0
   14.9598   -4.9936   11.4994 N   0  0  0  0  0  0  0  0  0  0  0  0
  2  1  1  1  0  0  0
  2  3  1  0  0  0  0
  2  5  1  0  0  0  0
  3  4  1  0  0  0  0
  3 17  1  0  0  0  0
  5  6  1  0  0  0  0
  7  6  1  6  0  0  0
  7  8  1  0  0  0  0
  7  9  1  0  0  0  0
 10  9  1  6  0  0  0
 10 11  1  0  0  0  0
 10 12  1  0  0  0  0
 11 16  1  0  0  0  0
 12 13  1  6  0  0  0
 12 14  1  0  0  0  0
 14 15  1  1  0  0  0
 14 16  1  0  0  0  0
 16 27  1  6  0  0  0
 18 19  2  0  0  0  0
 18 23  1  0  0  0  0
 19 20  1  0  0  0  0
 20 21  2  0  0  0  0
 21 22  1  0  0  0  0
 21 27  1  0  0  0  0
 22 23  2  0  0  0  0
 22 25  1  0  0  0  0
 23 24  1  0  0  0  0
 25 26  2  0  0  0  0
 26 27  1  0  0  0  0
M  END
>  <CHROM.1>
131.14424864,-164.88185063,77.40219197,-143.25594800,-91.18880355,-67.58900095
168.45405751,14.84770945,-5.91007346,9.34175524,1.72297345,-0.95340574,-1.39562027

>  <Name>
ligand

>  <RI>
0

>  <Rbt.Current_Directory>
/home/itssahil/PROJECTS/Mol_Feturizer/New_Systems/rnas/3GX5

>  <Rbt.Executable>
rbdock ($Id: //depot/dev/client3/rdock/2013.1/src/exe/rbdock.cxx#4 $)

>  <Rbt.Library>
libRbt.so (2013.1, Build901 2013/11/27)

>  <Rbt.Parameter_File>
/export/apps/rDock/src/rDock_2013.1_src/data/scripts/dock_solv.prm

>  <Rbt.Receptor>
prm/pocket_docking_5.prm

>  <SCORE>
-10.7466

>  <SCORE.INTER>
-12.673

>  <SCORE.INTER.CONST>
1

>  <SCORE.INTER.POLAR>
0

>  <SCORE.INTER.ROT>
7

>  <SCORE.INTER.SOLV>
9.89402

>  <SCORE.INTER.VDW>
-20.0134

>  <SCORE.INTER.norm>
-0.469372

>  <SCORE.INTRA>
1.92647

>  <SCORE.INTRA.DIHEDRAL>
6.2046

>  <SCORE.INTRA.DIHEDRAL.0>
4.28829

>  <SCORE.INTRA.POLAR>
0

>  <SCORE.INTRA.POLAR.0>
0

>  <SCORE.INTRA.REPUL>
0

>  <SCORE.INTRA.REPUL.0>
0

>  <SCORE.INTRA.SOLV>
-0.622767

>  <SCORE.INTRA.SOLV.lig_0>
-48.6018

>  <SCORE.INTRA.VDW>
-0.864443

>  <SCORE.INTRA.VDW.0>
-2.1506

>  <SCORE.INTRA.norm>
0.0713509

>  <SCORE.RESTR>
0

>  <SCORE.RESTR.CAVITY>
0

>  <SCORE.RESTR.norm>
0

>  <SCORE.SYSTEM>
0

>  <SCORE.SYSTEM.CONST>
0

>  <SCORE.SYSTEM.DIHEDRAL>
0

>  <SCORE.SYSTEM.SOLV>
0

>  <SCORE.SYSTEM.norm>
0

>  <SCORE.heavy>
27

>  <SCORE.norm>
-0.398021

>  <RMSD>
6.416

$$$$
ligand
 OpenBabel11021811483D
libRbt.so/2013.1/901 2013/11/27
 27 29  0  0  0  0  0  0  0  0999 V2000
   14.4837   -8.8291    6.0660 N   0  0  0  0  0  0  0  0  0  0  0  0
   13.5708   -8.1349    5.1558 C   0  0  2  0  0  0  0  0  0  0  0  0
   14.0928   -7.9110    3.7345 C   0  0  0  0  0  0  0  0  0  0  0  0
   15.2248   -8.3009    3.4509 O   0  0  0  0  0  0  0  0  0  0  0  0
   13.0914   -6.8260    5.7607 C   0  0  0  0  0  0  0  0  0  0  0  0
   14.2552   -5.9252    6.1370 C   0  0  0  0  0  0  0  0  0  0  0  0
   13.7032   -4.5858    7.2078 S   0  0  2  0  0  0  0  0  0  0  0  0
   12.6829   -3.6555    6.0448 C   0  0  0  0  0  0  0  0  0  0  0  0
   15.1789   -3.5413    7.2165 C   0  0  0  0  0  0  0  0  0  0  0  0
   16.0822   -3.8899    8.3850 C   0  0  1  0  0  0  0  0  0  0  0  0
   15.3690   -3.8296    9.5991 O   0  0  0  0  0  0  0  0  0  0  0  0
   16.6168   -5.3066    8.3112 C   0  0  1  0  0  0  0  0  0  0  0  0
   17.8637   -5.2766    7.6635 O   0  0  0  0  0  0  0  0  0  0  0  0
   16.7675   -5.7051    9.7653 C   0  0  1  0  0  0  0  0  0  0  0  0
   18.1277   -5.5535   10.1042 O   0  0  0  0  0  0  0  0  0  0  0  0
   15.8994   -4.7264   10.5591 C   0  0  2  0  0  0  0  0  0  0  0  0
   13.4308   -7.3503    2.8570 O   0  0  0  0  0  0  0  0  0  0  0  0
   11.9618   -8.0697    9.7010 N   0  0  0  0  0  0  0  0  0  0  0  0
   12.9189   -7.6481    8.8103 C   0  0  0  0  0  0  0  0  0  0  0  0
   13.8810   -6.7550    9.2282 N   0  0  0  0  0  0  0  0  0  0  0  0
   13.8997   -6.2906   10.4977 C   0  0  0  0  0  0  0  0  0  0  0  0
   12.9481   -6.7179   11.4123 C   0  0  0  0  0  0  0  0  0  0  0  0
   11.9624   -7.6131   11.0019 C   0  0  0  0  0  0  0  0  0  0  0  0
   11.0267   -8.0420   11.8494 N   0  0  0  0  0  0  0  0  0  0  0  0
   13.2051   -6.1078   12.5980 N   0  0  0  0  0  0  0  0  0  0  0  0
   14.3000   -5.3280   12.4440 C   0  0  0  0  0  0  0  0  0  0  0  0
   14.7470   -5.4355   11.1501 N   0  0  0  0  0  0  0  0  0  0  0  0
  2  1  1  1  0  0  0
  2  3  1  0  0  0  0
  2  5  1  0  0  0  0
  3  4  1  0  0  0  0
  3 17  1  0  0  0  0
  5  6  1  0  0  0  0
  7  6  1  6  0  0  0
  7  8  1  0  0  0  0
  7  9  1  0  0  0  0
 10  9  1  6  0  0  0
 10 11  1  0  0  0  0
 10 12  1  0  0  0  0
 11 16  1  0  0  0  0
 12 13  1  6  0  0  0
 12 14  1  0  0  0  0
 14 15  1  1  0  0  0
 14 16  1  0  0  0  0
 16 27  1  6  0  0  0
 18 19  2  0  0  0  0
 18 23  1  0  0  0  0
 19 20  1  0  0  0  0
 20 21  2  0  0  0  0
 21 22  1  0  0  0  0
 21 27  1  0  0  0  0
 22 23  2  0  0  0  0
 22 25  1  0  0  0  0
 23 24  1  0  0  0  0
 25 26  2  0  0  0  0
 26 27  1  0  0  0  0
M  END
>  <CHROM.1>
-0.90359228,56.28494683,-165.91773435,-67.78869155,-92.46195369,-54.32798243
64.98418010,14.36456235,-6.09957998,8.25387074,1.57614845,-0.63890511,-1.73870457

>  <Name>
ligand

>  <RI>
0

>  <Rbt.Current_Directory>
/home/itssahil/PROJECTS/Mol_Feturizer/New_Systems/rnas/3GX5

>  <Rbt.Executable>
rbdock ($Id: //depot/dev/client3/rdock/2013.1/src/exe/rbdock.cxx#4 $)

>  <Rbt.Library>
libRbt.so (2013.1, Build901 2013/11/27)

>  <Rbt.Parameter_File>
/export/apps/rDock/src/rDock_2013.1_src/data/scripts/dock_solv.prm

>  <Rbt.Receptor>
prm/pocket_docking_4.prm

>  <SCORE>
-14.6958

>  <SCORE.INTER>
-13.9896

>  <SCORE.INTER.CONST>
1

>  <SCORE.INTER.POLAR>
0

>  <SCORE.INTER.ROT>
7

>  <SCORE.INTER.SOLV>
11.2023

>  <SCORE.INTER.VDW>
-21.3272

>  <SCORE.INTER.norm>
-0.518132

>  <SCORE.INTRA>
-0.710155

>  <SCORE.INTRA.DIHEDRAL>
1.48012

>  <SCORE.INTRA.DIHEDRAL.0>
4.28829

>  <SCORE.INTRA.POLAR>
0

>  <SCORE.INTRA.POLAR.0>
0

>  <SCORE.INTRA.REPUL>
0

>  <SCORE.INTRA.REPUL.0>
0

>  <SCORE.INTRA.SOLV>
0.389559

>  <SCORE.INTRA.SOLV.lig_0>
-48.6018

>  <SCORE.INTRA.VDW>
-1.64499

>  <SCORE.INTRA.VDW.0>
-2.1506

>  <SCORE.INTRA.norm>
-0.026302

>  <SCORE.RESTR>
0.00396817

>  <SCORE.RESTR.CAVITY>
0.00396817

>  <SCORE.RESTR.norm>
0.000146969

>  <SCORE.SYSTEM>
0

>  <SCORE.SYSTEM.CONST>
0

>  <SCORE.SYSTEM.DIHEDRAL>
0

>  <SCORE.SYSTEM.SOLV>
0

>  <SCORE.SYSTEM.norm>
0

>  <SCORE.heavy>
27

>  <SCORE.norm>
-0.544287

>  <RMSD>
6.422

$$$$
ligand
 OpenBabel11021811483D
libRbt.so/2013.1/901 2013/11/27
 27 29  0  0  0  0  0  0  0  0999 V2000
   14.9408   -8.2656    6.3297 N   0  0  0  0  0  0  0  0  0  0  0  0
   13.5582   -7.8561    6.0757 C   0  0  2  0  0  0  0  0  0  0  0  0
   13.2653   -7.3467    4.6624 C   0  0  0  0  0  0  0  0  0  0  0  0
   13.2761   -6.1340    4.4556 O   0  0  0  0  0  0  0  0  0  0  0  0
   13.0902   -6.8497    7.1135 C   0  0  0  0  0  0  0  0  0  0  0  0
   14.0675   -5.6952    7.2525 C   0  0  0  0  0  0  0  0  0  0  0  0
   13.3070   -4.3199    8.1332 S   0  0  2  0  0  0  0  0  0  0  0  0
   12.2789   -3.6353    6.8167 C   0  0  0  0  0  0  0  0  0  0  0  0
   14.6624   -3.1237    8.1099 C   0  0  0  0  0  0  0  0  0  0  0  0
   15.7012   -3.4619    9.1634 C   0  0  1  0  0  0  0  0  0  0  0  0
   15.0878   -3.6816   10.4130 O   0  0  0  0  0  0  0  0  0  0  0  0
   16.4488   -4.7453    8.8595 C   0  0  1  0  0  0  0  0  0  0  0  0
   17.6184   -4.4200    8.1516 O   0  0  0  0  0  0  0  0  0  0  0  0
   16.7782   -5.2972   10.2318 C   0  0  1  0  0  0  0  0  0  0  0  0
   18.1192   -4.9616   10.5093 O   0  0  0  0  0  0  0  0  0  0  0  0
   15.8309   -4.5917   11.2045 C   0  0  2  0  0  0  0  0  0  0  0  0
   13.0121   -8.0986    3.7172 O   0  0  0  0  0  0  0  0  0  0  0  0
   13.1049   -8.9762   10.3309 N   0  0  0  0  0  0  0  0  0  0  0  0
   14.0059   -8.3630    9.4947 C   0  0  0  0  0  0  0  0  0  0  0  0
   14.6262   -7.2040    9.9066 N   0  0  0  0  0  0  0  0  0  0  0  0
   14.3652   -6.6637   11.1180 C   0  0  0  0  0  0  0  0  0  0  0  0
   13.4681   -7.2790   11.9790 C   0  0  0  0  0  0  0  0  0  0  0  0
   12.8250   -8.4463   11.5726 C   0  0  0  0  0  0  0  0  0  0  0  0
   11.9516   -9.0634   12.3688 N   0  0  0  0  0  0  0  0  0  0  0  0
   13.4038   -6.5373   13.1147 N   0  0  0  0  0  0  0  0  0  0  0  0
   14.2498   -5.4895   12.9842 C   0  0  0  0  0  0  0  0  0  0  0  0
   14.8588   -5.5570   11.7553 N   0  0  0  0  0  0  0  0  0  0  0  0
  2  1  1  6  0  0  0
  2  3  1  0  0  0  0
  2  5  1  0  0  0  0
  3  4  1  0  0  0  0
  3 17  1  0  0  0  0
  5  6  1  0  0  0  0
  7  6  1  6  0  0  0
  7  8  1  0  0  0  0
  7  9  1  0  0  0  0
 10  9  1  6  0  0  0
 10 11  1  0  0  0  0
 10 12  1  0  0  0  0
 11 16  1  0  0  0  0
 12 13  1  6  0  0  0
 12 14  1  0  0  0  0
 14 15  1  1  0  0  0
 14 16  1  0  0  0  0
 16 27  1  6  0  0  0
 18 19  2  0  0  0  0
 18 23  1  0  0  0  0
 19 20  1  0  0  0  0
 20 21  2  0  0  0  0
 21 22  1  0  0  0  0
 21 27  1  0  0  0  0
 22 23  2  0  0  0  0
 22 25  1  0  0  0  0
 23 24  1  0  0  0  0
 25 26  2  0  0  0  0
 26 27  1  0  0  0  0
M  END
>  <CHROM.1>
-96.36609787,51.35478165,164.82586990,-77.07310213,-78.39641397,-49.61004222
82.74906114,14.34329406,-6.01939758,8.97440141,1.89917052,-0.94040553,-1.38729249

>  <Name>
ligand

>  <RI>
0

>  <Rbt.Current_Directory>
/home/itssahil/PROJECTS/Mol_Feturizer/New_Systems/rnas/3GX5

>  <Rbt.Executable>
rbdock ($Id: //depot/dev/client3/rdock/2013.1/src/exe/rbdock.cxx#4 $)

>  <Rbt.Library>
libRbt.so (2013.1, Build901 2013/11/27)

>  <Rbt.Parameter_File>
/export/apps/rDock/src/rDock_2013.1_src/data/scripts/dock_solv.prm

>  <Rbt.Receptor>
prm/pocket_docking_3.prm

>  <SCORE>
-10.8153

>  <SCORE.INTER>
-11.2199

>  <SCORE.INTER.CONST>
1

>  <SCORE.INTER.POLAR>
0

>  <SCORE.INTER.ROT>
7

>  <SCORE.INTER.SOLV>
7.05516

>  <SCORE.INTER.VDW>
-18.0983

>  <SCORE.INTER.norm>
-0.415551

>  <SCORE.INTRA>
0.385375

>  <SCORE.INTRA.DIHEDRAL>
1.07205

>  <SCORE.INTRA.DIHEDRAL.0>
4.28829

>  <SCORE.INTRA.POLAR>
0

>  <SCORE.INTRA.POLAR.0>
0

>  <SCORE.INTRA.REPUL>
0

>  <SCORE.INTRA.REPUL.0>
0

>  <SCORE.INTRA.SOLV>
0.381649

>  <SCORE.INTRA.SOLV.lig_0>
-48.6018

>  <SCORE.INTRA.VDW>
-0.341473

>  <SCORE.INTRA.VDW.0>
-2.1506

>  <SCORE.INTRA.norm>
0.0142732

>  <SCORE.RESTR>
0.0192281

>  <SCORE.RESTR.CAVITY>
0.0192281

>  <SCORE.RESTR.norm>
0.000712152

>  <SCORE.SYSTEM>
0

>  <SCORE.SYSTEM.CONST>
0

>  <SCORE.SYSTEM.DIHEDRAL>
0

>  <SCORE.SYSTEM.SOLV>
0

>  <SCORE.SYSTEM.norm>
0

>  <SCORE.heavy>
27

>  <SCORE.norm>
-0.400566

>  <RMSD>
6.430

$$$$
ligand
 OpenBabel11021811483D
libRbt.so/2013.1/901 2013/11/27
 27 29  0  0  0  0  0  0  0  0999 V2000
   14.6509   -8.7248    6.1620 N   0  0  0  0  0  0  0  0  0  0  0  0
   13.6188   -8.1150    5.3214 C   0  0  2  0  0  0  0  0  0  0  0  0
   13.9672   -7.9762    3.8374 C   0  0  0  0  0  0  0  0  0  0  0  0
   14.9437   -8.5827    3.3989 O   0  0  0  0  0  0  0  0  0  0  0  0
   13.1723   -6.7793    5.8920 C   0  0  0  0  0  0  0  0  0  0  0  0
   14.3366   -5.8135    6.0298 C   0  0  0  0  0  0  0  0  0  0  0  0
   13.9863   -4.5689    7.2842 S   0  0  2  0  0  0  0  0  0  0  0  0
   12.7224   -3.6069    6.4262 C   0  0  0  0  0  0  0  0  0  0  0  0
   15.4041   -3.4693    7.0626 C   0  0  0  0  0  0  0  0  0  0  0  0
   16.5893   -3.9417    7.8844 C   0  0  1  0  0  0  0  0  0  0  0  0
   16.3756   -3.6894    9.2544 O   0  0  0  0  0  0  0  0  0  0  0  0
   16.8108   -5.4383    7.7884 C   0  0  1  0  0  0  0  0  0  0  0  0
   17.7317   -5.6847    6.7558 O   0  0  0  0  0  0  0  0  0  0  0  0
   17.3973   -5.7973    9.1387 C   0  0  1  0  0  0  0  0  0  0  0  0
   18.7936   -5.9059    8.9754 O   0  0  0  0  0  0  0  0  0  0  0  0
   17.0497   -4.6328   10.0685 C   0  0  2  0  0  0  0  0  0  0  0  0
   13.3148   -7.2770    3.0575 O   0  0  0  0  0  0  0  0  0  0  0  0
   15.4742   -8.5680   13.1425 N   0  0  0  0  0  0  0  0  0  0  0  0
   16.5360   -8.5522   12.2710 C   0  0  0  0  0  0  0  0  0  0  0  0
   16.7915   -7.4119   11.5416 N   0  0  0  0  0  0  0  0  0  0  0  0
   16.0182   -6.3107   11.6715 C   0  0  0  0  0  0  0  0  0  0  0  0
   14.9509   -6.3068   12.5578 C   0  0  0  0  0  0  0  0  0  0  0  0
   14.6734   -7.4560   13.2951 C   0  0  0  0  0  0  0  0  0  0  0  0
   13.6527   -7.4938   14.1520 N   0  0  0  0  0  0  0  0  0  0  0  0
   14.3596   -5.0860   12.4938 N   0  0  0  0  0  0  0  0  0  0  0  0
   15.0436   -4.3307   11.6038 C   0  0  0  0  0  0  0  0  0  0  0  0
   16.0789   -5.0724   11.0904 N   0  0  0  0  0  0  0  0  0  0  0  0
  2  1  1  1  0  0  0
  2  3  1  0  0  0  0
  2  5  1  0  0  0  0
  3  4  1  0  0  0  0
  3 17  1  0  0  0  0
  5  6  1  0  0  0  0
  7  6  1  6  0  0  0
  7  8  1  0  0  0  0
  7  9  1  0  0  0  0
 10  9  1  6  0  0  0
 10 11  1  0  0  0  0
 10 12  1  0  0  0  0
 11 16  1  0  0  0  0
 12 13  1  6  0  0  0
 12 14  1  0  0  0  0
 14 15  1  6  0  0  0
 14 16  1  0  0  0  0
 16 27  1  1  0  0  0
 18 19  2  0  0  0  0
 18 23  1  0  0  0  0
 19 20  1  0  0  0  0
 20 21  2  0  0  0  0
 21 22  1  0  0  0  0
 21 27  1  0  0  0  0
 22 23  2  0  0  0  0
 22 25  1  0  0  0  0
 23 24  1  0  0  0  0
 25 26  2  0  0  0  0
 26 27  1  0  0  0  0
M  END
>  <CHROM.1>
13.07467272,58.08367584,-156.20134404,-70.85429819,-86.57520230,-73.04953375
148.27478495,15.29487010,-6.07803825,8.62518364,2.01581454,-1.13976149,-1.18998219

>  <Name>
ligand

>  <RI>
0

>  <Rbt.Current_Directory>
/home/itssahil/PROJECTS/Mol_Feturizer/New_Systems/rnas/3GX5

>  <Rbt.Executable>
rbdock ($Id: //depot/dev/client3/rdock/2013.1/src/exe/rbdock.cxx#4 $)

>  <Rbt.Library>
libRbt.so (2013.1, Build901 2013/11/27)

>  <Rbt.Parameter_File>
/export/apps/rDock/src/rDock_2013.1_src/data/scripts/dock_solv.prm

>  <Rbt.Receptor>
prm/pocket_docking_4.prm

>  <SCORE>
-13.5978

>  <SCORE.INTER>
-16.0883

>  <SCORE.INTER.CONST>
1

>  <SCORE.INTER.POLAR>
0

>  <SCORE.INTER.ROT>
7

>  <SCORE.INTER.SOLV>
8.6904

>  <SCORE.INTER.VDW>
-21.889

>  <SCORE.INTER.norm>
-0.595862

>  <SCORE.INTRA>
2.49051

>  <SCORE.INTRA.DIHEDRAL>
2.57706

>  <SCORE.INTRA.DIHEDRAL.0>
4.28829

>  <SCORE.INTRA.POLAR>
0

>  <SCORE.INTRA.POLAR.0>
0

>  <SCORE.INTRA.REPUL>
0

>  <SCORE.INTRA.REPUL.0>
0

>  <SCORE.INTRA.SOLV>
0.237882

>  <SCORE.INTRA.SOLV.lig_0>
-48.6018

>  <SCORE.INTRA.VDW>
1.08304

>  <SCORE.INTRA.VDW.0>
-2.1506

>  <SCORE.INTRA.norm>
0.092241

>  <SCORE.RESTR>
0

>  <SCORE.RESTR.CAVITY>
0

>  <SCORE.RESTR.norm>
0

>  <SCORE.SYSTEM>
0

>  <SCORE.SYSTEM.CONST>
0

>  <SCORE.SYSTEM.DIHEDRAL>
0

>  <SCORE.SYSTEM.SOLV>
0

>  <SCORE.SYSTEM.norm>
0

>  <SCORE.heavy>
27

>  <SCORE.norm>
-0.503621

>  <RMSD>
6.431

$$$$
ligand
 OpenBabel11021811483D
libRbt.so/2013.1/901 2013/11/27
 27 29  0  0  0  0  0  0  0  0999 V2000
   14.8705   -8.8633    5.9169 N   0  0  0  0  0  0  0  0  0  0  0  0
   13.7741   -8.2691    5.1497 C   0  0  2  0  0  0  0  0  0  0  0  0
   14.0638   -8.0094    3.6693 C   0  0  0  0  0  0  0  0  0  0  0  0
   13.2802   -7.3128    3.0256 O   0  0  0  0  0  0  0  0  0  0  0  0
   13.2616   -7.0068    5.8227 C   0  0  0  0  0  0  0  0  0  0  0  0
   14.3606   -5.9693    5.9749 C   0  0  0  0  0  0  0  0  0  0  0  0
   13.9140   -4.7469    7.2204 S   0  0  2  0  0  0  0  0  0  0  0  0
   12.6652   -3.8140    6.3098 C   0  0  0  0  0  0  0  0  0  0  0  0
   15.3080   -3.6047    7.0761 C   0  0  0  0  0  0  0  0  0  0  0  0
   16.4884   -4.0842    7.9007 C   0  0  1  0  0  0  0  0  0  0  0  0
   16.1247   -4.2213    9.2554 O   0  0  0  0  0  0  0  0  0  0  0  0
   16.9776   -5.4568    7.4824 C   0  0  1  0  0  0  0  0  0  0  0  0
   18.0070   -5.2921    6.5399 O   0  0  0  0  0  0  0  0  0  0  0  0
   17.5084   -6.0519    8.7708 C   0  0  1  0  0  0  0  0  0  0  0  0
   18.9104   -5.9030    8.7567 O   0  0  0  0  0  0  0  0  0  0  0  0
   16.8875   -5.2263    9.8997 C   0  0  2  0  0  0  0  0  0  0  0  0
   15.0480   -8.4728    3.0869 O   0  0  0  0  0  0  0  0  0  0  0  0
   14.2138   -9.7252   10.0719 N   0  0  0  0  0  0  0  0  0  0  0  0
   15.1023   -9.3089    9.1105 C   0  0  0  0  0  0  0  0  0  0  0  0
   15.7097   -8.0794    9.2419 N   0  0  0  0  0  0  0  0  0  0  0  0
   15.4483   -7.2799   10.3002 C   0  0  0  0  0  0  0  0  0  0  0  0
   14.5640   -7.6926   11.2863 C   0  0  0  0  0  0  0  0  0  0  0  0
   13.9339   -8.9291   11.1622 C   0  0  0  0  0  0  0  0  0  0  0  0
   13.0728   -9.3580   12.0854 N   0  0  0  0  0  0  0  0  0  0  0  0
   14.4963   -6.7120   12.2233 N   0  0  0  0  0  0  0  0  0  0  0  0
   15.3279   -5.7121   11.8502 C   0  0  0  0  0  0  0  0  0  0  0  0
   15.9311   -6.0514   10.6641 N   0  0  0  0  0  0  0  0  0  0  0  0
  2  1  1  1  0  0  0
  2  3  1  0  0  0  0
  2  5  1  0  0  0  0
  3  4  1  0  0  0  0
  3 17  1  0  0  0  0
  5  6  1  0  0  0  0
  7  6  1  6  0  0  0
  7  8  1  0  0  0  0
  7  9  1  0  0  0  0
 10  9  1  6  0  0  0
 10 11  1  0  0  0  0
 10 12  1  0  0  0  0
 11 16  1  0  0  0  0
 12 13  1  6  0  0  0
 12 14  1  0  0  0  0
 14 15  1  6  0  0  0
 14 16  1  0  0  0  0
 16 27  1  1  0  0  0
 18 19  2  0  0  0  0
 18 23  1  0  0  0  0
 19 20  1  0  0  0  0
 20 21  2  0  0  0  0
 21 22  1  0  0  0  0
 21 27  1  0  0  0  0
 22 23  2  0  0  0  0
 22 25  1  0  0  0  0
 23 24  1  0  0  0  0
 25 26  2  0  0  0  0
 26 27  1  0  0  0  0
M  END
>  <CHROM.1>
-167.84699443,58.89927067,-161.21670412,-73.65188711,-83.96417274,-58.03525037
101.80886297,15.11971997,-6.57600429,8.00391910,1.86868139,-0.99769084,-1.28089203

>  <Name>
ligand

>  <RI>
0

>  <Rbt.Current_Directory>
/home/itssahil/PROJECTS/Mol_Feturizer/New_Systems/rnas/3GX5

>  <Rbt.Executable>
rbdock ($Id: //depot/dev/client3/rdock/2013.1/src/exe/rbdock.cxx#4 $)

>  <Rbt.Library>
libRbt.so (2013.1, Build901 2013/11/27)

>  <Rbt.Parameter_File>
/export/apps/rDock/src/rDock_2013.1_src/data/scripts/dock_solv.prm

>  <Rbt.Receptor>
prm/pocket_docking_6.prm

>  <SCORE>
-11.0811

>  <SCORE.INTER>
-12.1725

>  <SCORE.INTER.CONST>
1

>  <SCORE.INTER.POLAR>
0

>  <SCORE.INTER.ROT>
7

>  <SCORE.INTER.SOLV>
6.54324

>  <SCORE.INTER.VDW>
-18.5628

>  <SCORE.INTER.norm>
-0.450835

>  <SCORE.INTRA>
1.09141

>  <SCORE.INTRA.DIHEDRAL>
1.05084

>  <SCORE.INTRA.DIHEDRAL.0>
4.28829

>  <SCORE.INTRA.POLAR>
0

>  <SCORE.INTRA.POLAR.0>
0

>  <SCORE.INTRA.REPUL>
0

>  <SCORE.INTRA.REPUL.0>
0

>  <SCORE.INTRA.SOLV>
0.777823

>  <SCORE.INTRA.SOLV.lig_0>
-48.6018

>  <SCORE.INTRA.VDW>
0.177076

>  <SCORE.INTRA.VDW.0>
-2.1506

>  <SCORE.INTRA.norm>
0.0404225

>  <SCORE.RESTR>
0

>  <SCORE.RESTR.CAVITY>
0

>  <SCORE.RESTR.norm>
0

>  <SCORE.SYSTEM>
0

>  <SCORE.SYSTEM.CONST>
0

>  <SCORE.SYSTEM.DIHEDRAL>
0

>  <SCORE.SYSTEM.SOLV>
0

>  <SCORE.SYSTEM.norm>
0

>  <SCORE.heavy>
27

>  <SCORE.norm>
-0.410412

>  <RMSD>
6.431

$$$$
ligand
 OpenBabel11021811483D
libRbt.so/2013.1/901 2013/11/27
 27 29  0  0  0  0  0  0  0  0999 V2000
   13.4916   -9.2125    6.4049 N   0  0  0  0  0  0  0  0  0  0  0  0
   13.7354   -7.9016    5.8000 C   0  0  2  0  0  0  0  0  0  0  0  0
   13.8048   -7.8782    4.2711 C   0  0  0  0  0  0  0  0  0  0  0  0
   13.2608   -6.9544    3.6675 O   0  0  0  0  0  0  0  0  0  0  0  0
   14.9682   -7.2469    6.4004 C   0  0  0  0  0  0  0  0  0  0  0  0
   15.0213   -5.7618    6.0856 C   0  0  0  0  0  0  0  0  0  0  0  0
   13.9197   -4.8407    7.1733 S   0  0  2  0  0  0  0  0  0  0  0  0
   12.7734   -4.1612    5.9554 C   0  0  0  0  0  0  0  0  0  0  0  0
   14.9245   -3.3722    7.4935 C   0  0  0  0  0  0  0  0  0  0  0  0
   15.8160   -3.5795    8.7040 C   0  0  1  0  0  0  0  0  0  0  0  0
   15.0407   -3.7359    9.8705 O   0  0  0  0  0  0  0  0  0  0  0  0
   16.6480   -4.8434    8.6106 C   0  0  1  0  0  0  0  0  0  0  0  0
   17.8926   -4.5139    8.0471 O   0  0  0  0  0  0  0  0  0  0  0  0
   16.8009   -5.2749   10.0550 C   0  0  1  0  0  0  0  0  0  0  0  0
   18.0751   -4.8536   10.4873 O   0  0  0  0  0  0  0  0  0  0  0  0
   15.6989   -4.5469   10.8277 C   0  0  2  0  0  0  0  0  0  0  0  0
   14.3787   -8.7494    3.6121 O   0  0  0  0  0  0  0  0  0  0  0  0
   13.3578   -9.1548    9.9882 N   0  0  0  0  0  0  0  0  0  0  0  0
   14.3527   -8.5670    9.2453 C   0  0  0  0  0  0  0  0  0  0  0  0
   14.8433   -7.3383    9.6293 N   0  0  0  0  0  0  0  0  0  0  0  0
   14.3648   -6.7053   10.7238 C   0  0  0  0  0  0  0  0  0  0  0  0
   13.3699   -7.2927   11.4918 C   0  0  0  0  0  0  0  0  0  0  0  0
   12.8563   -8.5304   11.1104 C   0  0  0  0  0  0  0  0  0  0  0  0
   11.8952   -9.1241   11.8187 N   0  0  0  0  0  0  0  0  0  0  0  0
   13.0881   -6.4541   12.5221 N   0  0  0  0  0  0  0  0  0  0  0  0
   13.8943   -5.3723   12.4199 C   0  0  0  0  0  0  0  0  0  0  0  0
   14.6966   -5.5155   11.3147 N   0  0  0  0  0  0  0  0  0  0  0  0
  2  1  1  1  0  0  0
  2  3  1  0  0  0  0
  2  5  1  0  0  0  0
  3  4  1  0  0  0  0
  3 17  1  0  0  0  0
  5  6  1  0  0  0  0
  7  6  1  6  0  0  0
  7  8  1  0  0  0  0
  7  9  1  0  0  0  0
 10  9  1  6  0  0  0
 10 11  1  0  0  0  0
 10 12  1  0  0  0  0
 11 16  1  0  0  0  0
 12 13  1  1  0  0  0
 12 14  1  0  0  0  0
 14 15  1  1  0  0  0
 14 16  1  0  0  0  0
 16 27  1  6  0  0  0
 18 19  2  0  0  0  0
 18 23  1  0  0  0  0
 19 20  1  0  0  0  0
 20 21  2  0  0  0  0
 21 22  1  0  0  0  0
 21 27  1  0  0  0  0
 22 23  2  0  0  0  0
 22 25  1  0  0  0  0
 23 24  1  0  0  0  0
 25 26  2  0  0  0  0
 26 27  1  0  0  0  0
M  END
>  <CHROM.1>
138.60854250,-164.10862168,78.91910672,-117.42439617,-89.22302435,-64.60185035
84.47343853,14.55939566,-6.24264772,8.50260949,1.77495986,-0.96966945,-1.58548825

>  <Name>
ligand

>  <RI>
0

>  <Rbt.Current_Directory>
/home/itssahil/PROJECTS/Mol_Feturizer/New_Systems/rnas/3GX5

>  <Rbt.Executable>
rbdock ($Id: //depot/dev/client3/rdock/2013.1/src/exe/rbdock.cxx#4 $)

>  <Rbt.Library>
libRbt.so (2013.1, Build901 2013/11/27)

>  <Rbt.Parameter_File>
/export/apps/rDock/src/rDock_2013.1_src/data/scripts/dock_solv.prm

>  <Rbt.Receptor>
prm/pocket_docking_3.prm

>  <SCORE>
-8.56651

>  <SCORE.INTER>
-9.49617

>  <SCORE.INTER.CONST>
1

>  <SCORE.INTER.POLAR>
0

>  <SCORE.INTER.ROT>
7

>  <SCORE.INTER.SOLV>
10.7673

>  <SCORE.INTER.VDW>
-18.1865

>  <SCORE.INTER.norm>
-0.35171

>  <SCORE.INTRA>
0.929665

>  <SCORE.INTRA.DIHEDRAL>
6.21229

>  <SCORE.INTRA.DIHEDRAL.0>
4.28829

>  <SCORE.INTRA.POLAR>
0

>  <SCORE.INTRA.POLAR.0>
0

>  <SCORE.INTRA.REPUL>
0

>  <SCORE.INTRA.REPUL.0>
0

>  <SCORE.INTRA.SOLV>
0.145342

>  <SCORE.INTRA.SOLV.lig_0>
-48.6018

>  <SCORE.INTRA.VDW>
-2.24915

>  <SCORE.INTRA.VDW.0>
-2.1506

>  <SCORE.INTRA.norm>
0.034432

>  <SCORE.RESTR>
0

>  <SCORE.RESTR.CAVITY>
0

>  <SCORE.RESTR.norm>
0

>  <SCORE.SYSTEM>
0

>  <SCORE.SYSTEM.CONST>
0

>  <SCORE.SYSTEM.DIHEDRAL>
0

>  <SCORE.SYSTEM.SOLV>
0

>  <SCORE.SYSTEM.norm>
0

>  <SCORE.heavy>
27

>  <SCORE.norm>
-0.317278

>  <RMSD>
6.432

$$$$
ligand
 OpenBabel11021811483D
libRbt.so/2013.1/901 2013/11/27
 27 29  0  0  0  0  0  0  0  0999 V2000
   18.5897   -9.9131    4.0309 N   0  0  0  0  0  0  0  0  0  0  0  0
   17.5324   -8.9191    4.2254 C   0  0  2  0  0  0  0  0  0  0  0  0
   17.6966   -8.0041    5.4414 C   0  0  0  0  0  0  0  0  0  0  0  0
   17.8317   -8.5143    6.5528 O   0  0  0  0  0  0  0  0  0  0  0  0
   16.1628   -9.5771    4.2335 C   0  0  0  0  0  0  0  0  0  0  0  0
   15.0505   -8.5536    4.0825 C   0  0  0  0  0  0  0  0  0  0  0  0
   14.7892   -7.6646    5.6273 S   0  0  2  0  0  0  0  0  0  0  0  0
   13.8238   -8.8909    6.5347 C   0  0  0  0  0  0  0  0  0  0  0  0
   13.4624   -6.5378    5.1389 C   0  0  0  0  0  0  0  0  0  0  0  0
   13.1359   -5.5679    6.2595 C   0  0  1  0  0  0  0  0  0  0  0  0
   12.5096   -6.2380    7.3295 O   0  0  0  0  0  0  0  0  0  0  0  0
   14.3721   -4.9301    6.8624 C   0  0  1  0  0  0  0  0  0  0  0  0
   14.6114   -3.7140    6.2000 O   0  0  0  0  0  0  0  0  0  0  0  0
   13.9812   -4.6957    8.3075 C   0  0  1  0  0  0  0  0  0  0  0  0
   13.6161   -3.3393    8.4298 O   0  0  0  0  0  0  0  0  0  0  0  0
   12.7789   -5.6057    8.5683 C   0  0  2  0  0  0  0  0  0  0  0  0
   17.6942   -6.7728    5.3598 O   0  0  0  0  0  0  0  0  0  0  0  0
   11.3083   -8.4126   12.7369 N   0  0  0  0  0  0  0  0  0  0  0  0
   10.5965   -7.4351   12.0850 C   0  0  0  0  0  0  0  0  0  0  0  0
   11.1596   -6.8035   10.9980 N   0  0  0  0  0  0  0  0  0  0  0  0
   12.3966   -7.1314   10.5621 C   0  0  0  0  0  0  0  0  0  0  0  0
   13.1220   -8.1262   11.2016 C   0  0  0  0  0  0  0  0  0  0  0  0
   12.5701   -8.7670   12.3088 C   0  0  0  0  0  0  0  0  0  0  0  0
   13.2385   -9.7233   12.9540 N   0  0  0  0  0  0  0  0  0  0  0  0
   14.3111   -8.2546   10.5585 N   0  0  0  0  0  0  0  0  0  0  0  0
   14.3323   -7.3769    9.5289 C   0  0  0  0  0  0  0  0  0  0  0  0
   13.1504   -6.6781    9.5128 N   0  0  0  0  0  0  0  0  0  0  0  0
  2  1  1  1  0  0  0
  2  3  1  0  0  0  0
  2  5  1  0  0  0  0
  3  4  1  0  0  0  0
  3 17  1  0  0  0  0
  5  6  1  0  0  0  0
  7  6  1  6  0  0  0
  7  8  1  0  0  0  0
  7  9  1  0  0  0  0
 10  9  1  6  0  0  0
 10 11  1  0  0  0  0
 10 12  1  0  0  0  0
 11 16  1  0  0  0  0
 12 13  1  6  0  0  0
 12 14  1  0  0  0  0
 14 15  1  6  0  0  0
 14 16  1  0  0  0  0
 16 27  1  1  0  0  0
 18 19  2  0  0  0  0
 18 23  1  0  0  0  0
 19 20  1  0  0  0  0
 20 21  2  0  0  0  0
 21 22  1  0  0  0  0
 21 27  1  0  0  0  0
 22 23  2  0  0  0  0
 22 25  1  0  0  0  0
 23 24  1  0  0  0  0
 25 26  2  0  0  0  0
 26 27  1  0  0  0  0
M  END
>  <CHROM.1>
-55.27634519,-165.67662295,-76.14471427,-78.90207768,-174.81951226,-69.86294541
-108.88069356,14.28934784,-7.24815733,7.78884221,-0.50156301,-0.88073288
2.43764255

>  <Name>
ligand

>  <RI>
0

>  <Rbt.Current_Directory>
/home/itssahil/PROJECTS/Mol_Feturizer/New_Systems/rnas/3GX5

>  <Rbt.Executable>
rbdock ($Id: //depot/dev/client3/rdock/2013.1/src/exe/rbdock.cxx#4 $)

>  <Rbt.Library>
libRbt.so (2013.1, Build901 2013/11/27)

>  <Rbt.Parameter_File>
/export/apps/rDock/src/rDock_2013.1_src/data/scripts/dock_solv.prm

>  <Rbt.Receptor>
prm/pocket_docking_6.prm

>  <SCORE>
-12.4535

>  <SCORE.INTER>
-12.4938

>  <SCORE.INTER.CONST>
1

>  <SCORE.INTER.POLAR>
0

>  <SCORE.INTER.ROT>
7

>  <SCORE.INTER.SOLV>
10.0003

>  <SCORE.INTER.VDW>
-19.9293

>  <SCORE.INTER.norm>
-0.462735

>  <SCORE.INTRA>
0.0403796

>  <SCORE.INTRA.DIHEDRAL>
1.95425

>  <SCORE.INTRA.DIHEDRAL.0>
4.28829

>  <SCORE.INTRA.POLAR>
0

>  <SCORE.INTRA.POLAR.0>
0

>  <SCORE.INTRA.REPUL>
0

>  <SCORE.INTRA.REPUL.0>
0

>  <SCORE.INTRA.SOLV>
-0.907745

>  <SCORE.INTRA.SOLV.lig_0>
-48.6018

>  <SCORE.INTRA.VDW>
-0.482873

>  <SCORE.INTRA.VDW.0>
-2.1506

>  <SCORE.INTRA.norm>
0.00149554

>  <SCORE.RESTR>
0

>  <SCORE.RESTR.CAVITY>
0

>  <SCORE.RESTR.norm>
0

>  <SCORE.SYSTEM>
0

>  <SCORE.SYSTEM.CONST>
0

>  <SCORE.SYSTEM.DIHEDRAL>
0

>  <SCORE.SYSTEM.SOLV>
0

>  <SCORE.SYSTEM.norm>
0

>  <SCORE.heavy>
27

>  <SCORE.norm>
-0.461239

>  <RMSD>
6.434

$$$$
ligand
 OpenBabel11021811483D
libRbt.so/2013.1/901 2013/11/27
 27 29  0  0  0  0  0  0  0  0999 V2000
   14.3368   -9.3266    5.6610 N   0  0  0  0  0  0  0  0  0  0  0  0
   14.8404   -8.5220    4.5462 C   0  0  2  0  0  0  0  0  0  0  0  0
   14.7296   -9.1634    3.1609 C   0  0  0  0  0  0  0  0  0  0  0  0
   13.9821   -8.6508    2.3288 O   0  0  0  0  0  0  0  0  0  0  0  0
   16.2643   -8.0609    4.8085 C   0  0  0  0  0  0  0  0  0  0  0  0
   16.3215   -7.0311    5.9237 C   0  0  0  0  0  0  0  0  0  0  0  0
   17.8904   -6.1463    5.8934 S   0  0  2  0  0  0  0  0  0  0  0  0
   18.9900   -7.4378    6.5115 C   0  0  0  0  0  0  0  0  0  0  0  0
   17.7324   -5.1437    7.3896 C   0  0  0  0  0  0  0  0  0  0  0  0
   16.5117   -4.2453    7.3129 C   0  0  1  0  0  0  0  0  0  0  0  0
   15.3316   -4.9950    7.4903 O   0  0  0  0  0  0  0  0  0  0  0  0
   16.4834   -3.1989    8.4095 C   0  0  1  0  0  0  0  0  0  0  0  0
   17.0830   -2.0264    7.9188 O   0  0  0  0  0  0  0  0  0  0  0  0
   15.0040   -2.9898    8.6620 C   0  0  1  0  0  0  0  0  0  0  0  0
   14.6221   -1.8175    7.9779 O   0  0  0  0  0  0  0  0  0  0  0  0
   14.3019   -4.2145    8.0714 C   0  0  2  0  0  0  0  0  0  0  0  0
   15.3534  -10.1784    2.8395 O   0  0  0  0  0  0  0  0  0  0  0  0
   14.4587   -5.4275   13.1627 N   0  0  0  0  0  0  0  0  0  0  0  0
   15.2286   -4.5093   12.4908 C   0  0  0  0  0  0  0  0  0  0  0  0
   15.0381   -4.3321   11.1380 N   0  0  0  0  0  0  0  0  0  0  0  0
   14.1065   -5.0430   10.4640 C   0  0  0  0  0  0  0  0  0  0  0  0
   13.3120   -5.9637   11.1315 C   0  0  0  0  0  0  0  0  0  0  0  0
   13.4998   -6.1617   12.4978 C   0  0  0  0  0  0  0  0  0  0  0  0
   12.7606   -7.0422   13.1733 N   0  0  0  0  0  0  0  0  0  0  0  0
   12.4672   -6.5204   10.2257 N   0  0  0  0  0  0  0  0  0  0  0  0
   12.7079   -5.9558    9.0199 C   0  0  0  0  0  0  0  0  0  0  0  0
   13.7161   -5.0329    9.1516 N   0  0  0  0  0  0  0  0  0  0  0  0
  2  1  1  1  0  0  0
  2  3  1  0  0  0  0
  2  5  1  0  0  0  0
  3  4  1  0  0  0  0
  3 17  1  0  0  0  0
  5  6  1  0  0  0  0
  7  6  1  1  0  0  0
  7  8  1  0  0  0  0
  7  9  1  0  0  0  0
 10  9  1  1  0  0  0
 10 11  1  0  0  0  0
 10 12  1  0  0  0  0
 11 16  1  0  0  0  0
 12 13  1  6  0  0  0
 12 14  1  0  0  0  0
 14 15  1  6  0  0  0
 14 16  1  0  0  0  0
 16 27  1  1  0  0  0
 18 19  2  0  0  0  0
 18 23  1  0  0  0  0
 19 20  1  0  0  0  0
 20 21  2  0  0  0  0
 21 22  1  0  0  0  0
 21 27  1  0  0  0  0
 22 23  2  0  0  0  0
 22 25  1  0  0  0  0
 23 24  1  0  0  0  0
 25 26  2  0  0  0  0
 26 27  1  0  0  0  0
M  END
>  <CHROM.1>
114.37740947,-69.43891365,-163.08545583,-72.82802387,-58.93329951,73.84243950
91.05122189,15.25324985,-5.90924375,7.84131875,1.28493798,-0.82545598,-2.25289179

>  <Name>
ligand

>  <RI>
0

>  <Rbt.Current_Directory>
/home/itssahil/PROJECTS/Mol_Feturizer/New_Systems/rnas/3GX5

>  <Rbt.Executable>
rbdock ($Id: //depot/dev/client3/rdock/2013.1/src/exe/rbdock.cxx#4 $)

>  <Rbt.Library>
libRbt.so (2013.1, Build901 2013/11/27)

>  <Rbt.Parameter_File>
/export/apps/rDock/src/rDock_2013.1_src/data/scripts/dock_solv.prm

>  <Rbt.Receptor>
prm/pocket_docking_5.prm

>  <SCORE>
-17.1429

>  <SCORE.INTER>
-18.4528

>  <SCORE.INTER.CONST>
1

>  <SCORE.INTER.POLAR>
0

>  <SCORE.INTER.ROT>
7

>  <SCORE.INTER.SOLV>
16.1096

>  <SCORE.INTER.VDW>
-25.9384

>  <SCORE.INTER.norm>
-0.683438

>  <SCORE.INTRA>
1.30995

>  <SCORE.INTRA.DIHEDRAL>
1.46548

>  <SCORE.INTRA.DIHEDRAL.0>
4.28829

>  <SCORE.INTRA.POLAR>
0

>  <SCORE.INTRA.POLAR.0>
0

>  <SCORE.INTRA.REPUL>
0

>  <SCORE.INTRA.REPUL.0>
0

>  <SCORE.INTRA.SOLV>
-0.570672

>  <SCORE.INTRA.SOLV.lig_0>
-48.6018

>  <SCORE.INTRA.VDW>
0.862545

>  <SCORE.INTRA.VDW.0>
-2.1506

>  <SCORE.INTRA.norm>
0.0485166

>  <SCORE.RESTR>
0

>  <SCORE.RESTR.CAVITY>
0

>  <SCORE.RESTR.norm>
0

>  <SCORE.SYSTEM>
0

>  <SCORE.SYSTEM.CONST>
0

>  <SCORE.SYSTEM.DIHEDRAL>
0

>  <SCORE.SYSTEM.SOLV>
0

>  <SCORE.SYSTEM.norm>
0

>  <SCORE.heavy>
27

>  <SCORE.norm>
-0.634922

>  <RMSD>
6.436

$$$$
ligand
 OpenBabel11021811483D
libRbt.so/2013.1/901 2013/11/27
 27 29  0  0  0  0  0  0  0  0999 V2000
   14.3193   -9.3620    5.5640 N   0  0  0  0  0  0  0  0  0  0  0  0
   14.7958   -8.4728    4.5028 C   0  0  2  0  0  0  0  0  0  0  0  0
   14.6473   -9.0037    3.0749 C   0  0  0  0  0  0  0  0  0  0  0  0
   15.1837  -10.0712    2.7810 O   0  0  0  0  0  0  0  0  0  0  0  0
   16.2272   -8.0344    4.7632 C   0  0  0  0  0  0  0  0  0  0  0  0
   16.3073   -7.0411    5.9096 C   0  0  0  0  0  0  0  0  0  0  0  0
   17.8779   -6.1592    5.8792 S   0  0  2  0  0  0  0  0  0  0  0  0
   18.9754   -7.4532    6.4958 C   0  0  0  0  0  0  0  0  0  0  0  0
   17.7225   -5.1573    7.3761 C   0  0  0  0  0  0  0  0  0  0  0  0
   16.4989   -4.2626    7.3040 C   0  0  1  0  0  0  0  0  0  0  0  0
   15.3219   -5.0149    7.4908 O   0  0  0  0  0  0  0  0  0  0  0  0
   16.4742   -3.2129    8.3976 C   0  0  1  0  0  0  0  0  0  0  0  0
   17.0676   -2.0402    7.8999 O   0  0  0  0  0  0  0  0  0  0  0  0
   14.9958   -3.0071    8.6584 C   0  0  1  0  0  0  0  0  0  0  0  0
   14.6065   -1.8380    7.9732 O   0  0  0  0  0  0  0  0  0  0  0  0
   14.2936   -4.2355    8.0757 C   0  0  2  0  0  0  0  0  0  0  0  0
   14.0166   -8.4058    2.1989 O   0  0  0  0  0  0  0  0  0  0  0  0
   14.4945   -5.4439   13.1667 N   0  0  0  0  0  0  0  0  0  0  0  0
   15.2593   -4.5272   12.4870 C   0  0  0  0  0  0  0  0  0  0  0  0
   15.0570   -4.3510   11.1358 N   0  0  0  0  0  0  0  0  0  0  0  0
   14.1186   -5.0616   10.4708 C   0  0  0  0  0  0  0  0  0  0  0  0
   13.3291   -5.9808   11.1463 C   0  0  0  0  0  0  0  0  0  0  0  0
   13.5289   -6.1777   12.5110 C   0  0  0  0  0  0  0  0  0  0  0  0
   12.7949   -7.0567   13.1939 N   0  0  0  0  0  0  0  0  0  0  0  0
   12.4757   -6.5374   10.2485 N   0  0  0  0  0  0  0  0  0  0  0  0
   12.7062   -5.9742    9.0401 C   0  0  0  0  0  0  0  0  0  0  0  0
   13.7165   -5.0523    9.1620 N   0  0  0  0  0  0  0  0  0  0  0  0
  2  1  1  1  0  0  0
  2  3  1  0  0  0  0
  2  5  1  0  0  0  0
  3  4  1  0  0  0  0
  3 17  1  0  0  0  0
  5  6  1  0  0  0  0
  7  6  1  1  0  0  0
  7  8  1  0  0  0  0
  7  9  1  0  0  0  0
 10  9  1  1  0  0  0
 10 11  1  0  0  0  0
 10 12  1  0  0  0  0
 11 16  1  0  0  0  0
 12 13  1  6  0  0  0
 12 14  1  0  0  0  0
 14 15  1  6  0  0  0
 14 16  1  0  0  0  0
 16 27  1  1  0  0  0
 18 19  2  0  0  0  0
 18 23  1  0  0  0  0
 19 20  1  0  0  0  0
 20 21  2  0  0  0  0
 21 22  1  0  0  0  0
 21 27  1  0  0  0  0
 22 23  2  0  0  0  0
 22 25  1  0  0  0  0
 23 24  1  0  0  0  0
 25 26  2  0  0  0  0
 26 27  1  0  0  0  0
M  END
>  <CHROM.1>
-57.79569819,-72.28820606,-162.50304173,-74.89403349,-58.59795659,74.06826647
90.75183231,15.24251477,-5.90142774,7.82357598,1.29513501,-0.82795176,-2.22584422

>  <Name>
ligand

>  <RI>
0

>  <Rbt.Current_Directory>
/home/itssahil/PROJECTS/Mol_Feturizer/New_Systems/rnas/3GX5

>  <Rbt.Executable>
rbdock ($Id: //depot/dev/client3/rdock/2013.1/src/exe/rbdock.cxx#4 $)

>  <Rbt.Library>
libRbt.so (2013.1, Build901 2013/11/27)

>  <Rbt.Parameter_File>
/export/apps/rDock/src/rDock_2013.1_src/data/scripts/dock_solv.prm

>  <Rbt.Receptor>
prm/pocket_docking_5.prm

>  <SCORE>
-17.0099

>  <SCORE.INTER>
-18.4451

>  <SCORE.INTER.CONST>
1

>  <SCORE.INTER.POLAR>
0

>  <SCORE.INTER.ROT>
7

>  <SCORE.INTER.SOLV>
16.0398

>  <SCORE.INTER.VDW>
-25.91

>  <SCORE.INTER.norm>
-0.683152

>  <SCORE.INTRA>
1.43517

>  <SCORE.INTRA.DIHEDRAL>
1.8569

>  <SCORE.INTRA.DIHEDRAL.0>
4.28829

>  <SCORE.INTRA.POLAR>
0

>  <SCORE.INTRA.POLAR.0>
0

>  <SCORE.INTRA.REPUL>
0

>  <SCORE.INTRA.REPUL.0>
0

>  <SCORE.INTRA.SOLV>
-0.581425

>  <SCORE.INTRA.SOLV.lig_0>
-48.6018

>  <SCORE.INTRA.VDW>
0.797435

>  <SCORE.INTRA.VDW.0>
-2.1506

>  <SCORE.INTRA.norm>
0.0531546

>  <SCORE.RESTR>
0

>  <SCORE.RESTR.CAVITY>
0

>  <SCORE.RESTR.norm>
0

>  <SCORE.SYSTEM>
0

>  <SCORE.SYSTEM.CONST>
0

>  <SCORE.SYSTEM.DIHEDRAL>
0

>  <SCORE.SYSTEM.SOLV>
0

>  <SCORE.SYSTEM.norm>
0

>  <SCORE.heavy>
27

>  <SCORE.norm>
-0.629998

>  <RMSD>
6.441

$$$$
ligand
 OpenBabel11021811483D
libRbt.so/2013.1/901 2013/11/27
 27 29  0  0  0  0  0  0  0  0999 V2000
   14.8292   -8.3580    6.7382 N   0  0  0  0  0  0  0  0  0  0  0  0
   13.4890   -7.7854    6.5974 C   0  0  2  0  0  0  0  0  0  0  0  0
   13.1087   -7.3234    5.1886 C   0  0  0  0  0  0  0  0  0  0  0  0
   12.4690   -8.0875    4.4670 O   0  0  0  0  0  0  0  0  0  0  0  0
   13.2666   -6.6687    7.6036 C   0  0  0  0  0  0  0  0  0  0  0  0
   14.3718   -5.6287    7.5370 C   0  0  0  0  0  0  0  0  0  0  0  0
   13.8863   -4.1274    8.4064 S   0  0  2  0  0  0  0  0  0  0  0  0
   12.8323   -3.3671    7.1534 C   0  0  0  0  0  0  0  0  0  0  0  0
   15.3770   -3.1267    8.1937 C   0  0  0  0  0  0  0  0  0  0  0  0
   16.4971   -3.6273    9.0869 C   0  0  1  0  0  0  0  0  0  0  0  0
   16.0453   -3.7768   10.4134 O   0  0  0  0  0  0  0  0  0  0  0  0
   17.0001   -4.9996    8.6841 C   0  0  1  0  0  0  0  0  0  0  0  0
   18.0899   -4.8339    7.8123 O   0  0  0  0  0  0  0  0  0  0  0  0
   17.4411   -5.6150    9.9967 C   0  0  1  0  0  0  0  0  0  0  0  0
   18.8423   -5.4796   10.0751 O   0  0  0  0  0  0  0  0  0  0  0  0
   16.7558   -4.7967   11.0932 C   0  0  2  0  0  0  0  0  0  0  0  0
   13.4198   -6.2174    4.7383 O   0  0  0  0  0  0  0  0  0  0  0  0
   15.4507   -9.6026   12.7113 N   0  0  0  0  0  0  0  0  0  0  0  0
   16.5999   -9.2130   12.0674 C   0  0  0  0  0  0  0  0  0  0  0  0
   16.7605   -7.8902   11.7177 N   0  0  0  0  0  0  0  0  0  0  0  0
   15.8095   -6.9719   12.0000 C   0  0  0  0  0  0  0  0  0  0  0  0
   14.6498   -7.3476   12.6622 C   0  0  0  0  0  0  0  0  0  0  0  0
   14.4681   -8.6837   13.0133 C   0  0  0  0  0  0  0  0  0  0  0  0
   13.3645   -9.0851   13.6446 N   0  0  0  0  0  0  0  0  0  0  0  0
   13.8826   -6.2386   12.8225 N   0  0  0  0  0  0  0  0  0  0  0  0
   14.5454   -5.1853   12.2916 C   0  0  0  0  0  0  0  0  0  0  0  0
   15.7444   -5.6214   11.7840 N   0  0  0  0  0  0  0  0  0  0  0  0
  2  1  1  6  0  0  0
  2  3  1  0  0  0  0
  2  5  1  0  0  0  0
  3  4  1  0  0  0  0
  3 17  1  0  0  0  0
  5  6  1  0  0  0  0
  7  6  1  6  0  0  0
  7  8  1  0  0  0  0
  7  9  1  0  0  0  0
 10  9  1  6  0  0  0
 10 11  1  0  0  0  0
 10 12  1  0  0  0  0
 11 16  1  0  0  0  0
 12 13  1  6  0  0  0
 12 14  1  0  0  0  0
 14 15  1  1  0  0  0
 14 16  1  0  0  0  0
 16 27  1  6  0  0  0
 18 19  2  0  0  0  0
 18 23  1  0  0  0  0
 19 20  1  0  0  0  0
 20 21  2  0  0  0  0
 21 22  1  0  0  0  0
 21 27  1  0  0  0  0
 22 23  2  0  0  0  0
 22 25  1  0  0  0  0
 23 24  1  0  0  0  0
 25 26  2  0  0  0  0
 26 27  1  0  0  0  0
M  END
>  <CHROM.1>
95.85101421,52.76038810,165.31035374,-79.53777190,-73.89509722,-50.21421657
146.16296733,15.09436352,-6.13636447,9.41662285,2.03947457,-0.90508474,-0.96885014

>  <Name>
ligand

>  <RI>
0

>  <Rbt.Current_Directory>
/home/itssahil/PROJECTS/Mol_Feturizer/New_Systems/rnas/3GX5

>  <Rbt.Executable>
rbdock ($Id: //depot/dev/client3/rdock/2013.1/src/exe/rbdock.cxx#4 $)

>  <Rbt.Library>
libRbt.so (2013.1, Build901 2013/11/27)

>  <Rbt.Parameter_File>
/export/apps/rDock/src/rDock_2013.1_src/data/scripts/dock_solv.prm

>  <Rbt.Receptor>
prm/pocket_docking_5.prm

>  <SCORE>
-11.3298

>  <SCORE.INTER>
-12.2785

>  <SCORE.INTER.CONST>
1

>  <SCORE.INTER.POLAR>
0

>  <SCORE.INTER.ROT>
7

>  <SCORE.INTER.SOLV>
7.27667

>  <SCORE.INTER.VDW>
-18.8779

>  <SCORE.INTER.norm>
-0.454759

>  <SCORE.INTRA>
0.948742

>  <SCORE.INTRA.DIHEDRAL>
0.945972

>  <SCORE.INTRA.DIHEDRAL.0>
4.28829

>  <SCORE.INTRA.POLAR>
0

>  <SCORE.INTRA.POLAR.0>
0

>  <SCORE.INTRA.REPUL>
0

>  <SCORE.INTRA.REPUL.0>
0

>  <SCORE.INTRA.SOLV>
-0.0844971

>  <SCORE.INTRA.SOLV.lig_0>
-48.6018

>  <SCORE.INTRA.VDW>
0.518004

>  <SCORE.INTRA.VDW.0>
-2.1506

>  <SCORE.INTRA.norm>
0.0351386

>  <SCORE.RESTR>
0

>  <SCORE.RESTR.CAVITY>
0

>  <SCORE.RESTR.norm>
0

>  <SCORE.SYSTEM>
0

>  <SCORE.SYSTEM.CONST>
0

>  <SCORE.SYSTEM.DIHEDRAL>
0

>  <SCORE.SYSTEM.SOLV>
0

>  <SCORE.SYSTEM.norm>
0

>  <SCORE.heavy>
27

>  <SCORE.norm>
-0.41962

>  <RMSD>
6.485

$$$$
ligand
 OpenBabel11021811483D
libRbt.so/2013.1/901 2013/11/27
 27 29  0  0  0  0  0  0  0  0999 V2000
   14.3188   -8.8987    4.6880 N   0  0  0  0  0  0  0  0  0  0  0  0
   15.0672   -7.7266    5.1464 C   0  0  2  0  0  0  0  0  0  0  0  0
   16.3427   -8.0214    5.9395 C   0  0  0  0  0  0  0  0  0  0  0  0
   16.3874   -9.0361    6.6338 O   0  0  0  0  0  0  0  0  0  0  0  0
   14.1676   -6.7747    5.9168 C   0  0  0  0  0  0  0  0  0  0  0  0
   14.8856   -5.4801    6.2572 C   0  0  0  0  0  0  0  0  0  0  0  0
   13.8383   -4.4179    7.2672 S   0  0  2  0  0  0  0  0  0  0  0  0
   12.8113   -3.6764    5.9808 C   0  0  0  0  0  0  0  0  0  0  0  0
   14.9687   -3.0421    7.5806 C   0  0  0  0  0  0  0  0  0  0  0  0
   15.8425   -3.3239    8.7889 C   0  0  1  0  0  0  0  0  0  0  0  0
   15.0604   -3.4083    9.9583 O   0  0  0  0  0  0  0  0  0  0  0  0
   16.5598   -4.6562    8.6966 C   0  0  1  0  0  0  0  0  0  0  0  0
   17.8267   -4.4391    8.1283 O   0  0  0  0  0  0  0  0  0  0  0  0
   16.6790   -5.0957   10.1419 C   0  0  1  0  0  0  0  0  0  0  0  0
   17.9868   -4.7870   10.5689 O   0  0  0  0  0  0  0  0  0  0  0  0
   15.6479   -4.2715   10.9158 C   0  0  2  0  0  0  0  0  0  0  0  0
   17.3310   -7.2827    5.9196 O   0  0  0  0  0  0  0  0  0  0  0  0
   13.9227   -7.2135   14.8890 N   0  0  0  0  0  0  0  0  0  0  0  0
   15.0756   -6.4689   14.8300 C   0  0  0  0  0  0  0  0  0  0  0  0
   15.3592   -5.7562   13.6857 N   0  0  0  0  0  0  0  0  0  0  0  0
   14.5221   -5.7757   12.6244 C   0  0  0  0  0  0  0  0  0  0  0  0
   13.3473   -6.5119   12.6743 C   0  0  0  0  0  0  0  0  0  0  0  0
   13.0516   -7.2461   13.8209 C   0  0  0  0  0  0  0  0  0  0  0  0
   11.9358   -7.9711   13.9047 N   0  0  0  0  0  0  0  0  0  0  0  0
   12.7010   -6.3474   11.4913 N   0  0  0  0  0  0  0  0  0  0  0  0
   13.4377   -5.5161   10.7187 C   0  0  0  0  0  0  0  0  0  0  0  0
   14.5660   -5.1469   11.4088 N   0  0  0  0  0  0  0  0  0  0  0  0
  2  1  1  1  0  0  0
  2  3  1  0  0  0  0
  2  5  1  0  0  0  0
  3  4  1  0  0  0  0
  3 17  1  0  0  0  0
  5  6  1  0  0  0  0
  7  6  1  6  0  0  0
  7  8  1  0  0  0  0
  7  9  1  0  0  0  0
 10  9  1  6  0  0  0
 10 11  1  0  0  0  0
 10 12  1  0  0  0  0
 11 16  1  0  0  0  0
 12 13  1  1  0  0  0
 12 14  1  0  0  0  0
 14 15  1  1  0  0  0
 14 16  1  0  0  0  0
 16 27  1  6  0  0  0
 18 19  2  0  0  0  0
 18 23  1  0  0  0  0
 19 20  1  0  0  0  0
 20 21  2  0  0  0  0
 21 22  1  0  0  0  0
 21 27  1  0  0  0  0
 22 23  2  0  0  0  0
 22 25  1  0  0  0  0
 23 24  1  0  0  0  0
 25 26  2  0  0  0  0
 26 27  1  0  0  0  0
M  END
>  <CHROM.1>
-31.40411655,-173.27611597,-176.05950047,-81.27113265,-86.07765348,-64.64203094
-154.73107283,14.95011025,-5.77655953,9.36948065,1.14004105,-1.14358755,-1.96863293

>  <Name>
ligand

>  <RI>
0

>  <Rbt.Current_Directory>
/home/itssahil/PROJECTS/Mol_Feturizer/New_Systems/rnas/3GX5

>  <Rbt.Executable>
rbdock ($Id: //depot/dev/client3/rdock/2013.1/src/exe/rbdock.cxx#4 $)

>  <Rbt.Library>
libRbt.so (2013.1, Build901 2013/11/27)

>  <Rbt.Parameter_File>
/export/apps/rDock/src/rDock_2013.1_src/data/scripts/dock_solv.prm

>  <Rbt.Receptor>
prm/pocket_docking_7.prm

>  <SCORE>
-14.642

>  <SCORE.INTER>
-14.1749

>  <SCORE.INTER.CONST>
1

>  <SCORE.INTER.POLAR>
0

>  <SCORE.INTER.ROT>
7

>  <SCORE.INTER.SOLV>
11.0413

>  <SCORE.INTER.VDW>
-21.397

>  <SCORE.INTER.norm>
-0.524995

>  <SCORE.INTRA>
-0.467118

>  <SCORE.INTRA.DIHEDRAL>
0.577085

>  <SCORE.INTRA.DIHEDRAL.0>
4.28829

>  <SCORE.INTRA.POLAR>
0

>  <SCORE.INTRA.POLAR.0>
0

>  <SCORE.INTRA.REPUL>
0

>  <SCORE.INTRA.REPUL.0>
0

>  <SCORE.INTRA.SOLV>
-0.922934

>  <SCORE.INTRA.SOLV.lig_0>
-48.6018

>  <SCORE.INTRA.VDW>
-0.294194

>  <SCORE.INTRA.VDW.0>
-2.1506

>  <SCORE.INTRA.norm>
-0.0173007

>  <SCORE.RESTR>
0

>  <SCORE.RESTR.CAVITY>
0

>  <SCORE.RESTR.norm>
0

>  <SCORE.SYSTEM>
0

>  <SCORE.SYSTEM.CONST>
0

>  <SCORE.SYSTEM.DIHEDRAL>
0

>  <SCORE.SYSTEM.SOLV>
0

>  <SCORE.SYSTEM.norm>
0

>  <SCORE.heavy>
27

>  <SCORE.norm>
-0.542295

>  <RMSD>
6.492

$$$$
ligand
 OpenBabel11021811483D
libRbt.so/2013.1/901 2013/11/27
 27 29  0  0  0  0  0  0  0  0999 V2000
   14.4291   -8.3653    9.7704 N   0  0  0  0  0  0  0  0  0  0  0  0
   13.1265   -7.7210    9.5914 C   0  0  2  0  0  0  0  0  0  0  0  0
   11.9062   -8.5988    9.8801 C   0  0  0  0  0  0  0  0  0  0  0  0
   11.0723   -8.2047   10.6944 O   0  0  0  0  0  0  0  0  0  0  0  0
   13.0167   -7.0908    8.2132 C   0  0  0  0  0  0  0  0  0  0  0  0
   14.0262   -5.9708    8.0291 C   0  0  0  0  0  0  0  0  0  0  0  0
   13.3058   -4.3834    8.4836 S   0  0  2  0  0  0  0  0  0  0  0  0
   12.6461   -3.8695    6.8836 C   0  0  0  0  0  0  0  0  0  0  0  0
   14.7899   -3.3526    8.5427 C   0  0  0  0  0  0  0  0  0  0  0  0
   15.5976   -3.6379    9.7954 C   0  0  1  0  0  0  0  0  0  0  0  0
   14.7543   -3.7226   10.9214 O   0  0  0  0  0  0  0  0  0  0  0  0
   16.3164   -4.9715    9.7392 C   0  0  1  0  0  0  0  0  0  0  0  0
   17.6121   -4.7561    9.2395 O   0  0  0  0  0  0  0  0  0  0  0  0
   16.3577   -5.4134   11.1881 C   0  0  1  0  0  0  0  0  0  0  0  0
   17.6415   -5.1080   11.6845 O   0  0  0  0  0  0  0  0  0  0  0  0
   15.2884   -4.5883   11.9074 C   0  0  2  0  0  0  0  0  0  0  0  0
   11.7214   -9.6908    9.3361 O   0  0  0  0  0  0  0  0  0  0  0  0
   13.6185   -8.0140   15.4983 N   0  0  0  0  0  0  0  0  0  0  0  0
   14.8165   -7.3425   15.4667 C   0  0  0  0  0  0  0  0  0  0  0  0
   15.0754   -6.4754   14.4281 N   0  0  0  0  0  0  0  0  0  0  0  0
   14.1707   -6.2732   13.4441 C   0  0  0  0  0  0  0  0  0  0  0  0
   12.9509   -6.9335   13.4697 C   0  0  0  0  0  0  0  0  0  0  0  0
   12.6786   -7.8215   14.5082 C   0  0  0  0  0  0  0  0  0  0  0  0
   11.5206   -8.4799   14.5643 N   0  0  0  0  0  0  0  0  0  0  0  0
   12.2416   -6.5425   12.3796 N   0  0  0  0  0  0  0  0  0  0  0  0
   12.9846   -5.6459   11.6907 C   0  0  0  0  0  0  0  0  0  0  0  0
   14.1801   -5.4624   12.3407 N   0  0  0  0  0  0  0  0  0  0  0  0
  2  1  1  6  0  0  0
  2  3  1  0  0  0  0
  2  5  1  0  0  0  0
  3  4  1  0  0  0  0
  3 17  1  0  0  0  0
  5  6  1  0  0  0  0
  7  6  1  6  0  0  0
  7  8  1  0  0  0  0
  7  9  1  0  0  0  0
 10  9  1  6  0  0  0
 10 11  1  0  0  0  0
 10 12  1  0  0  0  0
 11 16  1  0  0  0  0
 12 13  1  1  0  0  0
 12 14  1  0  0  0  0
 14 15  1  1  0  0  0
 14 16  1  0  0  0  0
 16 27  1  6  0  0  0
 18 19  2  0  0  0  0
 18 23  1  0  0  0  0
 19 20  1  0  0  0  0
 20 21  2  0  0  0  0
 21 22  1  0  0  0  0
 21 27  1  0  0  0  0
 22 23  2  0  0  0  0
 22 25  1  0  0  0  0
 23 24  1  0  0  0  0
 25 26  2  0  0  0  0
 26 27  1  0  0  0  0
M  END
>  <CHROM.1>
125.10430479,-63.79377721,-92.34638429,-90.82116309,-75.15749263,-44.36593645
-166.82357775,13.97913305,-6.13351160,10.96803229,1.90106911,0.69401155,1.89609275

>  <Name>
ligand

>  <RI>
0

>  <Rbt.Current_Directory>
/home/itssahil/PROJECTS/Mol_Feturizer/New_Systems/rnas/3GX5

>  <Rbt.Executable>
rbdock ($Id: //depot/dev/client3/rdock/2013.1/src/exe/rbdock.cxx#4 $)

>  <Rbt.Library>
libRbt.so (2013.1, Build901 2013/11/27)

>  <Rbt.Parameter_File>
/export/apps/rDock/src/rDock_2013.1_src/data/scripts/dock_solv.prm

>  <Rbt.Receptor>
prm/pocket_docking_6.prm

>  <SCORE>
-13.2897

>  <SCORE.INTER>
-14.0766

>  <SCORE.INTER.CONST>
1

>  <SCORE.INTER.POLAR>
0

>  <SCORE.INTER.ROT>
7

>  <SCORE.INTER.SOLV>
8.52403

>  <SCORE.INTER.VDW>
-20.4924

>  <SCORE.INTER.norm>
-0.521356

>  <SCORE.INTRA>
0.786905

>  <SCORE.INTRA.DIHEDRAL>
4.4816

>  <SCORE.INTRA.DIHEDRAL.0>
4.28829

>  <SCORE.INTRA.POLAR>
0

>  <SCORE.INTRA.POLAR.0>
0

>  <SCORE.INTRA.REPUL>
0

>  <SCORE.INTRA.REPUL.0>
0

>  <SCORE.INTRA.SOLV>
1.63248

>  <SCORE.INTRA.SOLV.lig_0>
-48.6018

>  <SCORE.INTRA.VDW>
-2.27013

>  <SCORE.INTRA.VDW.0>
-2.1506

>  <SCORE.INTRA.norm>
0.0291446

>  <SCORE.RESTR>
0

>  <SCORE.RESTR.CAVITY>
0

>  <SCORE.RESTR.norm>
0

>  <SCORE.SYSTEM>
0

>  <SCORE.SYSTEM.CONST>
0

>  <SCORE.SYSTEM.DIHEDRAL>
0

>  <SCORE.SYSTEM.SOLV>
0

>  <SCORE.SYSTEM.norm>
0

>  <SCORE.heavy>
27

>  <SCORE.norm>
-0.492211

>  <RMSD>
6.509

$$$$
ligand
 OpenBabel11021811483D
libRbt.so/2013.1/901 2013/11/27
 27 29  0  0  0  0  0  0  0  0999 V2000
   13.4180   -9.3777    5.7923 N   0  0  0  0  0  0  0  0  0  0  0  0
   14.3429   -8.6367    4.9324 C   0  0  2  0  0  0  0  0  0  0  0  0
   15.6466   -9.3580    4.5821 C   0  0  0  0  0  0  0  0  0  0  0  0
   15.7894   -9.8048    3.4447 O   0  0  0  0  0  0  0  0  0  0  0  0
   14.6321   -7.2593    5.5051 C   0  0  0  0  0  0  0  0  0  0  0  0
   13.4032   -6.3674    5.4628 C   0  0  0  0  0  0  0  0  0  0  0  0
   13.4209   -5.1940    6.8296 S   0  0  2  0  0  0  0  0  0  0  0  0
   12.5742   -3.7998    6.0560 C   0  0  0  0  0  0  0  0  0  0  0  0
   15.1264   -4.6017    6.7335 C   0  0  0  0  0  0  0  0  0  0  0  0
   15.5511   -3.9601    8.0416 C   0  0  1  0  0  0  0  0  0  0  0  0
   14.8926   -4.5676    9.1294 O   0  0  0  0  0  0  0  0  0  0  0  0
   17.0297   -4.1344    8.3278 C   0  0  1  0  0  0  0  0  0  0  0  0
   17.7129   -3.0118    7.8298 O   0  0  0  0  0  0  0  0  0  0  0  0
   17.0944   -4.1848    9.8409 C   0  0  1  0  0  0  0  0  0  0  0  0
   17.4883   -2.9069   10.2878 O   0  0  0  0  0  0  0  0  0  0  0  0
   15.6742   -4.5085   10.3095 C   0  0  2  0  0  0  0  0  0  0  0  0
   16.5635   -9.5181    5.3924 O   0  0  0  0  0  0  0  0  0  0  0  0
   15.6510   -9.6613    9.3787 N   0  0  0  0  0  0  0  0  0  0  0  0
   15.7321   -8.6397    8.4638 C   0  0  0  0  0  0  0  0  0  0  0  0
   15.7218   -7.3357    8.9078 N   0  0  0  0  0  0  0  0  0  0  0  0
   15.6363   -7.0464   10.2256 C   0  0  0  0  0  0  0  0  0  0  0  0
   15.5678   -8.0674   11.1622 C   0  0  0  0  0  0  0  0  0  0  0  0
   15.5667   -9.3914   10.7281 C   0  0  0  0  0  0  0  0  0  0  0  0
   15.4955  -10.4002   11.5969 N   0  0  0  0  0  0  0  0  0  0  0  0
   15.4994   -7.5000   12.3941 N   0  0  0  0  0  0  0  0  0  0  0  0
   15.5406   -6.1560   12.2437 C   0  0  0  0  0  0  0  0  0  0  0  0
   15.6327   -5.8584   10.9063 N   0  0  0  0  0  0  0  0  0  0  0  0
  2  1  1  1  0  0  0
  2  3  1  0  0  0  0
  2  5  1  0  0  0  0
  3  4  1  0  0  0  0
  3 17  1  0  0  0  0
  5  6  1  0  0  0  0
  7  6  1  6  0  0  0
  7  8  1  0  0  0  0
  7  9  1  0  0  0  0
 10  9  1  6  0  0  0
 10 11  1  0  0  0  0
 10 12  1  0  0  0  0
 11 16  1  0  0  0  0
 12 13  1  1  0  0  0
 12 14  1  0  0  0  0
 14 15  1  1  0  0  0
 14 16  1  0  0  0  0
 16 27  1  6  0  0  0
 18 19  2  0  0  0  0
 18 23  1  0  0  0  0
 19 20  1  0  0  0  0
 20 21  2  0  0  0  0
 21 22  1  0  0  0  0
 21 27  1  0  0  0  0
 22 23  2  0  0  0  0
 22 25  1  0  0  0  0
 23 24  1  0  0  0  0
 25 26  2  0  0  0  0
 26 27  1  0  0  0  0
M  END
>  <CHROM.1>
106.44000127,-67.73728835,149.34252951,148.26304065,-160.71749220,31.09087597
37.08987040,15.33695656,-6.59345121,8.17383700,-2.70867471,-1.33335328,-0.12517164

>  <Name>
ligand

>  <RI>
0

>  <Rbt.Current_Directory>
/home/itssahil/PROJECTS/Mol_Feturizer/New_Systems/rnas/3GX5

>  <Rbt.Executable>
rbdock ($Id: //depot/dev/client3/rdock/2013.1/src/exe/rbdock.cxx#4 $)

>  <Rbt.Library>
libRbt.so (2013.1, Build901 2013/11/27)

>  <Rbt.Parameter_File>
/export/apps/rDock/src/rDock_2013.1_src/data/scripts/dock_solv.prm

>  <Rbt.Receptor>
prm/pocket_docking_3.prm

>  <SCORE>
-2.98172

>  <SCORE.INTER>
-6.26997

>  <SCORE.INTER.CONST>
1

>  <SCORE.INTER.POLAR>
0

>  <SCORE.INTER.ROT>
7

>  <SCORE.INTER.SOLV>
16.7568

>  <SCORE.INTER.VDW>
-18.0323

>  <SCORE.INTER.norm>
-0.232221

>  <SCORE.INTRA>
3.28825

>  <SCORE.INTRA.DIHEDRAL>
8.05348

>  <SCORE.INTRA.DIHEDRAL.0>
4.28829

>  <SCORE.INTRA.POLAR>
0

>  <SCORE.INTRA.POLAR.0>
0

>  <SCORE.INTRA.REPUL>
0

>  <SCORE.INTRA.REPUL.0>
0

>  <SCORE.INTRA.SOLV>
-0.0925957

>  <SCORE.INTRA.SOLV.lig_0>
-48.6018

>  <SCORE.INTRA.VDW>
-0.692193

>  <SCORE.INTRA.VDW.0>
-2.1506

>  <SCORE.INTRA.norm>
0.121787

>  <SCORE.RESTR>
0

>  <SCORE.RESTR.CAVITY>
0

>  <SCORE.RESTR.norm>
0

>  <SCORE.SYSTEM>
0

>  <SCORE.SYSTEM.CONST>
0

>  <SCORE.SYSTEM.DIHEDRAL>
0

>  <SCORE.SYSTEM.SOLV>
0

>  <SCORE.SYSTEM.norm>
0

>  <SCORE.heavy>
27

>  <SCORE.norm>
-0.110434

>  <RMSD>
6.523

$$$$
ligand
 OpenBabel11021811483D
libRbt.so/2013.1/901 2013/11/27
 27 29  0  0  0  0  0  0  0  0999 V2000
   15.3918   -8.0660   11.7041 N   0  0  0  0  0  0  0  0  0  0  0  0
   15.2381   -9.2638   10.8761 C   0  0  2  0  0  0  0  0  0  0  0  0
   14.4961  -10.4322   11.5295 C   0  0  0  0  0  0  0  0  0  0  0  0
   13.7191  -11.0973   10.8457 O   0  0  0  0  0  0  0  0  0  0  0  0
   16.5796   -9.7222   10.3294 C   0  0  0  0  0  0  0  0  0  0  0  0
   17.5731   -9.9970   11.4451 C   0  0  0  0  0  0  0  0  0  0  0  0
   19.1125  -10.6543   10.7792 S   0  0  2  0  0  0  0  0  0  0  0  0
   20.0395  -10.8918   12.3100 C   0  0  0  0  0  0  0  0  0  0  0  0
   19.8917   -9.1339   10.1879 C   0  0  0  0  0  0  0  0  0  0  0  0
   20.3883   -9.2986    8.7634 C   0  0  1  0  0  0  0  0  0  0  0  0
   19.4452  -10.0014    7.9870 O   0  0  0  0  0  0  0  0  0  0  0  0
   20.5775   -7.9738    8.0509 C   0  0  1  0  0  0  0  0  0  0  0  0
   21.9126   -7.5678    8.2173 O   0  0  0  0  0  0  0  0  0  0  0  0
   20.2855   -8.3057    6.6016 C   0  0  1  0  0  0  0  0  0  0  0  0
   21.5249   -8.4658    5.9488 O   0  0  0  0  0  0  0  0  0  0  0  0
   19.5101   -9.6247    6.6228 C   0  0  2  0  0  0  0  0  0  0  0  0
   14.6370  -10.7365   12.7171 O   0  0  0  0  0  0  0  0  0  0  0  0
   16.2270   -9.4309    2.5483 N   0  0  0  0  0  0  0  0  0  0  0  0
   17.5690   -9.7246    2.5364 C   0  0  0  0  0  0  0  0  0  0  0  0
   18.2691   -9.7236    3.7227 N   0  0  0  0  0  0  0  0  0  0  0  0
   17.6578   -9.4420    4.8952 C   0  0  0  0  0  0  0  0  0  0  0  0
   16.3004   -9.1573    4.9249 C   0  0  0  0  0  0  0  0  0  0  0  0
   15.5807   -9.1442    3.7319 C   0  0  0  0  0  0  0  0  0  0  0  0
   14.2763   -8.8687    3.7184 N   0  0  0  0  0  0  0  0  0  0  0  0
   15.9509   -8.9240    6.2162 N   0  0  0  0  0  0  0  0  0  0  0  0
   17.0532   -9.0735    6.9865 C   0  0  0  0  0  0  0  0  0  0  0  0
   18.1181   -9.4016    6.1841 N   0  0  0  0  0  0  0  0  0  0  0  0
  2  1  1  1  0  0  0
  2  3  1  0  0  0  0
  2  5  1  0  0  0  0
  3  4  1  0  0  0  0
  3 17  1  0  0  0  0
  5  6  1  0  0  0  0
  7  6  1  1  0  0  0
  7  8  1  0  0  0  0
  7  9  1  0  0  0  0
 10  9  1  1  0  0  0
 10 11  1  0  0  0  0
 10 12  1  0  0  0  0
 11 16  1  0  0  0  0
 12 13  1  6  0  0  0
 12 14  1  0  0  0  0
 14 15  1  6  0  0  0
 14 16  1  0  0  0  0
 16 27  1  1  0  0  0
 18 19  2  0  0  0  0
 18 23  1  0  0  0  0
 19 20  1  0  0  0  0
 20 21  2  0  0  0  0
 21 22  1  0  0  0  0
 21 27  1  0  0  0  0
 22 23  2  0  0  0  0
 22 25  1  0  0  0  0
 23 24  1  0  0  0  0
 25 26  2  0  0  0  0
 26 27  1  0  0  0  0
M  END
>  <CHROM.1>
141.02593437,57.42908868,175.80874470,-179.15085755,-130.87803657,41.64743589
-157.79611036,17.78447204,-9.48148847,8.03399612,1.66826233,0.13448610,1.69370170

>  <Name>
ligand

>  <RI>
0

>  <Rbt.Current_Directory>
/home/itssahil/PROJECTS/Mol_Feturizer/New_Systems/rnas/3GX5

>  <Rbt.Executable>
rbdock ($Id: //depot/dev/client3/rdock/2013.1/src/exe/rbdock.cxx#4 $)

>  <Rbt.Library>
libRbt.so (2013.1, Build901 2013/11/27)

>  <Rbt.Parameter_File>
/export/apps/rDock/src/rDock_2013.1_src/data/scripts/dock_solv.prm

>  <Rbt.Receptor>
prm/pocket_docking_7.prm

>  <SCORE>
-7.89471

>  <SCORE.INTER>
-9.48539

>  <SCORE.INTER.CONST>
1

>  <SCORE.INTER.POLAR>
0

>  <SCORE.INTER.ROT>
7

>  <SCORE.INTER.SOLV>
11.4206

>  <SCORE.INTER.VDW>
-18.3971

>  <SCORE.INTER.norm>
-0.351311

>  <SCORE.INTRA>
1.5862

>  <SCORE.INTRA.DIHEDRAL>
4.87516

>  <SCORE.INTRA.DIHEDRAL.0>
4.28829

>  <SCORE.INTRA.POLAR>
0

>  <SCORE.INTRA.POLAR.0>
0

>  <SCORE.INTRA.REPUL>
0

>  <SCORE.INTRA.REPUL.0>
0

>  <SCORE.INTRA.SOLV>
-0.518899

>  <SCORE.INTRA.SOLV.lig_0>
-48.6018

>  <SCORE.INTRA.VDW>
-0.59193

>  <SCORE.INTRA.VDW.0>
-2.1506

>  <SCORE.INTRA.norm>
0.0587482

>  <SCORE.RESTR>
0.00447603

>  <SCORE.RESTR.CAVITY>
0.00447603

>  <SCORE.RESTR.norm>
0.000165779

>  <SCORE.SYSTEM>
0

>  <SCORE.SYSTEM.CONST>
0

>  <SCORE.SYSTEM.DIHEDRAL>
0

>  <SCORE.SYSTEM.SOLV>
0

>  <SCORE.SYSTEM.norm>
0

>  <SCORE.heavy>
27

>  <SCORE.norm>
-0.292397

>  <RMSD>
6.542

$$$$
ligand
 OpenBabel11021811483D
libRbt.so/2013.1/901 2013/11/27
 27 29  0  0  0  0  0  0  0  0999 V2000
   15.6376   -8.9372    5.6917 N   0  0  0  0  0  0  0  0  0  0  0  0
   14.5350   -7.9856    5.5416 C   0  0  2  0  0  0  0  0  0  0  0  0
   13.7685   -8.0604    4.2188 C   0  0  0  0  0  0  0  0  0  0  0  0
   14.4018   -8.2112    3.1748 O   0  0  0  0  0  0  0  0  0  0  0  0
   15.0034   -6.5648    5.8075 C   0  0  0  0  0  0  0  0  0  0  0  0
   13.8496   -5.5780    5.7589 C   0  0  0  0  0  0  0  0  0  0  0  0
   13.6936   -4.7032    7.3260 S   0  0  2  0  0  0  0  0  0  0  0  0
   12.3627   -3.5557    6.9127 C   0  0  0  0  0  0  0  0  0  0  0  0
   15.1053   -3.5789    7.2178 C   0  0  0  0  0  0  0  0  0  0  0  0
   15.9863   -3.6961    8.4480 C   0  0  1  0  0  0  0  0  0  0  0  0
   15.2065   -3.6685    9.6216 O   0  0  0  0  0  0  0  0  0  0  0  0
   16.7411   -5.0095    8.5062 C   0  0  1  0  0  0  0  0  0  0  0  0
   18.0015   -4.8231    7.9133 O   0  0  0  0  0  0  0  0  0  0  0  0
   16.8722   -5.2776    9.9919 C   0  0  1  0  0  0  0  0  0  0  0  0
   18.1705   -4.8855   10.3771 O   0  0  0  0  0  0  0  0  0  0  0  0
   15.8178   -4.3998   10.6696 C   0  0  2  0  0  0  0  0  0  0  0  0
   12.5398   -7.9705    4.1493 O   0  0  0  0  0  0  0  0  0  0  0  0
   14.6030   -9.1187   12.5865 N   0  0  0  0  0  0  0  0  0  0  0  0
   15.8193   -8.6879   12.1153 C   0  0  0  0  0  0  0  0  0  0  0  0
   15.9413   -7.3985   11.6460 N   0  0  0  0  0  0  0  0  0  0  0  0
   14.8871   -6.5522   11.6445 C   0  0  0  0  0  0  0  0  0  0  0  0
   13.6561   -6.9685   12.1301 C   0  0  0  0  0  0  0  0  0  0  0  0
   13.5142   -8.2730   12.5986 C   0  0  0  0  0  0  0  0  0  0  0  0
   12.3458   -8.7124   13.0669 N   0  0  0  0  0  0  0  0  0  0  0  0
   12.7902   -5.9282   12.0196 N   0  0  0  0  0  0  0  0  0  0  0  0
   13.4584   -4.8756   11.4940 C   0  0  0  0  0  0  0  0  0  0  0  0
   14.7610   -5.2434   11.2624 N   0  0  0  0  0  0  0  0  0  0  0  0
  2  1  1  6  0  0  0
  2  3  1  0  0  0  0
  2  5  1  0  0  0  0
  3  4  1  0  0  0  0
  3 17  1  0  0  0  0
  5  6  1  0  0  0  0
  7  6  1  6  0  0  0
  7  8  1  0  0  0  0
  7  9  1  0  0  0  0
 10  9  1  6  0  0  0
 10 11  1  0  0  0  0
 10 12  1  0  0  0  0
 11 16  1  0  0  0  0
 12 13  1  1  0  0  0
 12 14  1  0  0  0  0
 14 15  1  1  0  0  0
 14 16  1  0  0  0  0
 16 27  1  6  0  0  0
 18 19  2  0  0  0  0
 18 23  1  0  0  0  0
 19 20  1  0  0  0  0
 20 21  2  0  0  0  0
 21 22  1  0  0  0  0
 21 27  1  0  0  0  0
 22 23  2  0  0  0  0
 22 25  1  0  0  0  0
 23 24  1  0  0  0  0
 25 26  2  0  0  0  0
 26 27  1  0  0  0  0
M  END
>  <CHROM.1>
-41.72754869,-175.69732338,121.12370062,175.94050225,-126.96300289,-47.08053257
137.74188238,14.76361798,-6.14159778,8.77951822,1.71327623,-1.07023518,-1.44611471

>  <Name>
ligand

>  <RI>
0

>  <Rbt.Current_Directory>
/home/itssahil/PROJECTS/Mol_Feturizer/New_Systems/rnas/3GX5

>  <Rbt.Executable>
rbdock ($Id: //depot/dev/client3/rdock/2013.1/src/exe/rbdock.cxx#4 $)

>  <Rbt.Library>
libRbt.so (2013.1, Build901 2013/11/27)

>  <Rbt.Parameter_File>
/export/apps/rDock/src/rDock_2013.1_src/data/scripts/dock_solv.prm

>  <Rbt.Receptor>
prm/pocket_docking_3.prm

>  <SCORE>
-8.02891

>  <SCORE.INTER>
-12.1085

>  <SCORE.INTER.CONST>
1

>  <SCORE.INTER.POLAR>
0

>  <SCORE.INTER.ROT>
7

>  <SCORE.INTER.SOLV>
7.25186

>  <SCORE.INTER.VDW>
-18.7563

>  <SCORE.INTER.norm>
-0.448462

>  <SCORE.INTRA>
4.00903

>  <SCORE.INTRA.DIHEDRAL>
9.70807

>  <SCORE.INTRA.DIHEDRAL.0>
4.28829

>  <SCORE.INTRA.POLAR>
0

>  <SCORE.INTRA.POLAR.0>
0

>  <SCORE.INTRA.REPUL>
0

>  <SCORE.INTRA.REPUL.0>
0

>  <SCORE.INTRA.SOLV>
-0.9769

>  <SCORE.INTRA.SOLV.lig_0>
-48.6018

>  <SCORE.INTRA.VDW>
-0.356559

>  <SCORE.INTRA.VDW.0>
-2.1506

>  <SCORE.INTRA.norm>
0.148482

>  <SCORE.RESTR>
0.0705392

>  <SCORE.RESTR.CAVITY>
0.0705392

>  <SCORE.RESTR.norm>
0.00261256

>  <SCORE.SYSTEM>
0

>  <SCORE.SYSTEM.CONST>
0

>  <SCORE.SYSTEM.DIHEDRAL>
0

>  <SCORE.SYSTEM.SOLV>
0

>  <SCORE.SYSTEM.norm>
0

>  <SCORE.heavy>
27

>  <SCORE.norm>
-0.297367

>  <RMSD>
6.547

$$$$
ligand
 OpenBabel11021811483D
libRbt.so/2013.1/901 2013/11/27
 27 29  0  0  0  0  0  0  0  0999 V2000
   14.9469   -8.7181    6.1571 N   0  0  0  0  0  0  0  0  0  0  0  0
   13.8123   -8.1757    5.4071 C   0  0  2  0  0  0  0  0  0  0  0  0
   14.0454   -7.9668    3.9088 C   0  0  0  0  0  0  0  0  0  0  0  0
   15.0555   -8.4449    3.3941 O   0  0  0  0  0  0  0  0  0  0  0  0
   13.2961   -6.8994    6.0501 C   0  0  0  0  0  0  0  0  0  0  0  0
   14.4008   -5.8697    6.2130 C   0  0  0  0  0  0  0  0  0  0  0  0
   13.8614   -4.5203    7.2777 S   0  0  2  0  0  0  0  0  0  0  0  0
   12.7288   -3.6712    6.1573 C   0  0  0  0  0  0  0  0  0  0  0  0
   15.2878   -3.4158    7.1583 C   0  0  0  0  0  0  0  0  0  0  0  0
   16.2649   -3.6690    8.2915 C   0  0  1  0  0  0  0  0  0  0  0  0
   15.6301   -3.5092    9.5396 O   0  0  0  0  0  0  0  0  0  0  0  0
   16.7997   -5.0875    8.2994 C   0  0  1  0  0  0  0  0  0  0  0  0
   18.0028   -5.1116    7.5734 O   0  0  0  0  0  0  0  0  0  0  0  0
   17.0442   -5.3662    9.7686 C   0  0  1  0  0  0  0  0  0  0  0  0
   18.4225   -5.1889   10.0067 O   0  0  0  0  0  0  0  0  0  0  0  0
   16.2241   -4.3253   10.5337 C   0  0  2  0  0  0  0  0  0  0  0  0
   13.2670   -7.3337    3.1905 O   0  0  0  0  0  0  0  0  0  0  0  0
   14.8743   -8.0991   13.9033 N   0  0  0  0  0  0  0  0  0  0  0  0
   16.1353   -7.7651   13.4724 C   0  0  0  0  0  0  0  0  0  0  0  0
   16.2883   -6.7326   12.5735 N   0  0  0  0  0  0  0  0  0  0  0  0
   15.2209   -6.0431   12.1122 C   0  0  0  0  0  0  0  0  0  0  0  0
   13.9427   -6.3596   12.5488 C   0  0  0  0  0  0  0  0  0  0  0  0
   13.7707   -7.4082   13.4500 C   0  0  0  0  0  0  0  0  0  0  0  0
   12.5578   -7.7469   13.8879 N   0  0  0  0  0  0  0  0  0  0  0  0
   13.0721   -5.5137   11.9399 N   0  0  0  0  0  0  0  0  0  0  0  0
   13.7807   -4.6726   11.1517 C   0  0  0  0  0  0  0  0  0  0  0  0
   15.1146   -4.9826   11.2526 N   0  0  0  0  0  0  0  0  0  0  0  0
  2  1  1  1  0  0  0
  2  3  1  0  0  0  0
  2  5  1  0  0  0  0
  3  4  1  0  0  0  0
  3 17  1  0  0  0  0
  5  6  1  0  0  0  0
  7  6  1  6  0  0  0
  7  8  1  0  0  0  0
  7  9  1  0  0  0  0
 10  9  1  6  0  0  0
 10 11  1  0  0  0  0
 10 12  1  0  0  0  0
 11 16  1  0  0  0  0
 12 13  1  6  0  0  0
 12 14  1  0  0  0  0
 14 15  1  6  0  0  0
 14 16  1  0  0  0  0
 16 27  1  6  0  0  0
 18 19  2  0  0  0  0
 18 23  1  0  0  0  0
 19 20  1  0  0  0  0
 20 21  2  0  0  0  0
 21 22  1  0  0  0  0
 21 27  1  0  0  0  0
 22 23  2  0  0  0  0
 22 25  1  0  0  0  0
 23 24  1  0  0  0  0
 25 26  2  0  0  0  0
 26 27  1  0  0  0  0
M  END
>  <CHROM.1>
11.14550256,54.93299440,-168.02909969,-73.26272770,-93.65114942,-57.46121355
166.52883118,14.93022256,-5.93165320,8.87662624,1.71352672,-0.92437869,-1.49062498

>  <Name>
ligand

>  <RI>
0

>  <Rbt.Current_Directory>
/home/itssahil/PROJECTS/Mol_Feturizer/New_Systems/rnas/3GX5

>  <Rbt.Executable>
rbdock ($Id: //depot/dev/client3/rdock/2013.1/src/exe/rbdock.cxx#4 $)

>  <Rbt.Library>
libRbt.so (2013.1, Build901 2013/11/27)

>  <Rbt.Parameter_File>
/export/apps/rDock/src/rDock_2013.1_src/data/scripts/dock_solv.prm

>  <Rbt.Receptor>
prm/pocket_docking_5.prm

>  <SCORE>
-14.7503

>  <SCORE.INTER>
-15.4857

>  <SCORE.INTER.CONST>
1

>  <SCORE.INTER.POLAR>
0

>  <SCORE.INTER.ROT>
7

>  <SCORE.INTER.SOLV>
9.34147

>  <SCORE.INTER.VDW>
-21.7043

>  <SCORE.INTER.norm>
-0.573543

>  <SCORE.INTRA>
0.724017

>  <SCORE.INTRA.DIHEDRAL>
1.48384

>  <SCORE.INTRA.DIHEDRAL.0>
4.28829

>  <SCORE.INTRA.POLAR>
0

>  <SCORE.INTRA.POLAR.0>
0

>  <SCORE.INTRA.REPUL>
0

>  <SCORE.INTRA.REPUL.0>
0

>  <SCORE.INTRA.SOLV>
-0.153639

>  <SCORE.INTRA.SOLV.lig_0>
-48.6018

>  <SCORE.INTRA.VDW>
0.0589186

>  <SCORE.INTRA.VDW.0>
-2.1506

>  <SCORE.INTRA.norm>
0.0268154

>  <SCORE.RESTR>
0.01136

>  <SCORE.RESTR.CAVITY>
0.01136

>  <SCORE.RESTR.norm>
0.000420742

>  <SCORE.SYSTEM>
0

>  <SCORE.SYSTEM.CONST>
0

>  <SCORE.SYSTEM.DIHEDRAL>
0

>  <SCORE.SYSTEM.SOLV>
0

>  <SCORE.SYSTEM.norm>
0

>  <SCORE.heavy>
27

>  <SCORE.norm>
-0.546307

>  <RMSD>
6.549

$$$$
ligand
 OpenBabel11021811483D
libRbt.so/2013.1/901 2013/11/27
 27 29  0  0  0  0  0  0  0  0999 V2000
   13.7129   -7.4085    3.8048 N   0  0  0  0  0  0  0  0  0  0  0  0
   14.4567   -7.8021    5.0030 C   0  0  2  0  0  0  0  0  0  0  0  0
   14.4736   -9.3011    5.3117 C   0  0  0  0  0  0  0  0  0  0  0  0
   15.3558   -9.9988    4.8131 O   0  0  0  0  0  0  0  0  0  0  0  0
   13.9915   -7.0126    6.2151 C   0  0  0  0  0  0  0  0  0  0  0  0
   14.5954   -5.6191    6.2396 C   0  0  0  0  0  0  0  0  0  0  0  0
   13.7340   -4.5726    7.4262 S   0  0  2  0  0  0  0  0  0  0  0  0
   12.5074   -3.8130    6.3410 C   0  0  0  0  0  0  0  0  0  0  0  0
   14.9033   -3.2008    7.5658 C   0  0  0  0  0  0  0  0  0  0  0  0
   15.8289   -3.3971    8.7524 C   0  0  1  0  0  0  0  0  0  0  0  0
   15.0874   -3.5366    9.9427 O   0  0  0  0  0  0  0  0  0  0  0  0
   16.6536   -4.6650    8.6500 C   0  0  1  0  0  0  0  0  0  0  0  0
   17.8824   -4.3471    8.0467 O   0  0  0  0  0  0  0  0  0  0  0  0
   16.8470   -5.0799   10.0945 C   0  0  1  0  0  0  0  0  0  0  0  0
   18.1347   -4.6583   10.4844 O   0  0  0  0  0  0  0  0  0  0  0  0
   15.7704   -4.3385   10.8900 C   0  0  2  0  0  0  0  0  0  0  0  0
   13.6366   -9.8464    6.0362 O   0  0  0  0  0  0  0  0  0  0  0  0
   15.0056   -9.0977   12.9354 N   0  0  0  0  0  0  0  0  0  0  0  0
   16.1964   -8.5193   12.5683 C   0  0  0  0  0  0  0  0  0  0  0  0
   16.1927   -7.2463   12.0419 N   0  0  0  0  0  0  0  0  0  0  0  0
   15.0397   -6.5583   11.8841 C   0  0  0  0  0  0  0  0  0  0  0  0
   13.8309   -7.1238   12.2631 C   0  0  0  0  0  0  0  0  0  0  0  0
   13.8173   -8.4145   12.7875 C   0  0  0  0  0  0  0  0  0  0  0  0
   12.6752   -8.9947   13.1572 N   0  0  0  0  0  0  0  0  0  0  0  0
   12.8490   -6.2217   12.0054 N   0  0  0  0  0  0  0  0  0  0  0  0
   13.4215   -5.1081   11.4928 C   0  0  0  0  0  0  0  0  0  0  0  0
   14.7794   -5.2975   11.4176 N   0  0  0  0  0  0  0  0  0  0  0  0
  2  1  1  6  0  0  0
  2  3  1  0  0  0  0
  2  5  1  0  0  0  0
  3  4  1  0  0  0  0
  3 17  1  0  0  0  0
  5  6  1  0  0  0  0
  7  6  1  6  0  0  0
  7  8  1  0  0  0  0
  7  9  1  0  0  0  0
 10  9  1  6  0  0  0
 10 11  1  0  0  0  0
 10 12  1  0  0  0  0
 11 16  1  0  0  0  0
 12 13  1  1  0  0  0
 12 14  1  0  0  0  0
 14 15  1  1  0  0  0
 14 16  1  0  0  0  0
 16 27  1  6  0  0  0
 18 19  2  0  0  0  0
 18 23  1  0  0  0  0
 19 20  1  0  0  0  0
 20 21  2  0  0  0  0
 21 22  1  0  0  0  0
 21 27  1  0  0  0  0
 22 23  2  0  0  0  0
 22 25  1  0  0  0  0
 23 24  1  0  0  0  0
 25 26  2  0  0  0  0
 26 27  1  0  0  0  0
M  END
>  <CHROM.1>
88.26423095,-79.18520879,165.89694297,-92.79232306,-95.19727243,-57.02544439
150.55756407,14.83585423,-6.23547151,9.01754460,1.88938481,-1.27612035,-1.31712243

>  <Name>
ligand

>  <RI>
0

>  <Rbt.Current_Directory>
/home/itssahil/PROJECTS/Mol_Feturizer/New_Systems/rnas/3GX5

>  <Rbt.Executable>
rbdock ($Id: //depot/dev/client3/rdock/2013.1/src/exe/rbdock.cxx#4 $)

>  <Rbt.Library>
libRbt.so (2013.1, Build901 2013/11/27)

>  <Rbt.Parameter_File>
/export/apps/rDock/src/rDock_2013.1_src/data/scripts/dock_solv.prm

>  <Rbt.Receptor>
prm/pocket_docking_3.prm

>  <SCORE>
-9.33129

>  <SCORE.INTER>
-11.0329

>  <SCORE.INTER.CONST>
1

>  <SCORE.INTER.POLAR>
0

>  <SCORE.INTER.ROT>
7

>  <SCORE.INTER.SOLV>
12.469

>  <SCORE.INTER.VDW>
-19.7783

>  <SCORE.INTER.norm>
-0.408626

>  <SCORE.INTRA>
1.66423

>  <SCORE.INTRA.DIHEDRAL>
4.45237

>  <SCORE.INTRA.DIHEDRAL.0>
4.28829

>  <SCORE.INTRA.POLAR>
0

>  <SCORE.INTRA.POLAR.0>
0

>  <SCORE.INTRA.REPUL>
0

>  <SCORE.INTRA.REPUL.0>
0

>  <SCORE.INTRA.SOLV>
-0.295064

>  <SCORE.INTRA.SOLV.lig_0>
-48.6018

>  <SCORE.INTRA.VDW>
-0.41442

>  <SCORE.INTRA.VDW.0>
-2.1506

>  <SCORE.INTRA.norm>
0.0616382

>  <SCORE.RESTR>
0.0373734

>  <SCORE.RESTR.CAVITY>
0.0373734

>  <SCORE.RESTR.norm>
0.0013842

>  <SCORE.SYSTEM>
0

>  <SCORE.SYSTEM.CONST>
0

>  <SCORE.SYSTEM.DIHEDRAL>
0

>  <SCORE.SYSTEM.SOLV>
0

>  <SCORE.SYSTEM.norm>
0

>  <SCORE.heavy>
27

>  <SCORE.norm>
-0.345603

>  <RMSD>
6.553

$$$$
ligand
 OpenBabel11021811483D
libRbt.so/2013.1/901 2013/11/27
 27 29  0  0  0  0  0  0  0  0999 V2000
   17.2350   -8.1236    8.5725 N   0  0  0  0  0  0  0  0  0  0  0  0
   16.2833   -7.6204    7.5800 C   0  0  2  0  0  0  0  0  0  0  0  0
   15.9431   -8.5821    6.4389 C   0  0  0  0  0  0  0  0  0  0  0  0
   14.7601   -8.8006    6.1810 O   0  0  0  0  0  0  0  0  0  0  0  0
   16.7312   -6.2767    7.0300 C   0  0  0  0  0  0  0  0  0  0  0  0
   15.6627   -5.6482    6.1521 C   0  0  0  0  0  0  0  0  0  0  0  0
   14.1910   -5.2635    7.1172 S   0  0  2  0  0  0  0  0  0  0  0  0
   12.9975   -5.0205    5.7847 C   0  0  0  0  0  0  0  0  0  0  0  0
   14.5195   -3.5381    7.5458 C   0  0  0  0  0  0  0  0  0  0  0  0
   14.9326   -3.4108    9.0005 C   0  0  1  0  0  0  0  0  0  0  0  0
   13.8751   -3.7888    9.8519 O   0  0  0  0  0  0  0  0  0  0  0  0
   16.0818   -4.3293    9.3668 C   0  0  1  0  0  0  0  0  0  0  0  0
   17.2842   -3.6189    9.2100 O   0  0  0  0  0  0  0  0  0  0  0  0
   15.8263   -4.6529   10.8249 C   0  0  1  0  0  0  0  0  0  0  0  0
   16.6683   -3.8235   11.5937 O   0  0  0  0  0  0  0  0  0  0  0  0
   14.3555   -4.3139   11.0768 C   0  0  2  0  0  0  0  0  0  0  0  0
   16.8036   -9.1557    5.7657 O   0  0  0  0  0  0  0  0  0  0  0  0
   13.0583   -7.9616   14.6024 N   0  0  0  0  0  0  0  0  0  0  0  0
   13.8527   -6.8561   14.7865 C   0  0  0  0  0  0  0  0  0  0  0  0
   14.0804   -6.0064   13.7264 N   0  0  0  0  0  0  0  0  0  0  0  0
   13.5339   -6.2409   12.5123 C   0  0  0  0  0  0  0  0  0  0  0  0
   12.7183   -7.3456   12.3147 C   0  0  0  0  0  0  0  0  0  0  0  0
   12.4868   -8.2200   13.3746 C   0  0  0  0  0  0  0  0  0  0  0  0
   11.7143   -9.2959   13.2225 N   0  0  0  0  0  0  0  0  0  0  0  0
   12.3034   -7.3323   11.0217 N   0  0  0  0  0  0  0  0  0  0  0  0
   12.8280   -6.2396   10.4203 C   0  0  0  0  0  0  0  0  0  0  0  0
   13.5873   -5.5487   11.3322 N   0  0  0  0  0  0  0  0  0  0  0  0
  2  1  1  6  0  0  0
  2  3  1  0  0  0  0
  2  5  1  0  0  0  0
  3  4  1  0  0  0  0
  3 17  1  0  0  0  0
  5  6  1  0  0  0  0
  7  6  1  6  0  0  0
  7  8  1  0  0  0  0
  7  9  1  0  0  0  0
 10  9  1  6  0  0  0
 10 11  1  0  0  0  0
 10 12  1  0  0  0  0
 11 16  1  0  0  0  0
 12 13  1  1  0  0  0
 12 14  1  0  0  0  0
 14 15  1  1  0  0  0
 14 16  1  0  0  0  0
 16 27  1  6  0  0  0
 18 19  2  0  0  0  0
 18 23  1  0  0  0  0
 19 20  1  0  0  0  0
 20 21  2  0  0  0  0
 21 22  1  0  0  0  0
 21 27  1  0  0  0  0
 22 23  2  0  0  0  0
 22 25  1  0  0  0  0
 23 24  1  0  0  0  0
 25 26  2  0  0  0  0
 26 27  1  0  0  0  0
M  END
>  <CHROM.1>
129.01608498,-171.82911058,64.40400964,-164.09773856,-105.40547021,-64.61701628
-166.58670012,14.63430952,-6.11510956,9.64348915,0.50709229,-1.16511458,-2.50356597

>  <Name>
ligand

>  <RI>
0

>  <Rbt.Current_Directory>
/home/itssahil/PROJECTS/Mol_Feturizer/New_Systems/rnas/3GX5

>  <Rbt.Executable>
rbdock ($Id: //depot/dev/client3/rdock/2013.1/src/exe/rbdock.cxx#4 $)

>  <Rbt.Library>
libRbt.so (2013.1, Build901 2013/11/27)

>  <Rbt.Parameter_File>
/export/apps/rDock/src/rDock_2013.1_src/data/scripts/dock_solv.prm

>  <Rbt.Receptor>
prm/pocket_docking_4.prm

>  <SCORE>
-10.0911

>  <SCORE.INTER>
-10.7465

>  <SCORE.INTER.CONST>
1

>  <SCORE.INTER.POLAR>
0

>  <SCORE.INTER.ROT>
7

>  <SCORE.INTER.SOLV>
6.98408

>  <SCORE.INTER.VDW>
-17.759

>  <SCORE.INTER.norm>
-0.398017

>  <SCORE.INTRA>
0.65392

>  <SCORE.INTRA.DIHEDRAL>
3.90575

>  <SCORE.INTRA.DIHEDRAL.0>
4.28829

>  <SCORE.INTRA.POLAR>
0

>  <SCORE.INTRA.POLAR.0>
0

>  <SCORE.INTRA.REPUL>
0

>  <SCORE.INTRA.REPUL.0>
0

>  <SCORE.INTRA.SOLV>
0.0155467

>  <SCORE.INTRA.SOLV.lig_0>
-48.6018

>  <SCORE.INTRA.VDW>
-1.30673

>  <SCORE.INTRA.VDW.0>
-2.1506

>  <SCORE.INTRA.norm>
0.0242193

>  <SCORE.RESTR>
0.00144659

>  <SCORE.RESTR.CAVITY>
0.00144659

>  <SCORE.RESTR.norm>
5.35774e-05

>  <SCORE.SYSTEM>
0

>  <SCORE.SYSTEM.CONST>
0

>  <SCORE.SYSTEM.DIHEDRAL>
0

>  <SCORE.SYSTEM.SOLV>
0

>  <SCORE.SYSTEM.norm>
0

>  <SCORE.heavy>
27

>  <SCORE.norm>
-0.373744

>  <RMSD>
6.564

$$$$
ligand
 OpenBabel11021811483D
libRbt.so/2013.1/901 2013/11/27
 27 29  0  0  0  0  0  0  0  0999 V2000
   13.9821   -2.3213    7.9328 N   0  0  0  0  0  0  0  0  0  0  0  0
   15.1571   -3.1793    8.0968 C   0  0  2  0  0  0  0  0  0  0  0  0
   16.4735   -2.4545    8.3874 C   0  0  0  0  0  0  0  0  0  0  0  0
   16.8121   -1.5250    7.6557 O   0  0  0  0  0  0  0  0  0  0  0  0
   15.3145   -4.1175    6.9119 C   0  0  0  0  0  0  0  0  0  0  0  0
   16.1272   -5.3476    7.2775 C   0  0  0  0  0  0  0  0  0  0  0  0
   16.1311   -6.5341    5.9220 S   0  0  2  0  0  0  0  0  0  0  0  0
   14.3664   -6.9016    5.8227 C   0  0  0  0  0  0  0  0  0  0  0  0
   16.6998   -8.0179    6.7842 C   0  0  0  0  0  0  0  0  0  0  0  0
   17.0224   -9.1263    5.7991 C   0  0  1  0  0  0  0  0  0  0  0  0
   15.8901   -9.4461    5.0233 O   0  0  0  0  0  0  0  0  0  0  0  0
   18.0882   -8.7290    4.7969 C   0  0  1  0  0  0  0  0  0  0  0  0
   19.3384   -9.1327    5.2960 O   0  0  0  0  0  0  0  0  0  0  0  0
   17.7178   -9.5144    3.5551 C   0  0  1  0  0  0  0  0  0  0  0  0
   18.5547  -10.6482    3.5093 O   0  0  0  0  0  0  0  0  0  0  0  0
   16.2563   -9.9273    3.7422 C   0  0  2  0  0  0  0  0  0  0  0  0
   17.2176   -2.7635    9.3220 O   0  0  0  0  0  0  0  0  0  0  0  0
   15.4926   -8.7371   -1.2995 N   0  0  0  0  0  0  0  0  0  0  0  0
   16.4853   -9.5176   -0.7586 C   0  0  0  0  0  0  0  0  0  0  0  0
   16.5200   -9.7142    0.6045 N   0  0  0  0  0  0  0  0  0  0  0  0
   15.5937   -9.1554    1.4153 C   0  0  0  0  0  0  0  0  0  0  0  0
   14.5772   -8.3762    0.8823 C   0  0  0  0  0  0  0  0  0  0  0  0
   14.5347   -8.1597   -0.4934 C   0  0  0  0  0  0  0  0  0  0  0  0
   13.5774   -7.4116   -1.0428 N   0  0  0  0  0  0  0  0  0  0  0  0
   13.7931   -7.9545    1.9077 N   0  0  0  0  0  0  0  0  0  0  0  0
   14.2891   -8.4662    3.0578 C   0  0  0  0  0  0  0  0  0  0  0  0
   15.4009   -9.2188    2.7694 N   0  0  0  0  0  0  0  0  0  0  0  0
  2  1  1  6  0  0  0
  2  3  1  0  0  0  0
  2  5  1  0  0  0  0
  3  4  1  0  0  0  0
  3 17  1  0  0  0  0
  5  6  1  0  0  0  0
  7  6  1  1  0  0  0
  7  8  1  0  0  0  0
  7  9  1  0  0  0  0
 10  9  1  1  0  0  0
 10 11  1  0  0  0  0
 10 12  1  0  0  0  0
 11 16  1  0  0  0  0
 12 13  1  1  0  0  0
 12 14  1  0  0  0  0
 14 15  1  1  0  0  0
 14 16  1  0  0  0  0
 16 27  1  6  0  0  0
 18 19  2  0  0  0  0
 18 23  1  0  0  0  0
 19 20  1  0  0  0  0
 20 21  2  0  0  0  0
 21 22  1  0  0  0  0
 21 27  1  0  0  0  0
 22 23  2  0  0  0  0
 22 25  1  0  0  0  0
 23 24  1  0  0  0  0
 25 26  2  0  0  0  0
 26 27  1  0  0  0  0
M  END
>  <CHROM.1>
-50.95222080,-156.99682567,173.12664436,-61.99696503,-170.11457260,-58.66040355
165.25441798,16.03054360,-7.20089169,4.36800873,1.51517695,-0.86746887,0.84543552

>  <Name>
ligand

>  <RI>
0

>  <Rbt.Current_Directory>
/home/itssahil/PROJECTS/Mol_Feturizer/New_Systems/rnas/3GX5

>  <Rbt.Executable>
rbdock ($Id: //depot/dev/client3/rdock/2013.1/src/exe/rbdock.cxx#4 $)

>  <Rbt.Library>
libRbt.so (2013.1, Build901 2013/11/27)

>  <Rbt.Parameter_File>
/export/apps/rDock/src/rDock_2013.1_src/data/scripts/dock_solv.prm

>  <Rbt.Receptor>
prm/pocket_docking_8.prm

>  <SCORE>
-17.4578

>  <SCORE.INTER>
-18.2314

>  <SCORE.INTER.CONST>
1

>  <SCORE.INTER.POLAR>
0

>  <SCORE.INTER.ROT>
7

>  <SCORE.INTER.SOLV>
21.5799

>  <SCORE.INTER.VDW>
-27.6143

>  <SCORE.INTER.norm>
-0.675239

>  <SCORE.INTRA>
0.773682

>  <SCORE.INTRA.DIHEDRAL>
2.12236

>  <SCORE.INTRA.DIHEDRAL.0>
4.28829

>  <SCORE.INTRA.POLAR>
0

>  <SCORE.INTRA.POLAR.0>
0

>  <SCORE.INTRA.REPUL>
0

>  <SCORE.INTRA.REPUL.0>
0

>  <SCORE.INTRA.SOLV>
-1.01459

>  <SCORE.INTRA.SOLV.lig_0>
-48.6018

>  <SCORE.INTRA.VDW>
0.219795

>  <SCORE.INTRA.VDW.0>
-2.1506

>  <SCORE.INTRA.norm>
0.0286549

>  <SCORE.RESTR>
0

>  <SCORE.RESTR.CAVITY>
0

>  <SCORE.RESTR.norm>
0

>  <SCORE.SYSTEM>
0

>  <SCORE.SYSTEM.CONST>
0

>  <SCORE.SYSTEM.DIHEDRAL>
0

>  <SCORE.SYSTEM.SOLV>
0

>  <SCORE.SYSTEM.norm>
0

>  <SCORE.heavy>
27

>  <SCORE.norm>
-0.646584

>  <RMSD>
6.570

$$$$
ligand
 OpenBabel11021811483D
libRbt.so/2013.1/901 2013/11/27
 27 29  0  0  0  0  0  0  0  0999 V2000
   12.3850   -6.6253    6.0396 N   0  0  0  0  0  0  0  0  0  0  0  0
   13.5516   -6.6005    5.1550 C   0  0  2  0  0  0  0  0  0  0  0  0
   13.6502   -7.7535    4.1533 C   0  0  0  0  0  0  0  0  0  0  0  0
   13.4659   -7.5188    2.9597 O   0  0  0  0  0  0  0  0  0  0  0  0
   14.8375   -6.4769    5.9549 C   0  0  0  0  0  0  0  0  0  0  0  0
   15.1247   -5.0336    6.3314 C   0  0  0  0  0  0  0  0  0  0  0  0
   13.8917   -4.4214    7.4934 S   0  0  2  0  0  0  0  0  0  0  0  0
   12.7384   -3.6416    6.3441 C   0  0  0  0  0  0  0  0  0  0  0  0
   14.7328   -2.9494    8.1215 C   0  0  0  0  0  0  0  0  0  0  0  0
   15.7101   -3.3133    9.2239 C   0  0  1  0  0  0  0  0  0  0  0  0
   15.0290   -3.5375   10.4372 O   0  0  0  0  0  0  0  0  0  0  0  0
   16.4553   -4.6037    8.9452 C   0  0  1  0  0  0  0  0  0  0  0  0
   17.6648   -4.2873    8.3032 O   0  0  0  0  0  0  0  0  0  0  0  0
   16.7048   -5.1746   10.3265 C   0  0  1  0  0  0  0  0  0  0  0  0
   18.0337   -4.8608   10.6777 O   0  0  0  0  0  0  0  0  0  0  0  0
   15.7172   -4.4662   11.2562 C   0  0  2  0  0  0  0  0  0  0  0  0
   13.9015   -8.9142    4.4887 O   0  0  0  0  0  0  0  0  0  0  0  0
   12.0134   -7.9174    9.9184 N   0  0  0  0  0  0  0  0  0  0  0  0
   12.8240   -7.1852    9.0853 C   0  0  0  0  0  0  0  0  0  0  0  0
   13.7457   -6.3197    9.6321 N   0  0  0  0  0  0  0  0  0  0  0  0
   13.8668   -6.1821   10.9715 C   0  0  0  0  0  0  0  0  0  0  0  0
   13.0649   -6.9249   11.8258 C   0  0  0  0  0  0  0  0  0  0  0  0
   12.1208   -7.7970   11.2877 C   0  0  0  0  0  0  0  0  0  0  0  0
   11.3273   -8.5231   12.0755 N   0  0  0  0  0  0  0  0  0  0  0  0
   13.3999   -6.5996   13.1010 N   0  0  0  0  0  0  0  0  0  0  0  0
   14.3986   -5.6879   13.0567 C   0  0  0  0  0  0  0  0  0  0  0  0
   14.7047   -5.4236   11.7444 N   0  0  0  0  0  0  0  0  0  0  0  0
  2  1  1  1  0  0  0
  2  3  1  0  0  0  0
  2  5  1  0  0  0  0
  3  4  1  0  0  0  0
  3 17  1  0  0  0  0
  5  6  1  0  0  0  0
  7  6  1  6  0  0  0
  7  8  1  0  0  0  0
  7  9  1  0  0  0  0
 10  9  1  6  0  0  0
 10 11  1  0  0  0  0
 10 12  1  0  0  0  0
 11 16  1  0  0  0  0
 12 13  1  1  0  0  0
 12 14  1  0  0  0  0
 14 15  1  1  0  0  0
 14 16  1  0  0  0  0
 16 27  1  6  0  0  0
 18 19  2  0  0  0  0
 18 23  1  0  0  0  0
 19 20  1  0  0  0  0
 20 21  2  0  0  0  0
 21 22  1  0  0  0  0
 21 27  1  0  0  0  0
 22 23  2  0  0  0  0
 22 25  1  0  0  0  0
 23 24  1  0  0  0  0
 25 26  2  0  0  0  0
 26 27  1  0  0  0  0
M  END
>  <CHROM.1>
109.30286298,-82.42163048,66.84859430,-94.39649597,-82.57220941,-78.05273604
56.36400204,14.28669697,-5.78560279,8.70233202,1.74092747,-0.77985050,-1.60601831

>  <Name>
ligand

>  <RI>
0

>  <Rbt.Current_Directory>
/home/itssahil/PROJECTS/Mol_Feturizer/New_Systems/rnas/3GX5

>  <Rbt.Executable>
rbdock ($Id: //depot/dev/client3/rdock/2013.1/src/exe/rbdock.cxx#4 $)

>  <Rbt.Library>
libRbt.so (2013.1, Build901 2013/11/27)

>  <Rbt.Parameter_File>
/export/apps/rDock/src/rDock_2013.1_src/data/scripts/dock_solv.prm

>  <Rbt.Receptor>
prm/pocket_docking_3.prm

>  <SCORE>
-13.0495

>  <SCORE.INTER>
-15.8237

>  <SCORE.INTER.CONST>
1

>  <SCORE.INTER.POLAR>
0

>  <SCORE.INTER.ROT>
7

>  <SCORE.INTER.SOLV>
13.6637

>  <SCORE.INTER.VDW>
-23.3704

>  <SCORE.INTER.norm>
-0.586064

>  <SCORE.INTRA>
2.77421

>  <SCORE.INTRA.DIHEDRAL>
4.27189

>  <SCORE.INTRA.DIHEDRAL.0>
4.28829

>  <SCORE.INTRA.POLAR>
0

>  <SCORE.INTRA.POLAR.0>
0

>  <SCORE.INTRA.REPUL>
0

>  <SCORE.INTRA.REPUL.0>
0

>  <SCORE.INTRA.SOLV>
2.74591

>  <SCORE.INTRA.SOLV.lig_0>
-48.6018

>  <SCORE.INTRA.VDW>
-0.734688

>  <SCORE.INTRA.VDW.0>
-2.1506

>  <SCORE.INTRA.norm>
0.102749

>  <SCORE.RESTR>
0

>  <SCORE.RESTR.CAVITY>
0

>  <SCORE.RESTR.norm>
0

>  <SCORE.SYSTEM>
0

>  <SCORE.SYSTEM.CONST>
0

>  <SCORE.SYSTEM.DIHEDRAL>
0

>  <SCORE.SYSTEM.SOLV>
0

>  <SCORE.SYSTEM.norm>
0

>  <SCORE.heavy>
27

>  <SCORE.norm>
-0.483315

>  <RMSD>
6.573

$$$$
ligand
 OpenBabel11021811483D
libRbt.so/2013.1/901 2013/11/27
 27 29  0  0  0  0  0  0  0  0999 V2000
   19.8294  -10.4791    4.6519 N   0  0  0  0  0  0  0  0  0  0  0  0
   20.0978  -10.1577    6.0550 C   0  0  2  0  0  0  0  0  0  0  0  0
   20.5565  -11.3280    6.9284 C   0  0  0  0  0  0  0  0  0  0  0  0
   21.0490  -12.3157    6.3847 O   0  0  0  0  0  0  0  0  0  0  0  0
   18.9097   -9.4530    6.6879 C   0  0  0  0  0  0  0  0  0  0  0  0
   18.6232   -8.1236    6.0110 C   0  0  0  0  0  0  0  0  0  0  0  0
   17.2132   -7.3082    6.7804 S   0  0  2  0  0  0  0  0  0  0  0  0
   15.8648   -8.0843    5.8646 C   0  0  0  0  0  0  0  0  0  0  0  0
   17.2623   -5.7060    5.9442 C   0  0  0  0  0  0  0  0  0  0  0  0
   16.2784   -4.7367    6.5731 C   0  0  1  0  0  0  0  0  0  0  0  0
   14.9761   -5.2752    6.5638 O   0  0  0  0  0  0  0  0  0  0  0  0
   16.5802   -4.4584    8.0325 C   0  0  1  0  0  0  0  0  0  0  0  0
   17.3912   -3.3130    8.1068 O   0  0  0  0  0  0  0  0  0  0  0  0
   15.2138   -4.1986    8.6339 C   0  0  1  0  0  0  0  0  0  0  0  0
   15.0571   -2.8010    8.7338 O   0  0  0  0  0  0  0  0  0  0  0  0
   14.2038   -4.7876    7.6468 C   0  0  2  0  0  0  0  0  0  0  0  0
   20.4501  -11.3297    8.1578 O   0  0  0  0  0  0  0  0  0  0  0  0
   12.3925   -6.9678   12.0495 N   0  0  0  0  0  0  0  0  0  0  0  0
   12.9788   -5.7347   11.8988 C   0  0  0  0  0  0  0  0  0  0  0  0
   13.3955   -5.3355   10.6479 N   0  0  0  0  0  0  0  0  0  0  0  0
   13.2346   -6.1344    9.5693 C   0  0  0  0  0  0  0  0  0  0  0  0
   12.6317   -7.3766    9.7034 C   0  0  0  0  0  0  0  0  0  0  0  0
   12.2141   -7.7988   10.9639 C   0  0  0  0  0  0  0  0  0  0  0  0
   11.6367   -8.9883   11.1346 N   0  0  0  0  0  0  0  0  0  0  0  0
   12.5911   -7.9557    8.4758 N   0  0  0  0  0  0  0  0  0  0  0  0
   13.1379   -7.0970    7.5846 C   0  0  0  0  0  0  0  0  0  0  0  0
   13.5354   -5.9604    8.2449 N   0  0  0  0  0  0  0  0  0  0  0  0
  2  1  1  6  0  0  0
  2  3  1  0  0  0  0
  2  5  1  0  0  0  0
  3  4  1  0  0  0  0
  3 17  1  0  0  0  0
  5  6  1  0  0  0  0
  7  6  1  6  0  0  0
  7  8  1  0  0  0  0
  7  9  1  0  0  0  0
 10  9  1  1  0  0  0
 10 11  1  0  0  0  0
 10 12  1  0  0  0  0
 11 16  1  0  0  0  0
 12 13  1  6  0  0  0
 12 14  1  0  0  0  0
 14 15  1  6  0  0  0
 14 16  1  0  0  0  0
 16 27  1  1  0  0  0
 18 19  2  0  0  0  0
 18 23  1  0  0  0  0
 19 20  1  0  0  0  0
 20 21  2  0  0  0  0
 21 22  1  0  0  0  0
 21 27  1  0  0  0  0
 22 23  2  0  0  0  0
 22 25  1  0  0  0  0
 23 24  1  0  0  0  0
 25 26  2  0  0  0  0
 26 27  1  0  0  0  0
M  END
>  <CHROM.1>
21.37297867,-62.50055189,-179.93060154,-85.60570063,-171.53176758,-56.19776604
146.95132256,15.98467782,-7.16739925,7.96355096,0.40062911,-0.60126496,2.87895731

>  <Name>
ligand

>  <RI>
0

>  <Rbt.Current_Directory>
/home/itssahil/PROJECTS/Mol_Feturizer/New_Systems/rnas/3GX5

>  <Rbt.Executable>
rbdock ($Id: //depot/dev/client3/rdock/2013.1/src/exe/rbdock.cxx#4 $)

>  <Rbt.Library>
libRbt.so (2013.1, Build901 2013/11/27)

>  <Rbt.Parameter_File>
/export/apps/rDock/src/rDock_2013.1_src/data/scripts/dock_solv.prm

>  <Rbt.Receptor>
prm/pocket_docking_8.prm

>  <SCORE>
-9.33712

>  <SCORE.INTER>
-9.81414

>  <SCORE.INTER.CONST>
1

>  <SCORE.INTER.POLAR>
0

>  <SCORE.INTER.ROT>
7

>  <SCORE.INTER.SOLV>
10.8175

>  <SCORE.INTER.VDW>
-18.4153

>  <SCORE.INTER.norm>
-0.363487

>  <SCORE.INTRA>
0.477022

>  <SCORE.INTRA.DIHEDRAL>
0.907589

>  <SCORE.INTRA.DIHEDRAL.0>
4.28829

>  <SCORE.INTRA.POLAR>
0

>  <SCORE.INTRA.POLAR.0>
0

>  <SCORE.INTRA.REPUL>
0

>  <SCORE.INTRA.REPUL.0>
0

>  <SCORE.INTRA.SOLV>
-0.331255

>  <SCORE.INTRA.SOLV.lig_0>
-48.6018

>  <SCORE.INTRA.VDW>
0.188855

>  <SCORE.INTRA.VDW.0>
-2.1506

>  <SCORE.INTRA.norm>
0.0176675

>  <SCORE.RESTR>
0

>  <SCORE.RESTR.CAVITY>
0

>  <SCORE.RESTR.norm>
0

>  <SCORE.SYSTEM>
0

>  <SCORE.SYSTEM.CONST>
0

>  <SCORE.SYSTEM.DIHEDRAL>
0

>  <SCORE.SYSTEM.SOLV>
0

>  <SCORE.SYSTEM.norm>
0

>  <SCORE.heavy>
27

>  <SCORE.norm>
-0.345819

>  <RMSD>
6.583

$$$$
ligand
 OpenBabel11021811483D
libRbt.so/2013.1/901 2013/11/27
 27 29  0  0  0  0  0  0  0  0999 V2000
   15.4930   -8.7434    8.3790 N   0  0  0  0  0  0  0  0  0  0  0  0
   15.0513   -7.8642    7.2947 C   0  0  2  0  0  0  0  0  0  0  0  0
   14.8725   -8.5322    5.9291 C   0  0  0  0  0  0  0  0  0  0  0  0
   13.8391   -8.3194    5.2963 O   0  0  0  0  0  0  0  0  0  0  0  0
   15.9542   -6.6475    7.1796 C   0  0  0  0  0  0  0  0  0  0  0  0
   15.3231   -5.5625    6.3241 C   0  0  0  0  0  0  0  0  0  0  0  0
   13.8751   -4.8692    7.1412 S   0  0  2  0  0  0  0  0  0  0  0  0
   12.8931   -4.4067    5.6987 C   0  0  0  0  0  0  0  0  0  0  0  0
   14.5082   -3.2416    7.6091 C   0  0  0  0  0  0  0  0  0  0  0  0
   15.0389   -3.2554    9.0308 C   0  0  1  0  0  0  0  0  0  0  0  0
   14.0271   -3.6363    9.9348 O   0  0  0  0  0  0  0  0  0  0  0  0
   16.1501   -4.2668    9.2327 C   0  0  1  0  0  0  0  0  0  0  0  0
   17.3810   -3.6190    9.0320 O   0  0  0  0  0  0  0  0  0  0  0  0
   15.9862   -4.6897   10.6785 C   0  0  1  0  0  0  0  0  0  0  0  0
   16.9373   -3.9757   11.4360 O   0  0  0  0  0  0  0  0  0  0  0  0
   14.5645   -4.2850   11.0739 C   0  0  2  0  0  0  0  0  0  0  0  0
   15.7178   -9.2820    5.4332 O   0  0  0  0  0  0  0  0  0  0  0  0
   13.0263   -7.9049   14.5305 N   0  0  0  0  0  0  0  0  0  0  0  0
   13.8616   -6.8357   14.7450 C   0  0  0  0  0  0  0  0  0  0  0  0
   14.1516   -5.9872   13.6992 N   0  0  0  0  0  0  0  0  0  0  0  0
   13.6265   -6.1878   12.4698 C   0  0  0  0  0  0  0  0  0  0  0  0
   12.7703   -7.2552   12.2412 C   0  0  0  0  0  0  0  0  0  0  0  0
   12.4756   -8.1281   13.2864 C   0  0  0  0  0  0  0  0  0  0  0  0
   11.6625   -9.1691   13.1047 N   0  0  0  0  0  0  0  0  0  0  0  0
   12.3891   -7.2131   10.9385 N   0  0  0  0  0  0  0  0  0  0  0  0
   12.9742   -6.1385   10.3610 C   0  0  0  0  0  0  0  0  0  0  0  0
   13.7388   -5.4882   11.2981 N   0  0  0  0  0  0  0  0  0  0  0  0
  2  1  1  1  0  0  0
  2  3  1  0  0  0  0
  2  5  1  0  0  0  0
  3  4  1  0  0  0  0
  3 17  1  0  0  0  0
  5  6  1  0  0  0  0
  7  6  1  6  0  0  0
  7  8  1  0  0  0  0
  7  9  1  0  0  0  0
 10  9  1  6  0  0  0
 10 11  1  0  0  0  0
 10 12  1  0  0  0  0
 11 16  1  0  0  0  0
 12 13  1  1  0  0  0
 12 14  1  0  0  0  0
 14 15  1  1  0  0  0
 14 16  1  0  0  0  0
 16 27  1  6  0  0  0
 18 19  2  0  0  0  0
 18 23  1  0  0  0  0
 19 20  1  0  0  0  0
 20 21  2  0  0  0  0
 21 22  1  0  0  0  0
 21 27  1  0  0  0  0
 22 23  2  0  0  0  0
 22 25  1  0  0  0  0
 23 24  1  0  0  0  0
 25 26  2  0  0  0  0
 26 27  1  0  0  0  0
M  END
>  <CHROM.1>
132.08212685,-165.24726737,67.43983161,-149.98299840,-94.70164134,-58.68173896
-159.35636068,14.40131914,-6.04124499,9.53377186,0.99264993,-1.15806877,-2.01958443

>  <Name>
ligand

>  <RI>
0

>  <Rbt.Current_Directory>
/home/itssahil/PROJECTS/Mol_Feturizer/New_Systems/rnas/3GX5

>  <Rbt.Executable>
rbdock ($Id: //depot/dev/client3/rdock/2013.1/src/exe/rbdock.cxx#4 $)

>  <Rbt.Library>
libRbt.so (2013.1, Build901 2013/11/27)

>  <Rbt.Parameter_File>
/export/apps/rDock/src/rDock_2013.1_src/data/scripts/dock_solv.prm

>  <Rbt.Receptor>
prm/pocket_docking_4.prm

>  <SCORE>
-10.31

>  <SCORE.INTER>
-10.7077

>  <SCORE.INTER.CONST>
1

>  <SCORE.INTER.POLAR>
0

>  <SCORE.INTER.ROT>
7

>  <SCORE.INTER.SOLV>
8.3663

>  <SCORE.INTER.VDW>
-18.1939

>  <SCORE.INTER.norm>
-0.396583

>  <SCORE.INTRA>
0.39774

>  <SCORE.INTRA.DIHEDRAL>
4.80253

>  <SCORE.INTRA.DIHEDRAL.0>
4.28829

>  <SCORE.INTRA.POLAR>
0

>  <SCORE.INTRA.POLAR.0>
0

>  <SCORE.INTRA.REPUL>
0

>  <SCORE.INTRA.REPUL.0>
0

>  <SCORE.INTRA.SOLV>
-0.592007

>  <SCORE.INTRA.SOLV.lig_0>
-48.6018

>  <SCORE.INTRA.VDW>
-1.70752

>  <SCORE.INTRA.VDW.0>
-2.1506

>  <SCORE.INTRA.norm>
0.0147311

>  <SCORE.RESTR>
0

>  <SCORE.RESTR.CAVITY>
0

>  <SCORE.RESTR.norm>
0

>  <SCORE.SYSTEM>
0

>  <SCORE.SYSTEM.CONST>
0

>  <SCORE.SYSTEM.DIHEDRAL>
0

>  <SCORE.SYSTEM.SOLV>
0

>  <SCORE.SYSTEM.norm>
0

>  <SCORE.heavy>
27

>  <SCORE.norm>
-0.381852

>  <RMSD>
6.590

$$$$
ligand
 OpenBabel11021811483D
libRbt.so/2013.1/901 2013/11/27
 27 29  0  0  0  0  0  0  0  0999 V2000
   14.9199   -8.6106    6.7663 N   0  0  0  0  0  0  0  0  0  0  0  0
   13.8330   -8.0788    5.9419 C   0  0  2  0  0  0  0  0  0  0  0  0
   14.1657   -7.8619    4.4637 C   0  0  0  0  0  0  0  0  0  0  0  0
   13.3176   -7.3491    3.7347 O   0  0  0  0  0  0  0  0  0  0  0  0
   13.2590   -6.8109    6.5515 C   0  0  0  0  0  0  0  0  0  0  0  0
   14.3267   -5.7459    6.7341 C   0  0  0  0  0  0  0  0  0  0  0  0
   13.6158   -4.2449    7.4318 S   0  0  2  0  0  0  0  0  0  0  0  0
   12.7721   -3.5919    5.9755 C   0  0  0  0  0  0  0  0  0  0  0  0
   15.0682   -3.1683    7.4465 C   0  0  0  0  0  0  0  0  0  0  0  0
   15.9313   -3.4401    8.6648 C   0  0  1  0  0  0  0  0  0  0  0  0
   15.1412   -3.4970    9.8304 O   0  0  0  0  0  0  0  0  0  0  0  0
   16.6343   -4.7817    8.5985 C   0  0  1  0  0  0  0  0  0  0  0  0
   17.9069   -4.5879    8.0348 O   0  0  0  0  0  0  0  0  0  0  0  0
   16.7396   -5.1991   10.0513 C   0  0  1  0  0  0  0  0  0  0  0  0
   18.0481   -4.8981   10.4816 O   0  0  0  0  0  0  0  0  0  0  0  0
   15.7130   -4.3510   10.8054 C   0  0  2  0  0  0  0  0  0  0  0  0
   15.2476   -8.1839    3.9651 O   0  0  0  0  0  0  0  0  0  0  0  0
   13.9001   -7.1566   14.8378 N   0  0  0  0  0  0  0  0  0  0  0  0
   15.0570   -6.4182   14.7769 C   0  0  0  0  0  0  0  0  0  0  0  0
   15.3653   -5.7441   13.6158 N   0  0  0  0  0  0  0  0  0  0  0  0
   14.5486   -5.7952   12.5397 C   0  0  0  0  0  0  0  0  0  0  0  0
   13.3701   -6.5253   12.5908 C   0  0  0  0  0  0  0  0  0  0  0  0
   13.0495   -7.2209   13.7546 C   0  0  0  0  0  0  0  0  0  0  0  0
   11.9294   -7.9390   13.8403 N   0  0  0  0  0  0  0  0  0  0  0  0
   12.7473   -6.3971   11.3908 N   0  0  0  0  0  0  0  0  0  0  0  0
   13.5020   -5.5938   10.6061 C   0  0  0  0  0  0  0  0  0  0  0  0
   14.6183   -5.2063   11.3055 N   0  0  0  0  0  0  0  0  0  0  0  0
  2  1  1  1  0  0  0
  2  3  1  0  0  0  0
  2  5  1  0  0  0  0
  3  4  1  0  0  0  0
  3 17  1  0  0  0  0
  5  6  1  0  0  0  0
  7  6  1  6  0  0  0
  7  8  1  0  0  0  0
  7  9  1  0  0  0  0
 10  9  1  6  0  0  0
 10 11  1  0  0  0  0
 10 12  1  0  0  0  0
 11 16  1  0  0  0  0
 12 13  1  1  0  0  0
 12 14  1  0  0  0  0
 14 15  1  1  0  0  0
 14 16  1  0  0  0  0
 16 27  1  6  0  0  0
 18 19  2  0  0  0  0
 18 23  1  0  0  0  0
 19 20  1  0  0  0  0
 20 21  2  0  0  0  0
 21 22  1  0  0  0  0
 21 27  1  0  0  0  0
 22 23  2  0  0  0  0
 22 25  1  0  0  0  0
 23 24  1  0  0  0  0
 25 26  2  0  0  0  0
 26 27  1  0  0  0  0
M  END
>  <CHROM.1>
-176.08054681,57.52345405,179.04671121,-75.34010508,-82.00084901,-47.25932439
-153.46395829,14.60772656,-5.76858171,9.22162456,1.55952094,-0.85197574,-1.59916087

>  <Name>
ligand

>  <RI>
0

>  <Rbt.Current_Directory>
/home/itssahil/PROJECTS/Mol_Feturizer/New_Systems/rnas/3GX5

>  <Rbt.Executable>
rbdock ($Id: //depot/dev/client3/rdock/2013.1/src/exe/rbdock.cxx#4 $)

>  <Rbt.Library>
libRbt.so (2013.1, Build901 2013/11/27)

>  <Rbt.Parameter_File>
/export/apps/rDock/src/rDock_2013.1_src/data/scripts/dock_solv.prm

>  <Rbt.Receptor>
prm/pocket_docking_4.prm

>  <SCORE>
-16.2058

>  <SCORE.INTER>
-15.886

>  <SCORE.INTER.CONST>
1

>  <SCORE.INTER.POLAR>
0

>  <SCORE.INTER.ROT>
7

>  <SCORE.INTER.SOLV>
9.4422

>  <SCORE.INTER.VDW>
-22.0047

>  <SCORE.INTER.norm>
-0.58837

>  <SCORE.INTRA>
-0.319829

>  <SCORE.INTRA.DIHEDRAL>
0.300019

>  <SCORE.INTRA.DIHEDRAL.0>
4.28829

>  <SCORE.INTRA.POLAR>
0

>  <SCORE.INTRA.POLAR.0>
0

>  <SCORE.INTRA.REPUL>
0

>  <SCORE.INTRA.REPUL.0>
0

>  <SCORE.INTRA.SOLV>
-0.279589

>  <SCORE.INTRA.SOLV.lig_0>
-48.6018

>  <SCORE.INTRA.VDW>
-0.330044

>  <SCORE.INTRA.VDW.0>
-2.1506

>  <SCORE.INTRA.norm>
-0.0118455

>  <SCORE.RESTR>
0

>  <SCORE.RESTR.CAVITY>
0

>  <SCORE.RESTR.norm>
0

>  <SCORE.SYSTEM>
0

>  <SCORE.SYSTEM.CONST>
0

>  <SCORE.SYSTEM.DIHEDRAL>
0

>  <SCORE.SYSTEM.SOLV>
0

>  <SCORE.SYSTEM.norm>
0

>  <SCORE.heavy>
27

>  <SCORE.norm>
-0.600215

>  <RMSD>
6.596

$$$$
ligand
 OpenBabel11021811483D
libRbt.so/2013.1/901 2013/11/27
 27 29  0  0  0  0  0  0  0  0999 V2000
   14.9225   -8.6054    6.7769 N   0  0  0  0  0  0  0  0  0  0  0  0
   13.8330   -8.0931    5.9437 C   0  0  2  0  0  0  0  0  0  0  0  0
   14.1698   -7.8825    4.4655 C   0  0  0  0  0  0  0  0  0  0  0  0
   13.3075   -7.4164    3.7220 O   0  0  0  0  0  0  0  0  0  0  0  0
   13.2403   -6.8281    6.5416 C   0  0  0  0  0  0  0  0  0  0  0  0
   14.3028   -5.7664    6.7682 C   0  0  0  0  0  0  0  0  0  0  0  0
   13.5736   -4.2752    7.4679 S   0  0  2  0  0  0  0  0  0  0  0  0
   12.7299   -3.6255    6.0101 C   0  0  0  0  0  0  0  0  0  0  0  0
   15.0149   -3.1840    7.4931 C   0  0  0  0  0  0  0  0  0  0  0  0
   15.8785   -3.4557    8.7111 C   0  0  1  0  0  0  0  0  0  0  0  0
   15.0913   -3.4930    9.8795 O   0  0  0  0  0  0  0  0  0  0  0  0
   16.5651   -4.8062    8.6543 C   0  0  1  0  0  0  0  0  0  0  0  0
   17.8382   -4.6325    8.0851 O   0  0  0  0  0  0  0  0  0  0  0  0
   16.6699   -5.2122   10.1104 C   0  0  1  0  0  0  0  0  0  0  0  0
   17.9832   -4.9233   10.5341 O   0  0  0  0  0  0  0  0  0  0  0  0
   15.6559   -4.3455   10.8601 C   0  0  2  0  0  0  0  0  0  0  0  0
   15.2690   -8.1647    3.9810 O   0  0  0  0  0  0  0  0  0  0  0  0
   13.8647   -7.1712   14.8881 N   0  0  0  0  0  0  0  0  0  0  0  0
   15.0368   -6.4586   14.8134 C   0  0  0  0  0  0  0  0  0  0  0  0
   15.3359   -5.7737   13.6561 N   0  0  0  0  0  0  0  0  0  0  0  0
   14.4956   -5.7894   12.5973 C   0  0  0  0  0  0  0  0  0  0  0  0
   13.3018   -6.4932   12.6628 C   0  0  0  0  0  0  0  0  0  0  0  0
   12.9900   -7.1993   13.8228 C   0  0  0  0  0  0  0  0  0  0  0  0
   11.8556   -7.8929   13.9219 N   0  0  0  0  0  0  0  0  0  0  0  0
   12.6568   -6.3322   11.4787 N   0  0  0  0  0  0  0  0  0  0  0  0
   13.4130   -5.5342   10.6900 C   0  0  0  0  0  0  0  0  0  0  0  0
   14.5526   -5.1832   11.3709 N   0  0  0  0  0  0  0  0  0  0  0  0
  2  1  1  1  0  0  0
  2  3  1  0  0  0  0
  2  5  1  0  0  0  0
  3  4  1  0  0  0  0
  3 17  1  0  0  0  0
  5  6  1  0  0  0  0
  7  6  1  6  0  0  0
  7  8  1  0  0  0  0
  7  9  1  0  0  0  0
 10  9  1  6  0  0  0
 10 11  1  0  0  0  0
 10 12  1  0  0  0  0
 11 16  1  0  0  0  0
 12 13  1  1  0  0  0
 12 14  1  0  0  0  0
 14 15  1  1  0  0  0
 14 16  1  0  0  0  0
 16 27  1  6  0  0  0
 18 19  2  0  0  0  0
 18 23  1  0  0  0  0
 19 20  1  0  0  0  0
 20 21  2  0  0  0  0
 21 22  1  0  0  0  0
 21 27  1  0  0  0  0
 22 23  2  0  0  0  0
 22 25  1  0  0  0  0
 23 24  1  0  0  0  0
 25 26  2  0  0  0  0
 26 27  1  0  0  0  0
M  END
>  <CHROM.1>
-177.87326417,55.46420818,179.67223112,-73.79481246,-81.74753820,-48.84248074
-155.30262777,14.56454608,-5.77582419,9.26399931,1.55103965,-0.84980935,-1.61126425

>  <Name>
ligand

>  <RI>
0

>  <Rbt.Current_Directory>
/home/itssahil/PROJECTS/Mol_Feturizer/New_Systems/rnas/3GX5

>  <Rbt.Executable>
rbdock ($Id: //depot/dev/client3/rdock/2013.1/src/exe/rbdock.cxx#4 $)

>  <Rbt.Library>
libRbt.so (2013.1, Build901 2013/11/27)

>  <Rbt.Parameter_File>
/export/apps/rDock/src/rDock_2013.1_src/data/scripts/dock_solv.prm

>  <Rbt.Receptor>
prm/pocket_docking_5.prm

>  <SCORE>
-16.3555

>  <SCORE.INTER>
-16.0876

>  <SCORE.INTER.CONST>
1

>  <SCORE.INTER.POLAR>
0

>  <SCORE.INTER.ROT>
7

>  <SCORE.INTER.SOLV>
9.56686

>  <SCORE.INTER.VDW>
-22.1807

>  <SCORE.INTER.norm>
-0.595837

>  <SCORE.INTRA>
-0.267852

>  <SCORE.INTRA.DIHEDRAL>
0.16602

>  <SCORE.INTRA.DIHEDRAL.0>
4.28829

>  <SCORE.INTRA.POLAR>
0

>  <SCORE.INTRA.POLAR.0>
0

>  <SCORE.INTRA.REPUL>
0

>  <SCORE.INTRA.REPUL.0>
0

>  <SCORE.INTRA.SOLV>
-0.223469

>  <SCORE.INTRA.SOLV.lig_0>
-48.6018

>  <SCORE.INTRA.VDW>
-0.239128

>  <SCORE.INTRA.VDW.0>
-2.1506

>  <SCORE.INTRA.norm>
-0.00992044

>  <SCORE.RESTR>
0

>  <SCORE.RESTR.CAVITY>
0

>  <SCORE.RESTR.norm>
0

>  <SCORE.SYSTEM>
0

>  <SCORE.SYSTEM.CONST>
0

>  <SCORE.SYSTEM.DIHEDRAL>
0

>  <SCORE.SYSTEM.SOLV>
0

>  <SCORE.SYSTEM.norm>
0

>  <SCORE.heavy>
27

>  <SCORE.norm>
-0.605758

>  <RMSD>
6.610

$$$$
ligand
 OpenBabel11021811483D
libRbt.so/2013.1/901 2013/11/27
 27 29  0  0  0  0  0  0  0  0999 V2000
   15.5824   -8.1243    6.6435 N   0  0  0  0  0  0  0  0  0  0  0  0
   14.4453   -7.5087    5.9564 C   0  0  2  0  0  0  0  0  0  0  0  0
   14.3472   -7.7868    4.4544 C   0  0  0  0  0  0  0  0  0  0  0  0
   15.2560   -8.4093    3.9065 O   0  0  0  0  0  0  0  0  0  0  0  0
   14.3907   -6.0146    6.2273 C   0  0  0  0  0  0  0  0  0  0  0  0
   13.7861   -5.7154    7.5883 C   0  0  0  0  0  0  0  0  0  0  0  0
   13.3719   -3.9681    7.7308 S   0  0  2  0  0  0  0  0  0  0  0  0
   12.6939   -3.6719    6.0840 C   0  0  0  0  0  0  0  0  0  0  0  0
   15.0062   -3.2237    7.5220 C   0  0  0  0  0  0  0  0  0  0  0  0
   15.8693   -3.4599    8.7477 C   0  0  1  0  0  0  0  0  0  0  0  0
   15.0770   -3.4998    9.9126 O   0  0  0  0  0  0  0  0  0  0  0  0
   16.5864   -4.7951    8.7121 C   0  0  1  0  0  0  0  0  0  0  0  0
   17.8583   -4.6001    8.1470 O   0  0  0  0  0  0  0  0  0  0  0  0
   16.6927   -5.1797   10.1739 C   0  0  1  0  0  0  0  0  0  0  0  0
   17.9970   -4.8556   10.6003 O   0  0  0  0  0  0  0  0  0  0  0  0
   15.6555   -4.3264   10.9071 C   0  0  2  0  0  0  0  0  0  0  0  0
   13.3975   -7.4094    3.7628 O   0  0  0  0  0  0  0  0  0  0  0  0
   13.9574   -7.2276   14.9218 N   0  0  0  0  0  0  0  0  0  0  0  0
   15.1213   -6.5026   14.8385 C   0  0  0  0  0  0  0  0  0  0  0  0
   15.3949   -5.7981   13.6868 N   0  0  0  0  0  0  0  0  0  0  0  0
   14.5375   -5.8066   12.6416 C   0  0  0  0  0  0  0  0  0  0  0  0
   13.3517   -6.5228   12.7162 C   0  0  0  0  0  0  0  0  0  0  0  0
   13.0657   -7.2487   13.8705 C   0  0  0  0  0  0  0  0  0  0  0  0
   11.9397   -7.9546   13.9778 N   0  0  0  0  0  0  0  0  0  0  0  0
   12.6859   -6.3510   11.5452 N   0  0  0  0  0  0  0  0  0  0  0  0
   13.4215   -5.5343   10.7561 C   0  0  0  0  0  0  0  0  0  0  0  0
   14.5687   -5.1822   11.4234 N   0  0  0  0  0  0  0  0  0  0  0  0
  2  1  1  6  0  0  0
  2  3  1  0  0  0  0
  2  5  1  0  0  0  0
  3  4  1  0  0  0  0
  3 17  1  0  0  0  0
  5  6  1  0  0  0  0
  7  6  1  6  0  0  0
  7  8  1  0  0  0  0
  7  9  1  0  0  0  0
 10  9  1  6  0  0  0
 10 11  1  0  0  0  0
 10 12  1  0  0  0  0
 11 16  1  0  0  0  0
 12 13  1  1  0  0  0
 12 14  1  0  0  0  0
 14 15  1  1  0  0  0
 14 16  1  0  0  0  0
 16 27  1  6  0  0  0
 18 19  2  0  0  0  0
 18 23  1  0  0  0  0
 19 20  1  0  0  0  0
 20 21  2  0  0  0  0
 21 22  1  0  0  0  0
 21 27  1  0  0  0  0
 22 23  2  0  0  0  0
 22 25  1  0  0  0  0
 23 24  1  0  0  0  0
 25 26  2  0  0  0  0
 26 27  1  0  0  0  0
M  END
>  <CHROM.1>
-5.24863365,-79.37409247,-166.59142009,40.86189641,-72.05891093,-32.06213410
-157.44236392,14.64182655,-5.69709335,9.33088172,1.51541520,-0.85846433,-1.61653278

>  <Name>
ligand

>  <RI>
0

>  <Rbt.Current_Directory>
/home/itssahil/PROJECTS/Mol_Feturizer/New_Systems/rnas/3GX5

>  <Rbt.Executable>
rbdock ($Id: //depot/dev/client3/rdock/2013.1/src/exe/rbdock.cxx#4 $)

>  <Rbt.Library>
libRbt.so (2013.1, Build901 2013/11/27)

>  <Rbt.Parameter_File>
/export/apps/rDock/src/rDock_2013.1_src/data/scripts/dock_solv.prm

>  <Rbt.Receptor>
prm/pocket_docking_4.prm

>  <SCORE>
-12.4609

>  <SCORE.INTER>
-16.2224

>  <SCORE.INTER.CONST>
1

>  <SCORE.INTER.POLAR>
0

>  <SCORE.INTER.ROT>
7

>  <SCORE.INTER.SOLV>
8.83741

>  <SCORE.INTER.VDW>
-22.0274

>  <SCORE.INTER.norm>
-0.600829

>  <SCORE.INTRA>
3.76146

>  <SCORE.INTRA.DIHEDRAL>
3.75748

>  <SCORE.INTRA.DIHEDRAL.0>
4.28829

>  <SCORE.INTRA.POLAR>
0

>  <SCORE.INTRA.POLAR.0>
0

>  <SCORE.INTRA.REPUL>
0

>  <SCORE.INTRA.REPUL.0>
0

>  <SCORE.INTRA.SOLV>
0.0316343

>  <SCORE.INTRA.SOLV.lig_0>
-48.6018

>  <SCORE.INTRA.VDW>
1.86691

>  <SCORE.INTRA.VDW.0>
-2.1506

>  <SCORE.INTRA.norm>
0.139313

>  <SCORE.RESTR>
0

>  <SCORE.RESTR.CAVITY>
0

>  <SCORE.RESTR.norm>
0

>  <SCORE.SYSTEM>
0

>  <SCORE.SYSTEM.CONST>
0

>  <SCORE.SYSTEM.DIHEDRAL>
0

>  <SCORE.SYSTEM.SOLV>
0

>  <SCORE.SYSTEM.norm>
0

>  <SCORE.heavy>
27

>  <SCORE.norm>
-0.461515

>  <RMSD>
6.616

$$$$
ligand
 OpenBabel11021811483D
libRbt.so/2013.1/901 2013/11/27
 27 29  0  0  0  0  0  0  0  0999 V2000
   14.4432   -7.2475    5.0029 N   0  0  0  0  0  0  0  0  0  0  0  0
   13.9910   -7.1739    6.3935 C   0  0  2  0  0  0  0  0  0  0  0  0
   13.5473   -8.4987    7.0187 C   0  0  0  0  0  0  0  0  0  0  0  0
   13.2278   -8.5156    8.2067 O   0  0  0  0  0  0  0  0  0  0  0  0
   12.9112   -6.1177    6.5586 C   0  0  0  0  0  0  0  0  0  0  0  0
   13.4846   -4.7139    6.4697 C   0  0  0  0  0  0  0  0  0  0  0  0
   14.1925   -4.2142    8.0491 S   0  0  2  0  0  0  0  0  0  0  0  0
   14.9314   -2.6365    7.5758 C   0  0  0  0  0  0  0  0  0  0  0  0
   15.6781   -5.2440    8.0851 C   0  0  0  0  0  0  0  0  0  0  0  0
   16.6212   -4.7954    9.1862 C   0  0  1  0  0  0  0  0  0  0  0  0
   15.9117   -4.5532   10.3795 O   0  0  0  0  0  0  0  0  0  0  0  0
   17.6486   -5.8509    9.5450 C   0  0  1  0  0  0  0  0  0  0  0  0
   18.8071   -5.6185    8.7841 O   0  0  0  0  0  0  0  0  0  0  0  0
   17.9066   -5.6083   11.0183 C   0  0  1  0  0  0  0  0  0  0  0  0
   19.1037   -4.8704   11.1198 O   0  0  0  0  0  0  0  0  0  0  0  0
   16.7186   -4.7850   11.5207 C   0  0  2  0  0  0  0  0  0  0  0  0
   13.5002   -9.5569    6.3857 O   0  0  0  0  0  0  0  0  0  0  0  0
   15.1980   -9.6003   12.9059 N   0  0  0  0  0  0  0  0  0  0  0  0
   16.0694   -9.2469   11.9044 C   0  0  0  0  0  0  0  0  0  0  0  0
   16.3449   -7.9142   11.6907 N   0  0  0  0  0  0  0  0  0  0  0  0
   15.7753   -6.9518   12.4503 C   0  0  0  0  0  0  0  0  0  0  0  0
   14.9041   -7.2940   13.4744 C   0  0  0  0  0  0  0  0  0  0  0  0
   14.6076   -8.6372   13.6963 C   0  0  0  0  0  0  0  0  0  0  0  0
   13.7702   -9.0056   14.6662 N   0  0  0  0  0  0  0  0  0  0  0  0
   14.4924   -6.1467   14.0730 N   0  0  0  0  0  0  0  0  0  0  0  0
   15.0990   -5.1064   13.4563 C   0  0  0  0  0  0  0  0  0  0  0  0
   15.9031   -5.5886   12.4530 N   0  0  0  0  0  0  0  0  0  0  0  0
  2  1  1  6  0  0  0
  2  3  1  0  0  0  0
  2  5  1  0  0  0  0
  3  4  1  0  0  0  0
  3 17  1  0  0  0  0
  5  6  1  0  0  0  0
  7  6  1  6  0  0  0
  7  8  1  0  0  0  0
  7  9  1  0  0  0  0
 10  9  1  6  0  0  0
 10 11  1  0  0  0  0
 10 12  1  0  0  0  0
 11 16  1  0  0  0  0
 12 13  1  6  0  0  0
 12 14  1  0  0  0  0
 14 15  1  6  0  0  0
 14 16  1  0  0  0  0
 16 27  1  1  0  0  0
 18 19  2  0  0  0  0
 18 23  1  0  0  0  0
 19 20  1  0  0  0  0
 20 21  2  0  0  0  0
 21 22  1  0  0  0  0
 21 27  1  0  0  0  0
 22 23  2  0  0  0  0
 22 25  1  0  0  0  0
 23 24  1  0  0  0  0
 25 26  2  0  0  0  0
 26 27  1  0  0  0  0
M  END
>  <CHROM.1>
175.97688285,-72.77097149,-81.99499937,173.97699979,167.64049167,44.79844100
85.58965289,15.32192396,-6.36322869,9.89559332,1.93834794,-0.91101867,-1.09783588

>  <Name>
ligand

>  <RI>
0

>  <Rbt.Current_Directory>
/home/itssahil/PROJECTS/Mol_Feturizer/New_Systems/rnas/3GX5

>  <Rbt.Executable>
rbdock ($Id: //depot/dev/client3/rdock/2013.1/src/exe/rbdock.cxx#4 $)

>  <Rbt.Library>
libRbt.so (2013.1, Build901 2013/11/27)

>  <Rbt.Parameter_File>
/export/apps/rDock/src/rDock_2013.1_src/data/scripts/dock_solv.prm

>  <Rbt.Receptor>
prm/pocket_docking_7.prm

>  <SCORE>
-11.2963

>  <SCORE.INTER>
-12.7831

>  <SCORE.INTER.CONST>
1

>  <SCORE.INTER.POLAR>
0

>  <SCORE.INTER.ROT>
7

>  <SCORE.INTER.SOLV>
10.1293

>  <SCORE.INTER.VDW>
-20.1652

>  <SCORE.INTER.norm>
-0.473449

>  <SCORE.INTRA>
1.48307

>  <SCORE.INTRA.DIHEDRAL>
2.20468

>  <SCORE.INTRA.DIHEDRAL.0>
4.28829

>  <SCORE.INTRA.POLAR>
0

>  <SCORE.INTRA.POLAR.0>
0

>  <SCORE.INTRA.REPUL>
0

>  <SCORE.INTRA.REPUL.0>
0

>  <SCORE.INTRA.SOLV>
0.26955

>  <SCORE.INTRA.SOLV.lig_0>
-48.6018

>  <SCORE.INTRA.VDW>
0.24596

>  <SCORE.INTRA.VDW.0>
-2.1506

>  <SCORE.INTRA.norm>
0.0549287

>  <SCORE.RESTR>
0.00370122

>  <SCORE.RESTR.CAVITY>
0.00370122

>  <SCORE.RESTR.norm>
0.000137082

>  <SCORE.SYSTEM>
0

>  <SCORE.SYSTEM.CONST>
0

>  <SCORE.SYSTEM.DIHEDRAL>
0

>  <SCORE.SYSTEM.SOLV>
0

>  <SCORE.SYSTEM.norm>
0

>  <SCORE.heavy>
27

>  <SCORE.norm>
-0.418383

>  <RMSD>
6.618

$$$$
ligand
 OpenBabel11021811483D
libRbt.so/2013.1/901 2013/11/27
 27 29  0  0  0  0  0  0  0  0999 V2000
   15.0364   -3.5902    7.6147 N   0  0  0  0  0  0  0  0  0  0  0  0
   14.6674   -4.3226    6.4018 C   0  0  2  0  0  0  0  0  0  0  0  0
   13.1663   -4.4358    6.1250 C   0  0  0  0  0  0  0  0  0  0  0  0
   12.5969   -3.5051    5.5565 O   0  0  0  0  0  0  0  0  0  0  0  0
   15.3199   -5.6946    6.3759 C   0  0  0  0  0  0  0  0  0  0  0  0
   16.8158   -5.5972    6.1304 C   0  0  0  0  0  0  0  0  0  0  0  0
   17.6258   -7.1619    6.5057 S   0  0  2  0  0  0  0  0  0  0  0  0
   16.6476   -8.2758    5.4754 C   0  0  0  0  0  0  0  0  0  0  0  0
   16.9001   -7.5298    8.1203 C   0  0  0  0  0  0  0  0  0  0  0  0
   17.2272   -6.4381    9.1224 C   0  0  1  0  0  0  0  0  0  0  0  0
   16.1326   -6.2065    9.9793 O   0  0  0  0  0  0  0  0  0  0  0  0
   18.3755   -6.8088   10.0401 C   0  0  1  0  0  0  0  0  0  0  0  0
   19.5675   -6.3210    9.4778 O   0  0  0  0  0  0  0  0  0  0  0  0
   18.0459   -6.0859   11.3304 C   0  0  1  0  0  0  0  0  0  0  0  0
   18.8231   -4.9100   11.3641 O   0  0  0  0  0  0  0  0  0  0  0  0
   16.5556   -5.7480   11.2513 C   0  0  2  0  0  0  0  0  0  0  0  0
   12.4960   -5.4190    6.4517 O   0  0  0  0  0  0  0  0  0  0  0  0
   11.8211   -7.1480   12.9956 N   0  0  0  0  0  0  0  0  0  0  0  0
   12.1204   -6.3453   11.9217 C   0  0  0  0  0  0  0  0  0  0  0  0
   13.4398   -6.0893   11.6193 N   0  0  0  0  0  0  0  0  0  0  0  0
   14.4415   -6.6162   12.3586 C   0  0  0  0  0  0  0  0  0  0  0  0
   14.1552   -7.4398   13.4376 C   0  0  0  0  0  0  0  0  0  0  0  0
   12.8254   -7.6998   13.7623 C   0  0  0  0  0  0  0  0  0  0  0  0
   12.5096   -8.4808   14.7957 N   0  0  0  0  0  0  0  0  0  0  0  0
   15.3332   -7.8309   13.9885 N   0  0  0  0  0  0  0  0  0  0  0  0
   16.3394   -7.2839   13.2681 C   0  0  0  0  0  0  0  0  0  0  0  0
   15.8039   -6.5339   12.2500 N   0  0  0  0  0  0  0  0  0  0  0  0
  2  1  1  1  0  0  0
  2  3  1  0  0  0  0
  2  5  1  0  0  0  0
  3  4  1  0  0  0  0
  3 17  1  0  0  0  0
  5  6  1  0  0  0  0
  7  6  1  6  0  0  0
  7  8  1  0  0  0  0
  7  9  1  0  0  0  0
 10  9  1  6  0  0  0
 10 11  1  0  0  0  0
 10 12  1  0  0  0  0
 11 16  1  0  0  0  0
 12 13  1  6  0  0  0
 12 14  1  0  0  0  0
 14 15  1  6  0  0  0
 14 16  1  0  0  0  0
 16 27  1  1  0  0  0
 18 19  2  0  0  0  0
 18 23  1  0  0  0  0
 19 20  1  0  0  0  0
 20 21  2  0  0  0  0
 21 22  1  0  0  0  0
 21 27  1  0  0  0  0
 22 23  2  0  0  0  0
 22 25  1  0  0  0  0
 23 24  1  0  0  0  0
 25 26  2  0  0  0  0
 26 27  1  0  0  0  0
M  END
>  <CHROM.1>
83.60289919,-71.33945447,165.93338701,53.95102830,-60.27999072,142.71622647
-57.70383637,15.51134232,-6.29292662,9.65670191,1.34531496,0.14966975,-1.31807548

>  <Name>
ligand

>  <RI>
0

>  <Rbt.Current_Directory>
/home/itssahil/PROJECTS/Mol_Feturizer/New_Systems/rnas/3GX5

>  <Rbt.Executable>
rbdock ($Id: //depot/dev/client3/rdock/2013.1/src/exe/rbdock.cxx#4 $)

>  <Rbt.Library>
libRbt.so (2013.1, Build901 2013/11/27)

>  <Rbt.Parameter_File>
/export/apps/rDock/src/rDock_2013.1_src/data/scripts/dock_solv.prm

>  <Rbt.Receptor>
prm/pocket_docking_5.prm

>  <SCORE>
-6.70262

>  <SCORE.INTER>
-11.3291

>  <SCORE.INTER.CONST>
1

>  <SCORE.INTER.POLAR>
0

>  <SCORE.INTER.ROT>
7

>  <SCORE.INTER.SOLV>
9.29234

>  <SCORE.INTER.VDW>
-18.9168

>  <SCORE.INTER.norm>
-0.419596

>  <SCORE.INTRA>
4.62647

>  <SCORE.INTRA.DIHEDRAL>
4.19001

>  <SCORE.INTRA.DIHEDRAL.0>
4.28829

>  <SCORE.INTRA.POLAR>
0

>  <SCORE.INTRA.POLAR.0>
0

>  <SCORE.INTRA.REPUL>
0

>  <SCORE.INTRA.REPUL.0>
0

>  <SCORE.INTRA.SOLV>
0.763542

>  <SCORE.INTRA.SOLV.lig_0>
-48.6018

>  <SCORE.INTRA.VDW>
2.14969

>  <SCORE.INTRA.VDW.0>
-2.1506

>  <SCORE.INTRA.norm>
0.171351

>  <SCORE.RESTR>
0

>  <SCORE.RESTR.CAVITY>
0

>  <SCORE.RESTR.norm>
0

>  <SCORE.SYSTEM>
0

>  <SCORE.SYSTEM.CONST>
0

>  <SCORE.SYSTEM.DIHEDRAL>
0

>  <SCORE.SYSTEM.SOLV>
0

>  <SCORE.SYSTEM.norm>
0

>  <SCORE.heavy>
27

>  <SCORE.norm>
-0.248245

>  <RMSD>
6.626

$$$$
ligand
 OpenBabel11021811483D
libRbt.so/2013.1/901 2013/11/27
 27 29  0  0  0  0  0  0  0  0999 V2000
   15.0282   -8.6023    6.6275 N   0  0  0  0  0  0  0  0  0  0  0  0
   13.8737   -8.1300    5.8608 C   0  0  2  0  0  0  0  0  0  0  0  0
   14.1076   -7.9342    4.3608 C   0  0  0  0  0  0  0  0  0  0  0  0
   13.2068   -7.4462    3.6795 O   0  0  0  0  0  0  0  0  0  0  0  0
   13.2892   -6.8708    6.4787 C   0  0  0  0  0  0  0  0  0  0  0  0
   14.3439   -5.7911    6.6495 C   0  0  0  0  0  0  0  0  0  0  0  0
   13.6331   -4.3217    7.4118 S   0  0  2  0  0  0  0  0  0  0  0  0
   12.7428   -3.6358    5.9990 C   0  0  0  0  0  0  0  0  0  0  0  0
   15.0717   -3.2268    7.4219 C   0  0  0  0  0  0  0  0  0  0  0  0
   15.9135   -3.4503    8.6647 C   0  0  1  0  0  0  0  0  0  0  0  0
   15.0995   -3.4957    9.8142 O   0  0  0  0  0  0  0  0  0  0  0  0
   16.6456   -4.7777    8.6467 C   0  0  1  0  0  0  0  0  0  0  0  0
   17.9259   -4.5705    8.1056 O   0  0  0  0  0  0  0  0  0  0  0  0
   16.7279   -5.1572   10.1114 C   0  0  1  0  0  0  0  0  0  0  0  0
   18.0201   -4.8178   10.5619 O   0  0  0  0  0  0  0  0  0  0  0  0
   15.6676   -4.3133   10.8221 C   0  0  2  0  0  0  0  0  0  0  0  0
   15.1601   -8.2494    3.7991 O   0  0  0  0  0  0  0  0  0  0  0  0
   13.9026   -7.1852   14.8289 N   0  0  0  0  0  0  0  0  0  0  0  0
   15.0566   -6.4424   14.7680 C   0  0  0  0  0  0  0  0  0  0  0  0
   15.3516   -5.7498   13.6143 N   0  0  0  0  0  0  0  0  0  0  0  0
   14.5245   -5.7871   12.5455 C   0  0  0  0  0  0  0  0  0  0  0  0
   13.3487   -6.5215   12.5970 C   0  0  0  0  0  0  0  0  0  0  0  0
   13.0415   -7.2357   13.7533 C   0  0  0  0  0  0  0  0  0  0  0  0
   11.9244   -7.9584   13.8390 N   0  0  0  0  0  0  0  0  0  0  0  0
   12.7137   -6.3770   11.4053 N   0  0  0  0  0  0  0  0  0  0  0  0
   13.4583   -5.5596   10.6256 C   0  0  0  0  0  0  0  0  0  0  0  0
   14.5804   -5.1794   11.3198 N   0  0  0  0  0  0  0  0  0  0  0  0
  2  1  1  1  0  0  0
  2  3  1  0  0  0  0
  2  5  1  0  0  0  0
  3  4  1  0  0  0  0
  3 17  1  0  0  0  0
  5  6  1  0  0  0  0
  7  6  1  6  0  0  0
  7  8  1  0  0  0  0
  7  9  1  0  0  0  0
 10  9  1  6  0  0  0
 10 11  1  0  0  0  0
 10 12  1  0  0  0  0
 11 16  1  0  0  0  0
 12 13  1  1  0  0  0
 12 14  1  0  0  0  0
 14 15  1  1  0  0  0
 14 16  1  0  0  0  0
 16 27  1  6  0  0  0
 18 19  2  0  0  0  0
 18 23  1  0  0  0  0
 19 20  1  0  0  0  0
 20 21  2  0  0  0  0
 21 22  1  0  0  0  0
 21 27  1  0  0  0  0
 22 23  2  0  0  0  0
 22 25  1  0  0  0  0
 23 24  1  0  0  0  0
 25 26  2  0  0  0  0
 26 27  1  0  0  0  0
M  END
>  <CHROM.1>
-174.71806365,54.15345217,-178.92756594,-76.08341621,-86.40895863,-46.64187743
-156.54869706,14.59481380,-5.78626843,9.20540081,1.57084905,-0.85299921,-1.60784323

>  <Name>
ligand

>  <RI>
0

>  <Rbt.Current_Directory>
/home/itssahil/PROJECTS/Mol_Feturizer/New_Systems/rnas/3GX5

>  <Rbt.Executable>
rbdock ($Id: //depot/dev/client3/rdock/2013.1/src/exe/rbdock.cxx#4 $)

>  <Rbt.Library>
libRbt.so (2013.1, Build901 2013/11/27)

>  <Rbt.Parameter_File>
/export/apps/rDock/src/rDock_2013.1_src/data/scripts/dock_solv.prm

>  <Rbt.Receptor>
prm/pocket_docking_4.prm

>  <SCORE>
-16.2712

>  <SCORE.INTER>
-16.2

>  <SCORE.INTER.CONST>
1

>  <SCORE.INTER.POLAR>
0

>  <SCORE.INTER.ROT>
7

>  <SCORE.INTER.SOLV>
9.45393

>  <SCORE.INTER.VDW>
-22.218

>  <SCORE.INTER.norm>
-0.599999

>  <SCORE.INTRA>
-0.0712376

>  <SCORE.INTRA.DIHEDRAL>
0.855163

>  <SCORE.INTRA.DIHEDRAL.0>
4.28829

>  <SCORE.INTRA.POLAR>
0

>  <SCORE.INTRA.POLAR.0>
0

>  <SCORE.INTRA.REPUL>
0

>  <SCORE.INTRA.REPUL.0>
0

>  <SCORE.INTRA.SOLV>
-0.26534

>  <SCORE.INTRA.SOLV.lig_0>
-48.6018

>  <SCORE.INTRA.VDW>
-0.366149

>  <SCORE.INTRA.VDW.0>
-2.1506

>  <SCORE.INTRA.norm>
-0.00263843

>  <SCORE.RESTR>
0

>  <SCORE.RESTR.CAVITY>
0

>  <SCORE.RESTR.norm>
0

>  <SCORE.SYSTEM>
0

>  <SCORE.SYSTEM.CONST>
0

>  <SCORE.SYSTEM.DIHEDRAL>
0

>  <SCORE.SYSTEM.SOLV>
0

>  <SCORE.SYSTEM.norm>
0

>  <SCORE.heavy>
27

>  <SCORE.norm>
-0.602637

>  <RMSD>
6.632

$$$$
ligand
 OpenBabel11021811483D
libRbt.so/2013.1/901 2013/11/27
 27 29  0  0  0  0  0  0  0  0999 V2000
   15.5755   -8.4701    5.9333 N   0  0  0  0  0  0  0  0  0  0  0  0
   14.2018   -8.2774    5.4644 C   0  0  2  0  0  0  0  0  0  0  0  0
   14.0461   -7.9679    3.9735 C   0  0  0  0  0  0  0  0  0  0  0  0
   13.3215   -7.0330    3.6351 O   0  0  0  0  0  0  0  0  0  0  0  0
   13.4823   -7.2352    6.3039 C   0  0  0  0  0  0  0  0  0  0  0  0
   14.3578   -6.0198    6.5564 C   0  0  0  0  0  0  0  0  0  0  0  0
   13.4089   -4.7030    7.3380 S   0  0  2  0  0  0  0  0  0  0  0  0
   12.7150   -3.9060    5.8743 C   0  0  0  0  0  0  0  0  0  0  0  0
   14.7290   -3.5292    7.7230 C   0  0  0  0  0  0  0  0  0  0  0  0
   14.9974   -3.4868    9.2160 C   0  0  1  0  0  0  0  0  0  0  0  0
   13.8745   -3.9424    9.9355 O   0  0  0  0  0  0  0  0  0  0  0  0
   16.1320   -4.4010    9.6346 C   0  0  1  0  0  0  0  0  0  0  0  0
   17.3232   -3.6553    9.6397 O   0  0  0  0  0  0  0  0  0  0  0  0
   15.7476   -4.8236   11.0380 C   0  0  1  0  0  0  0  0  0  0  0  0
   16.4883   -4.0269   11.9350 O   0  0  0  0  0  0  0  0  0  0  0  0
   14.2504   -4.5345   11.1663 C   0  0  2  0  0  0  0  0  0  0  0  0
   14.6116   -8.6185    3.0905 O   0  0  0  0  0  0  0  0  0  0  0  0
   13.8232   -9.4743    9.4829 N   0  0  0  0  0  0  0  0  0  0  0  0
   14.7666   -8.5412    9.1273 C   0  0  0  0  0  0  0  0  0  0  0  0
   14.7109   -7.2818    9.6829 N   0  0  0  0  0  0  0  0  0  0  0  0
   13.7473   -6.9517   10.5718 C   0  0  0  0  0  0  0  0  0  0  0  0
   12.7961   -7.8876   10.9511 C   0  0  0  0  0  0  0  0  0  0  0  0
   12.8331   -9.1624   10.3902 C   0  0  0  0  0  0  0  0  0  0  0  0
   11.9326  -10.0873   10.7242 N   0  0  0  0  0  0  0  0  0  0  0  0
   11.9660   -7.2984   11.8500 N   0  0  0  0  0  0  0  0  0  0  0  0
   12.3896   -6.0287   12.0481 C   0  0  0  0  0  0  0  0  0  0  0  0
   13.4968   -5.8001   11.2688 N   0  0  0  0  0  0  0  0  0  0  0  0
  2  1  1  1  0  0  0
  2  3  1  0  0  0  0
  2  5  1  0  0  0  0
  3  4  1  0  0  0  0
  3 17  1  0  0  0  0
  5  6  1  0  0  0  0
  7  6  1  6  0  0  0
  7  8  1  0  0  0  0
  7  9  1  0  0  0  0
 10  9  1  6  0  0  0
 10 11  1  0  0  0  0
 10 12  1  0  0  0  0
 11 16  1  0  0  0  0
 12 13  1  1  0  0  0
 12 14  1  0  0  0  0
 14 15  1  1  0  0  0
 14 16  1  0  0  0  0
 16 27  1  6  0  0  0
 18 19  2  0  0  0  0
 18 23  1  0  0  0  0
 19 20  1  0  0  0  0
 20 21  2  0  0  0  0
 21 22  1  0  0  0  0
 21 27  1  0  0  0  0
 22 23  2  0  0  0  0
 22 25  1  0  0  0  0
 23 24  1  0  0  0  0
 25 26  2  0  0  0  0
 26 27  1  0  0  0  0
M  END
>  <CHROM.1>
-132.33225974,44.43227737,171.59262834,-85.99672257,-108.34467144,-22.33911568
74.24760852,14.13565561,-6.27782639,8.55752678,1.73460272,-1.17839548,-1.74652780

>  <Name>
ligand

>  <RI>
0

>  <Rbt.Current_Directory>
/home/itssahil/PROJECTS/Mol_Feturizer/New_Systems/rnas/3GX5

>  <Rbt.Executable>
rbdock ($Id: //depot/dev/client3/rdock/2013.1/src/exe/rbdock.cxx#4 $)

>  <Rbt.Library>
libRbt.so (2013.1, Build901 2013/11/27)

>  <Rbt.Parameter_File>
/export/apps/rDock/src/rDock_2013.1_src/data/scripts/dock_solv.prm

>  <Rbt.Receptor>
prm/pocket_docking_3.prm

>  <SCORE>
-7.46263

>  <SCORE.INTER>
-10.8846

>  <SCORE.INTER.CONST>
1

>  <SCORE.INTER.POLAR>
0

>  <SCORE.INTER.ROT>
7

>  <SCORE.INTER.SOLV>
13.1846

>  <SCORE.INTER.VDW>
-19.9179

>  <SCORE.INTER.norm>
-0.403132

>  <SCORE.INTRA>
3.42193

>  <SCORE.INTRA.DIHEDRAL>
7.8744

>  <SCORE.INTRA.DIHEDRAL.0>
4.28829

>  <SCORE.INTRA.POLAR>
0

>  <SCORE.INTRA.POLAR.0>
0

>  <SCORE.INTRA.REPUL>
0

>  <SCORE.INTRA.REPUL.0>
0

>  <SCORE.INTRA.SOLV>
0.14161

>  <SCORE.INTRA.SOLV.lig_0>
-48.6018

>  <SCORE.INTRA.VDW>
-0.586079

>  <SCORE.INTRA.VDW.0>
-2.1506

>  <SCORE.INTRA.norm>
0.126738

>  <SCORE.RESTR>
0

>  <SCORE.RESTR.CAVITY>
0

>  <SCORE.RESTR.norm>
0

>  <SCORE.SYSTEM>
0

>  <SCORE.SYSTEM.CONST>
0

>  <SCORE.SYSTEM.DIHEDRAL>
0

>  <SCORE.SYSTEM.SOLV>
0

>  <SCORE.SYSTEM.norm>
0

>  <SCORE.heavy>
27

>  <SCORE.norm>
-0.276394

>  <RMSD>
6.637

$$$$
ligand
 OpenBabel11021811483D
libRbt.so/2013.1/901 2013/11/27
 27 29  0  0  0  0  0  0  0  0999 V2000
   12.3671   -6.6299    6.0561 N   0  0  0  0  0  0  0  0  0  0  0  0
   13.5262   -6.6872    5.1634 C   0  0  2  0  0  0  0  0  0  0  0  0
   13.6177   -7.9284    4.2725 C   0  0  0  0  0  0  0  0  0  0  0  0
   13.3806   -7.8138    3.0707 O   0  0  0  0  0  0  0  0  0  0  0  0
   14.8187   -6.4895    5.9376 C   0  0  0  0  0  0  0  0  0  0  0  0
   15.1007   -5.0179    6.1873 C   0  0  0  0  0  0  0  0  0  0  0  0
   13.8988   -4.3254    7.3367 S   0  0  2  0  0  0  0  0  0  0  0  0
   12.7312   -3.5977    6.1680 C   0  0  0  0  0  0  0  0  0  0  0  0
   14.7693   -2.8308    7.8631 C   0  0  0  0  0  0  0  0  0  0  0  0
   15.7348   -3.1363    8.9934 C   0  0  1  0  0  0  0  0  0  0  0  0
   15.0354   -3.3699   10.1944 O   0  0  0  0  0  0  0  0  0  0  0  0
   16.5392   -4.3987    8.7531 C   0  0  1  0  0  0  0  0  0  0  0  0
   17.7491   -4.0421    8.1335 O   0  0  0  0  0  0  0  0  0  0  0  0
   16.7797   -4.9371   10.1489 C   0  0  1  0  0  0  0  0  0  0  0  0
   18.0859   -4.5626   10.5249 O   0  0  0  0  0  0  0  0  0  0  0  0
   15.7422   -4.2562   11.0441 C   0  0  2  0  0  0  0  0  0  0  0  0
   13.9140   -9.0452    4.7059 O   0  0  0  0  0  0  0  0  0  0  0  0
   15.0361   -9.0406   13.0512 N   0  0  0  0  0  0  0  0  0  0  0  0
   16.2235   -8.4239   12.7399 C   0  0  0  0  0  0  0  0  0  0  0  0
   16.2034   -7.1508   12.2140 N   0  0  0  0  0  0  0  0  0  0  0  0
   15.0376   -6.4997   12.0029 C   0  0  0  0  0  0  0  0  0  0  0  0
   13.8312   -7.1042   12.3252 C   0  0  0  0  0  0  0  0  0  0  0  0
   13.8346   -8.3956   12.8483 C   0  0  0  0  0  0  0  0  0  0  0  0
   12.6958   -9.0127   13.1644 N   0  0  0  0  0  0  0  0  0  0  0  0
   12.8340   -6.2336   12.0223 N   0  0  0  0  0  0  0  0  0  0  0  0
   13.3937   -5.1015   11.5369 C   0  0  0  0  0  0  0  0  0  0  0  0
   14.7590   -5.2472   11.5250 N   0  0  0  0  0  0  0  0  0  0  0  0
  2  1  1  1  0  0  0
  2  3  1  0  0  0  0
  2  5  1  0  0  0  0
  3  4  1  0  0  0  0
  3 17  1  0  0  0  0
  5  6  1  0  0  0  0
  7  6  1  6  0  0  0
  7  8  1  0  0  0  0
  7  9  1  0  0  0  0
 10  9  1  6  0  0  0
 10 11  1  0  0  0  0
 10 12  1  0  0  0  0
 11 16  1  0  0  0  0
 12 13  1  1  0  0  0
 12 14  1  0  0  0  0
 14 15  1  1  0  0  0
 14 16  1  0  0  0  0
 16 27  1  6  0  0  0
 18 19  2  0  0  0  0
 18 23  1  0  0  0  0
 19 20  1  0  0  0  0
 20 21  2  0  0  0  0
 21 22  1  0  0  0  0
 21 27  1  0  0  0  0
 22 23  2  0  0  0  0
 22 25  1  0  0  0  0
 23 24  1  0  0  0  0
 25 26  2  0  0  0  0
 26 27  1  0  0  0  0
M  END
>  <CHROM.1>
106.96749783,-81.88143998,68.25372815,-96.40430216,-84.27110945,-73.14672544
157.78841884,14.70750492,-5.86276462,8.99367735,1.89808277,-1.07097925,-1.20304521

>  <Name>
ligand

>  <RI>
0

>  <Rbt.Current_Directory>
/home/itssahil/PROJECTS/Mol_Feturizer/New_Systems/rnas/3GX5

>  <Rbt.Executable>
rbdock ($Id: //depot/dev/client3/rdock/2013.1/src/exe/rbdock.cxx#4 $)

>  <Rbt.Library>
libRbt.so (2013.1, Build901 2013/11/27)

>  <Rbt.Parameter_File>
/export/apps/rDock/src/rDock_2013.1_src/data/scripts/dock_solv.prm

>  <Rbt.Receptor>
prm/pocket_docking_3.prm

>  <SCORE>
-9.14198

>  <SCORE.INTER>
-12.7466

>  <SCORE.INTER.CONST>
1

>  <SCORE.INTER.POLAR>
0

>  <SCORE.INTER.ROT>
7

>  <SCORE.INTER.SOLV>
12.2819

>  <SCORE.INTER.VDW>
-20.8584

>  <SCORE.INTER.norm>
-0.472096

>  <SCORE.INTRA>
3.60292

>  <SCORE.INTRA.DIHEDRAL>
4.194

>  <SCORE.INTRA.DIHEDRAL.0>
4.28829

>  <SCORE.INTRA.POLAR>
0

>  <SCORE.INTRA.POLAR.0>
0

>  <SCORE.INTRA.REPUL>
0

>  <SCORE.INTRA.REPUL.0>
0

>  <SCORE.INTRA.SOLV>
2.08771

>  <SCORE.INTRA.SOLV.lig_0>
-48.6018

>  <SCORE.INTRA.VDW>
0.462062

>  <SCORE.INTRA.VDW.0>
-2.1506

>  <SCORE.INTRA.norm>
0.133441

>  <SCORE.RESTR>
0.0016907

>  <SCORE.RESTR.CAVITY>
0.0016907

>  <SCORE.RESTR.norm>
6.26185e-05

>  <SCORE.SYSTEM>
0

>  <SCORE.SYSTEM.CONST>
0

>  <SCORE.SYSTEM.DIHEDRAL>
0

>  <SCORE.SYSTEM.SOLV>
0

>  <SCORE.SYSTEM.norm>
0

>  <SCORE.heavy>
27

>  <SCORE.norm>
-0.338592

>  <RMSD>
6.659

$$$$
ligand
 OpenBabel11021811483D
libRbt.so/2013.1/901 2013/11/27
 27 29  0  0  0  0  0  0  0  0999 V2000
   15.1978   -7.7407    5.0161 N   0  0  0  0  0  0  0  0  0  0  0  0
   14.1370   -7.8184    6.0224 C   0  0  2  0  0  0  0  0  0  0  0  0
   13.7158   -9.2307    6.4357 C   0  0  0  0  0  0  0  0  0  0  0  0
   13.1204   -9.3833    7.5015 O   0  0  0  0  0  0  0  0  0  0  0  0
   12.9267   -7.0024    5.6003 C   0  0  0  0  0  0  0  0  0  0  0  0
   13.2547   -5.5219    5.5109 C   0  0  0  0  0  0  0  0  0  0  0  0
   13.2791   -4.7752    7.1501 S   0  0  2  0  0  0  0  0  0  0  0  0
   13.8267   -3.1080    6.7264 C   0  0  0  0  0  0  0  0  0  0  0  0
   14.8289   -5.4466    7.7951 C   0  0  0  0  0  0  0  0  0  0  0  0
   15.3498   -4.6003    8.9421 C   0  0  1  0  0  0  0  0  0  0  0  0
   14.4091   -4.5518    9.9904 O   0  0  0  0  0  0  0  0  0  0  0  0
   16.6083   -5.1694    9.5670 C   0  0  1  0  0  0  0  0  0  0  0  0
   17.7197   -4.5801    8.9406 O   0  0  0  0  0  0  0  0  0  0  0  0
   16.5093   -4.7407   11.0170 C   0  0  1  0  0  0  0  0  0  0  0  0
   17.3304   -3.6057   11.1771 O   0  0  0  0  0  0  0  0  0  0  0  0
   15.0396   -4.3828   11.2478 C   0  0  2  0  0  0  0  0  0  0  0  0
   13.9513  -10.2289    5.7495 O   0  0  0  0  0  0  0  0  0  0  0  0
   11.2412   -7.9338   11.8646 N   0  0  0  0  0  0  0  0  0  0  0  0
   11.5249   -7.1885   10.7460 C   0  0  0  0  0  0  0  0  0  0  0  0
   12.5742   -6.2965   10.7794 N   0  0  0  0  0  0  0  0  0  0  0  0
   13.3285   -6.1456   11.8911 C   0  0  0  0  0  0  0  0  0  0  0  0
   13.0629   -6.9012   13.0238 C   0  0  0  0  0  0  0  0  0  0  0  0
   11.9985   -7.8002   13.0090 C   0  0  0  0  0  0  0  0  0  0  0  0
   11.7075   -8.5394   14.0797 N   0  0  0  0  0  0  0  0  0  0  0  0
   13.9679   -6.5579   13.9763 N   0  0  0  0  0  0  0  0  0  0  0  0
   14.7954   -5.6224   13.4561 C   0  0  0  0  0  0  0  0  0  0  0  0
   14.4173   -5.3608   12.1622 N   0  0  0  0  0  0  0  0  0  0  0  0
  2  1  1  6  0  0  0
  2  3  1  0  0  0  0
  2  5  1  0  0  0  0
  3  4  1  0  0  0  0
  3 17  1  0  0  0  0
  5  6  1  0  0  0  0
  7  6  1  6  0  0  0
  7  8  1  0  0  0  0
  7  9  1  0  0  0  0
 10  9  1  6  0  0  0
 10 11  1  0  0  0  0
 10 12  1  0  0  0  0
 11 16  1  0  0  0  0
 12 13  1  6  0  0  0
 12 14  1  0  0  0  0
 14 15  1  6  0  0  0
 14 16  1  0  0  0  0
 16 27  1  1  0  0  0
 18 19  2  0  0  0  0
 18 23  1  0  0  0  0
 19 20  1  0  0  0  0
 20 21  2  0  0  0  0
 21 22  1  0  0  0  0
 21 27  1  0  0  0  0
 22 23  2  0  0  0  0
 22 25  1  0  0  0  0
 23 24  1  0  0  0  0
 25 26  2  0  0  0  0
 26 27  1  0  0  0  0
M  END
>  <CHROM.1>
160.33956939,-64.04298181,-78.66886389,175.24885245,159.16796783,59.38468386
-7.83855682,14.07405962,-6.21625482,9.40833644,1.49678570,-0.88415272,-1.73475016

>  <Name>
ligand

>  <RI>
0

>  <Rbt.Current_Directory>
/home/itssahil/PROJECTS/Mol_Feturizer/New_Systems/rnas/3GX5

>  <Rbt.Executable>
rbdock ($Id: //depot/dev/client3/rdock/2013.1/src/exe/rbdock.cxx#4 $)

>  <Rbt.Library>
libRbt.so (2013.1, Build901 2013/11/27)

>  <Rbt.Parameter_File>
/export/apps/rDock/src/rDock_2013.1_src/data/scripts/dock_solv.prm

>  <Rbt.Receptor>
prm/pocket_docking_4.prm

>  <SCORE>
-13.8374

>  <SCORE.INTER>
-14.8656

>  <SCORE.INTER.CONST>
1

>  <SCORE.INTER.POLAR>
0

>  <SCORE.INTER.ROT>
7

>  <SCORE.INTER.SOLV>
10.1444

>  <SCORE.INTER.VDW>
-21.5585

>  <SCORE.INTER.norm>
-0.550577

>  <SCORE.INTRA>
1.0282

>  <SCORE.INTRA.DIHEDRAL>
0.903238

>  <SCORE.INTRA.DIHEDRAL.0>
4.28829

>  <SCORE.INTRA.POLAR>
0

>  <SCORE.INTRA.POLAR.0>
0

>  <SCORE.INTRA.REPUL>
0

>  <SCORE.INTRA.REPUL.0>
0

>  <SCORE.INTRA.SOLV>
0.641315

>  <SCORE.INTRA.SOLV.lig_0>
-48.6018

>  <SCORE.INTRA.VDW>
0.255924

>  <SCORE.INTRA.VDW.0>
-2.1506

>  <SCORE.INTRA.norm>
0.0380815

>  <SCORE.RESTR>
0

>  <SCORE.RESTR.CAVITY>
0

>  <SCORE.RESTR.norm>
0

>  <SCORE.SYSTEM>
0

>  <SCORE.SYSTEM.CONST>
0

>  <SCORE.SYSTEM.DIHEDRAL>
0

>  <SCORE.SYSTEM.SOLV>
0

>  <SCORE.SYSTEM.norm>
0

>  <SCORE.heavy>
27

>  <SCORE.norm>
-0.512496

>  <RMSD>
6.669

$$$$
ligand
 OpenBabel11021811483D
libRbt.so/2013.1/901 2013/11/27
 27 29  0  0  0  0  0  0  0  0999 V2000
   13.3146   -4.7447    8.4545 N   0  0  0  0  0  0  0  0  0  0  0  0
   14.4816   -4.1972    7.7600 C   0  0  2  0  0  0  0  0  0  0  0  0
   14.2459   -2.8958    6.9896 C   0  0  0  0  0  0  0  0  0  0  0  0
   13.3282   -2.8495    6.1714 O   0  0  0  0  0  0  0  0  0  0  0  0
   15.1181   -5.2427    6.8596 C   0  0  0  0  0  0  0  0  0  0  0  0
   14.1291   -5.7766    5.8378 C   0  0  0  0  0  0  0  0  0  0  0  0
   14.5434   -7.4673    5.3737 S   0  0  2  0  0  0  0  0  0  0  0  0
   13.2259   -7.7973    4.1845 C   0  0  0  0  0  0  0  0  0  0  0  0
   13.8946   -8.3690    6.8001 C   0  0  0  0  0  0  0  0  0  0  0  0
   14.8433   -8.2700    7.9805 C   0  0  1  0  0  0  0  0  0  0  0  0
   14.1242   -8.1623    9.1877 O   0  0  0  0  0  0  0  0  0  0  0  0
   15.7072   -9.5050    8.1443 C   0  0  1  0  0  0  0  0  0  0  0  0
   16.9160   -9.2944    7.4592 O   0  0  0  0  0  0  0  0  0  0  0  0
   15.9350   -9.5825    9.6404 C   0  0  1  0  0  0  0  0  0  0  0  0
   17.2139   -9.0483    9.8993 O   0  0  0  0  0  0  0  0  0  0  0  0
   14.8466   -8.7137   10.2745 C   0  0  2  0  0  0  0  0  0  0  0  0
   14.9399   -1.8877    7.1471 O   0  0  0  0  0  0  0  0  0  0  0  0
   11.1716   -8.8497   14.0020 N   0  0  0  0  0  0  0  0  0  0  0  0
   11.8644   -7.7569   13.5407 C   0  0  0  0  0  0  0  0  0  0  0  0
   12.8024   -7.9249   12.5459 N   0  0  0  0  0  0  0  0  0  0  0  0
   13.0490   -9.1439   12.0160 C   0  0  0  0  0  0  0  0  0  0  0  0
   12.3475  -10.2546   12.4618 C   0  0  0  0  0  0  0  0  0  0  0  0
   11.4029  -10.1025   13.4747 C   0  0  0  0  0  0  0  0  0  0  0  0
   10.7131  -11.1467   13.9345 N   0  0  0  0  0  0  0  0  0  0  0  0
   12.7836  -11.3328   11.7608 N   0  0  0  0  0  0  0  0  0  0  0  0
   13.7239  -10.9144   10.8825 C   0  0  0  0  0  0  0  0  0  0  0  0
   13.8952   -9.5592   11.0228 N   0  0  0  0  0  0  0  0  0  0  0  0
  2  1  1  6  0  0  0
  2  3  1  0  0  0  0
  2  5  1  0  0  0  0
  3  4  1  0  0  0  0
  3 17  1  0  0  0  0
  5  6  1  0  0  0  0
  7  6  1  1  0  0  0
  7  8  1  0  0  0  0
  7  9  1  0  0  0  0
 10  9  1  6  0  0  0
 10 11  1  0  0  0  0
 10 12  1  0  0  0  0
 11 16  1  0  0  0  0
 12 13  1  6  0  0  0
 12 14  1  0  0  0  0
 14 15  1  6  0  0  0
 14 16  1  0  0  0  0
 16 27  1  1  0  0  0
 18 19  2  0  0  0  0
 18 23  1  0  0  0  0
 19 20  1  0  0  0  0
 20 21  2  0  0  0  0
 21 22  1  0  0  0  0
 21 27  1  0  0  0  0
 22 23  2  0  0  0  0
 22 25  1  0  0  0  0
 23 24  1  0  0  0  0
 25 26  2  0  0  0  0
 26 27  1  0  0  0  0
M  END
>  <CHROM.1>
-53.11042033,57.79773664,-151.53459012,-179.86452032,-78.51665629,142.66247446
-86.70772477,13.95601756,-7.72655996,9.10521281,1.09949461,1.01393892,-0.51105457

>  <Name>
ligand

>  <RI>
0

>  <Rbt.Current_Directory>
/home/itssahil/PROJECTS/Mol_Feturizer/New_Systems/rnas/3GX5

>  <Rbt.Executable>
rbdock ($Id: //depot/dev/client3/rdock/2013.1/src/exe/rbdock.cxx#4 $)

>  <Rbt.Library>
libRbt.so (2013.1, Build901 2013/11/27)

>  <Rbt.Parameter_File>
/export/apps/rDock/src/rDock_2013.1_src/data/scripts/dock_solv.prm

>  <Rbt.Receptor>
prm/pocket_docking_5.prm

>  <SCORE>
-7.42674

>  <SCORE.INTER>
-10.6574

>  <SCORE.INTER.CONST>
1

>  <SCORE.INTER.POLAR>
0

>  <SCORE.INTER.ROT>
7

>  <SCORE.INTER.SOLV>
10.7843

>  <SCORE.INTER.VDW>
-18.9664

>  <SCORE.INTER.norm>
-0.39472

>  <SCORE.INTRA>
3.2307

>  <SCORE.INTRA.DIHEDRAL>
5.89089

>  <SCORE.INTRA.DIHEDRAL.0>
4.28829

>  <SCORE.INTRA.POLAR>
0

>  <SCORE.INTRA.POLAR.0>
0

>  <SCORE.INTRA.REPUL>
0

>  <SCORE.INTRA.REPUL.0>
0

>  <SCORE.INTRA.SOLV>
1.28651

>  <SCORE.INTRA.SOLV.lig_0>
-48.6018

>  <SCORE.INTRA.VDW>
-0.358002

>  <SCORE.INTRA.VDW.0>
-2.1506

>  <SCORE.INTRA.norm>
0.119655

>  <SCORE.RESTR>
0

>  <SCORE.RESTR.CAVITY>
0

>  <SCORE.RESTR.norm>
0

>  <SCORE.SYSTEM>
0

>  <SCORE.SYSTEM.CONST>
0

>  <SCORE.SYSTEM.DIHEDRAL>
0

>  <SCORE.SYSTEM.SOLV>
0

>  <SCORE.SYSTEM.norm>
0

>  <SCORE.heavy>
27

>  <SCORE.norm>
-0.275064

>  <RMSD>
6.677

$$$$
ligand
 OpenBabel11021811483D
libRbt.so/2013.1/901 2013/11/27
 27 29  0  0  0  0  0  0  0  0999 V2000
   13.2715   -7.7719    3.6568 N   0  0  0  0  0  0  0  0  0  0  0  0
   14.2646   -8.0662    4.6916 C   0  0  2  0  0  0  0  0  0  0  0  0
   14.4560   -9.5475    5.0263 C   0  0  0  0  0  0  0  0  0  0  0  0
   15.2803  -10.1980    4.3851 O   0  0  0  0  0  0  0  0  0  0  0  0
   13.9887   -7.2653    5.9530 C   0  0  0  0  0  0  0  0  0  0  0  0
   14.2372   -5.7822    5.7386 C   0  0  0  0  0  0  0  0  0  0  0  0
   13.8258   -4.8467    7.2221 S   0  0  2  0  0  0  0  0  0  0  0  0
   12.4776   -3.8284    6.5861 C   0  0  0  0  0  0  0  0  0  0  0  0
   15.1557   -3.6220    7.2190 C   0  0  0  0  0  0  0  0  0  0  0  0
   15.9475   -3.6793    8.5124 C   0  0  1  0  0  0  0  0  0  0  0  0
   15.0846   -3.6282    9.6254 O   0  0  0  0  0  0  0  0  0  0  0  0
   16.7200   -4.9741    8.6707 C   0  0  1  0  0  0  0  0  0  0  0  0
   18.0163   -4.7818    8.1633 O   0  0  0  0  0  0  0  0  0  0  0  0
   16.7482   -5.1891   10.1704 C   0  0  1  0  0  0  0  0  0  0  0  0
   18.0080   -4.7574   10.6336 O   0  0  0  0  0  0  0  0  0  0  0  0
   15.6319   -4.3109   10.7397 C   0  0  2  0  0  0  0  0  0  0  0  0
   13.8155  -10.1241    5.9095 O   0  0  0  0  0  0  0  0  0  0  0  0
   13.9580   -7.0972   14.8449 N   0  0  0  0  0  0  0  0  0  0  0  0
   15.1182   -6.3696   14.7365 C   0  0  0  0  0  0  0  0  0  0  0  0
   15.3855   -5.6991   13.5632 N   0  0  0  0  0  0  0  0  0  0  0  0
   14.5254   -5.7431   12.5212 C   0  0  0  0  0  0  0  0  0  0  0  0
   13.3432   -6.4622   12.6207 C   0  0  0  0  0  0  0  0  0  0  0  0
   13.0636   -7.1541   13.7973 C   0  0  0  0  0  0  0  0  0  0  0  0
   11.9412   -7.8617   13.9290 N   0  0  0  0  0  0  0  0  0  0  0  0
   12.6734   -6.3289   11.4469 N   0  0  0  0  0  0  0  0  0  0  0  0
   13.4031   -5.5331   10.6314 C   0  0  0  0  0  0  0  0  0  0  0  0
   14.5504   -5.1556   11.2846 N   0  0  0  0  0  0  0  0  0  0  0  0
  2  1  1  6  0  0  0
  2  3  1  0  0  0  0
  2  5  1  0  0  0  0
  3  4  1  0  0  0  0
  3 17  1  0  0  0  0
  5  6  1  0  0  0  0
  7  6  1  6  0  0  0
  7  8  1  0  0  0  0
  7  9  1  0  0  0  0
 10  9  1  6  0  0  0
 10 11  1  0  0  0  0
 10 12  1  0  0  0  0
 11 16  1  0  0  0  0
 12 13  1  1  0  0  0
 12 14  1  0  0  0  0
 14 15  1  1  0  0  0
 14 16  1  0  0  0  0
 16 27  1  6  0  0  0
 18 19  2  0  0  0  0
 18 23  1  0  0  0  0
 19 20  1  0  0  0  0
 20 21  2  0  0  0  0
 21 22  1  0  0  0  0
 21 27  1  0  0  0  0
 22 23  2  0  0  0  0
 22 25  1  0  0  0  0
 23 24  1  0  0  0  0
 25 26  2  0  0  0  0
 26 27  1  0  0  0  0
M  END
>  <CHROM.1>
88.79657931,-68.61871594,177.20881034,-116.91211399,-122.83227550,-50.77414215
-163.85106167,14.62306940,-6.07922269,9.13908396,1.58834428,-1.02103661,-1.74834786

>  <Name>
ligand

>  <RI>
0

>  <Rbt.Current_Directory>
/home/itssahil/PROJECTS/Mol_Feturizer/New_Systems/rnas/3GX5

>  <Rbt.Executable>
rbdock ($Id: //depot/dev/client3/rdock/2013.1/src/exe/rbdock.cxx#4 $)

>  <Rbt.Library>
libRbt.so (2013.1, Build901 2013/11/27)

>  <Rbt.Parameter_File>
/export/apps/rDock/src/rDock_2013.1_src/data/scripts/dock_solv.prm

>  <Rbt.Receptor>
prm/pocket_docking_8.prm

>  <SCORE>
-12.4609

>  <SCORE.INTER>
-15.3105

>  <SCORE.INTER.CONST>
1

>  <SCORE.INTER.POLAR>
0

>  <SCORE.INTER.ROT>
7

>  <SCORE.INTER.SOLV>
15.5485

>  <SCORE.INTER.VDW>
-23.6565

>  <SCORE.INTER.norm>
-0.567055

>  <SCORE.INTRA>
2.84961

>  <SCORE.INTRA.DIHEDRAL>
7.7653

>  <SCORE.INTRA.DIHEDRAL.0>
4.28829

>  <SCORE.INTRA.POLAR>
0

>  <SCORE.INTRA.POLAR.0>
0

>  <SCORE.INTRA.REPUL>
0

>  <SCORE.INTRA.REPUL.0>
0

>  <SCORE.INTRA.SOLV>
-0.508546

>  <SCORE.INTRA.SOLV.lig_0>
-48.6018

>  <SCORE.INTRA.VDW>
-0.77877

>  <SCORE.INTRA.VDW.0>
-2.1506

>  <SCORE.INTRA.norm>
0.105541

>  <SCORE.RESTR>
0

>  <SCORE.RESTR.CAVITY>
0

>  <SCORE.RESTR.norm>
0

>  <SCORE.SYSTEM>
0

>  <SCORE.SYSTEM.CONST>
0

>  <SCORE.SYSTEM.DIHEDRAL>
0

>  <SCORE.SYSTEM.SOLV>
0

>  <SCORE.SYSTEM.norm>
0

>  <SCORE.heavy>
27

>  <SCORE.norm>
-0.461514

>  <RMSD>
6.677

$$$$
ligand
 OpenBabel11021811483D
libRbt.so/2013.1/901 2013/11/27
 27 29  0  0  0  0  0  0  0  0999 V2000
   13.6444   -7.5765    3.6410 N   0  0  0  0  0  0  0  0  0  0  0  0
   14.5511   -7.8128    4.7662 C   0  0  2  0  0  0  0  0  0  0  0  0
   14.8163   -9.2809    5.1085 C   0  0  0  0  0  0  0  0  0  0  0  0
   13.9206   -9.9368    5.6388 O   0  0  0  0  0  0  0  0  0  0  0  0
   14.0963   -7.0508    5.9997 C   0  0  0  0  0  0  0  0  0  0  0  0
   14.5877   -5.6136    5.9811 C   0  0  0  0  0  0  0  0  0  0  0  0
   13.7851   -4.6496    7.2742 S   0  0  2  0  0  0  0  0  0  0  0  0
   12.5138   -3.8166    6.3001 C   0  0  0  0  0  0  0  0  0  0  0  0
   14.9653   -3.2918    7.4537 C   0  0  0  0  0  0  0  0  0  0  0  0
   15.8119   -3.4715    8.7002 C   0  0  1  0  0  0  0  0  0  0  0  0
   15.0001   -3.5005    9.8519 O   0  0  0  0  0  0  0  0  0  0  0  0
   16.5640   -4.7878    8.7141 C   0  0  1  0  0  0  0  0  0  0  0  0
   17.8404   -4.5747    8.1660 O   0  0  0  0  0  0  0  0  0  0  0  0
   16.6538   -5.1293   10.1877 C   0  0  1  0  0  0  0  0  0  0  0  0
   17.9413   -4.7594   10.6275 O   0  0  0  0  0  0  0  0  0  0  0  0
   15.5818   -4.2841   10.8788 C   0  0  2  0  0  0  0  0  0  0  0  0
   15.8934   -9.8387    4.8817 O   0  0  0  0  0  0  0  0  0  0  0  0
   13.9343   -7.1991   14.9046 N   0  0  0  0  0  0  0  0  0  0  0  0
   15.0876   -6.4579   14.8168 C   0  0  0  0  0  0  0  0  0  0  0  0
   15.3485   -5.7525   13.6626 N   0  0  0  0  0  0  0  0  0  0  0  0
   14.4889   -5.7757   12.6195 C   0  0  0  0  0  0  0  0  0  0  0  0
   13.3135   -6.5084   12.6987 C   0  0  0  0  0  0  0  0  0  0  0  0
   13.0405   -7.2354   13.8555 C   0  0  0  0  0  0  0  0  0  0  0  0
   11.9249   -7.9570   13.9672 N   0  0  0  0  0  0  0  0  0  0  0  0
   12.6426   -6.3489   11.5288 N   0  0  0  0  0  0  0  0  0  0  0  0
   13.3647   -5.5238   10.7360 C   0  0  0  0  0  0  0  0  0  0  0  0
   14.5084   -5.1538   11.3998 N   0  0  0  0  0  0  0  0  0  0  0  0
  2  1  1  6  0  0  0
  2  3  1  0  0  0  0
  2  5  1  0  0  0  0
  3  4  1  0  0  0  0
  3 17  1  0  0  0  0
  5  6  1  0  0  0  0
  7  6  1  6  0  0  0
  7  8  1  0  0  0  0
  7  9  1  0  0  0  0
 10  9  1  6  0  0  0
 10 11  1  0  0  0  0
 10 12  1  0  0  0  0
 11 16  1  0  0  0  0
 12 13  1  1  0  0  0
 12 14  1  0  0  0  0
 14 15  1  1  0  0  0
 14 16  1  0  0  0  0
 16 27  1  6  0  0  0
 18 19  2  0  0  0  0
 18 23  1  0  0  0  0
 19 20  1  0  0  0  0
 20 21  2  0  0  0  0
 21 22  1  0  0  0  0
 21 27  1  0  0  0  0
 22 23  2  0  0  0  0
 22 25  1  0  0  0  0
 23 24  1  0  0  0  0
 25 26  2  0  0  0  0
 26 27  1  0  0  0  0
M  END
>  <CHROM.1>
-72.11108467,-83.83539244,169.14590392,-99.63156703,-103.38429849,-60.08489310
-159.40896395,14.65601251,-5.97820747,9.21400264,1.49280501,-1.10048488,-1.77869155

>  <Name>
ligand

>  <RI>
0

>  <Rbt.Current_Directory>
/home/itssahil/PROJECTS/Mol_Feturizer/New_Systems/rnas/3GX5

>  <Rbt.Executable>
rbdock ($Id: //depot/dev/client3/rdock/2013.1/src/exe/rbdock.cxx#4 $)

>  <Rbt.Library>
libRbt.so (2013.1, Build901 2013/11/27)

>  <Rbt.Parameter_File>
/export/apps/rDock/src/rDock_2013.1_src/data/scripts/dock_solv.prm

>  <Rbt.Receptor>
prm/pocket_docking_7.prm

>  <SCORE>
-12.9156

>  <SCORE.INTER>
-14.8336

>  <SCORE.INTER.CONST>
1

>  <SCORE.INTER.POLAR>
0

>  <SCORE.INTER.ROT>
7

>  <SCORE.INTER.SOLV>
14.8972

>  <SCORE.INTER.VDW>
-23.1215

>  <SCORE.INTER.norm>
-0.549394

>  <SCORE.INTRA>
1.91803

>  <SCORE.INTRA.DIHEDRAL>
6.28037

>  <SCORE.INTRA.DIHEDRAL.0>
4.28829

>  <SCORE.INTRA.POLAR>
0

>  <SCORE.INTRA.POLAR.0>
0

>  <SCORE.INTRA.REPUL>
0

>  <SCORE.INTRA.REPUL.0>
0

>  <SCORE.INTRA.SOLV>
-0.511197

>  <SCORE.INTRA.SOLV.lig_0>
-48.6018

>  <SCORE.INTRA.VDW>
-0.966561

>  <SCORE.INTRA.VDW.0>
-2.1506

>  <SCORE.INTRA.norm>
0.071038

>  <SCORE.RESTR>
0

>  <SCORE.RESTR.CAVITY>
0

>  <SCORE.RESTR.norm>
0

>  <SCORE.SYSTEM>
0

>  <SCORE.SYSTEM.CONST>
0

>  <SCORE.SYSTEM.DIHEDRAL>
0

>  <SCORE.SYSTEM.SOLV>
0

>  <SCORE.SYSTEM.norm>
0

>  <SCORE.heavy>
27

>  <SCORE.norm>
-0.478356

>  <RMSD>
6.697

$$$$
ligand
 OpenBabel11021811483D
libRbt.so/2013.1/901 2013/11/27
 27 29  0  0  0  0  0  0  0  0999 V2000
   14.6554   -7.8047    7.8234 N   0  0  0  0  0  0  0  0  0  0  0  0
   15.3050   -7.7197    6.5140 C   0  0  2  0  0  0  0  0  0  0  0  0
   16.3779   -8.7751    6.2351 C   0  0  0  0  0  0  0  0  0  0  0  0
   17.0324   -9.2181    7.1780 O   0  0  0  0  0  0  0  0  0  0  0  0
   15.8528   -6.3238    6.2687 C   0  0  0  0  0  0  0  0  0  0  0  0
   14.7456   -5.3411    5.9283 C   0  0  0  0  0  0  0  0  0  0  0  0
   13.8552   -4.8457    7.4139 S   0  0  2  0  0  0  0  0  0  0  0  0
   12.5051   -3.9055    6.6707 C   0  0  0  0  0  0  0  0  0  0  0  0
   14.8958   -3.4808    7.9822 C   0  0  0  0  0  0  0  0  0  0  0  0
   15.0069   -3.4786    9.4957 C   0  0  1  0  0  0  0  0  0  0  0  0
   13.8024   -3.9156   10.0827 O   0  0  0  0  0  0  0  0  0  0  0  0
   16.0655   -4.4353   10.0078 C   0  0  1  0  0  0  0  0  0  0  0  0
   17.2698   -3.7261   10.1556 O   0  0  0  0  0  0  0  0  0  0  0  0
   15.5243   -4.8763   11.3527 C   0  0  1  0  0  0  0  0  0  0  0  0
   16.1885   -4.1217   12.3414 O   0  0  0  0  0  0  0  0  0  0  0  0
   14.0305   -4.5451   11.3312 C   0  0  2  0  0  0  0  0  0  0  0  0
   16.6224   -9.2005    5.1028 O   0  0  0  0  0  0  0  0  0  0  0  0
   12.3745   -8.6494   14.1295 N   0  0  0  0  0  0  0  0  0  0  0  0
   13.1512   -7.5985   14.5531 C   0  0  0  0  0  0  0  0  0  0  0  0
   13.4867   -6.6057   13.6589 N   0  0  0  0  0  0  0  0  0  0  0  0
   13.0624   -6.6475   12.3760 C   0  0  0  0  0  0  0  0  0  0  0  0
   12.2658   -7.6951   11.9372 C   0  0  0  0  0  0  0  0  0  0  0  0
   11.9266   -8.7122   12.8271 C   0  0  0  0  0  0  0  0  0  0  0  0
   11.1685   -9.7390   12.4415 N   0  0  0  0  0  0  0  0  0  0  0  0
   11.9814   -7.4827   10.6264 N   0  0  0  0  0  0  0  0  0  0  0  0
   12.5676   -6.3232   10.2488 C   0  0  0  0  0  0  0  0  0  0  0  0
   13.2356   -5.7893   11.3233 N   0  0  0  0  0  0  0  0  0  0  0  0
  2  1  1  1  0  0  0
  2  3  1  0  0  0  0
  2  5  1  0  0  0  0
  3  4  1  0  0  0  0
  3 17  1  0  0  0  0
  5  6  1  0  0  0  0
  7  6  1  6  0  0  0
  7  8  1  0  0  0  0
  7  9  1  0  0  0  0
 10  9  1  6  0  0  0
 10 11  1  0  0  0  0
 10 12  1  0  0  0  0
 11 16  1  0  0  0  0
 12 13  1  1  0  0  0
 12 14  1  0  0  0  0
 14 15  1  1  0  0  0
 14 16  1  0  0  0  0
 16 27  1  6  0  0  0
 18 19  2  0  0  0  0
 18 23  1  0  0  0  0
 19 20  1  0  0  0  0
 20 21  2  0  0  0  0
 21 22  1  0  0  0  0
 21 27  1  0  0  0  0
 22 23  2  0  0  0  0
 22 25  1  0  0  0  0
 23 24  1  0  0  0  0
 25 26  2  0  0  0  0
 26 27  1  0  0  0  0
M  END
>  <CHROM.1>
-30.65703004,-75.53444114,77.47606792,-172.29961604,-141.77599475,-34.47418956
-173.63861743,14.30360056,-6.22589334,9.66306837,0.37026929,-1.13563386,-2.60531376

>  <Name>
ligand

>  <RI>
0

>  <Rbt.Current_Directory>
/home/itssahil/PROJECTS/Mol_Feturizer/New_Systems/rnas/3GX5

>  <Rbt.Executable>
rbdock ($Id: //depot/dev/client3/rdock/2013.1/src/exe/rbdock.cxx#4 $)

>  <Rbt.Library>
libRbt.so (2013.1, Build901 2013/11/27)

>  <Rbt.Parameter_File>
/export/apps/rDock/src/rDock_2013.1_src/data/scripts/dock_solv.prm

>  <Rbt.Receptor>
prm/pocket_docking_4.prm

>  <SCORE>
-7.72772

>  <SCORE.INTER>
-10.901

>  <SCORE.INTER.CONST>
1

>  <SCORE.INTER.POLAR>
0

>  <SCORE.INTER.ROT>
7

>  <SCORE.INTER.SOLV>
11.1016

>  <SCORE.INTER.VDW>
-19.2345

>  <SCORE.INTER.norm>
-0.403739

>  <SCORE.INTRA>
3.17272

>  <SCORE.INTRA.DIHEDRAL>
7.72437

>  <SCORE.INTRA.DIHEDRAL.0>
4.28829

>  <SCORE.INTRA.POLAR>
0

>  <SCORE.INTRA.POLAR.0>
0

>  <SCORE.INTRA.REPUL>
0

>  <SCORE.INTRA.REPUL.0>
0

>  <SCORE.INTRA.SOLV>
1.55214

>  <SCORE.INTRA.SOLV.lig_0>
-48.6018

>  <SCORE.INTRA.VDW>
-1.46553

>  <SCORE.INTRA.VDW.0>
-2.1506

>  <SCORE.INTRA.norm>
0.117508

>  <SCORE.RESTR>
0.000521978

>  <SCORE.RESTR.CAVITY>
0.000521978

>  <SCORE.RESTR.norm>
1.93325e-05

>  <SCORE.SYSTEM>
0

>  <SCORE.SYSTEM.CONST>
0

>  <SCORE.SYSTEM.DIHEDRAL>
0

>  <SCORE.SYSTEM.SOLV>
0

>  <SCORE.SYSTEM.norm>
0

>  <SCORE.heavy>
27

>  <SCORE.norm>
-0.286212

>  <RMSD>
6.729

$$$$
ligand
 OpenBabel11021811483D
libRbt.so/2013.1/901 2013/11/27
 27 29  0  0  0  0  0  0  0  0999 V2000
   16.5115   -9.4325    3.9435 N   0  0  0  0  0  0  0  0  0  0  0  0
   15.0480   -9.4212    3.9843 C   0  0  2  0  0  0  0  0  0  0  0  0
   14.3531   -8.8604    2.7412 C   0  0  0  0  0  0  0  0  0  0  0  0
   14.5076   -9.4368    1.6653 O   0  0  0  0  0  0  0  0  0  0  0  0
   14.5447   -8.7243    5.2373 C   0  0  0  0  0  0  0  0  0  0  0  0
   15.0378   -7.2897    5.3148 C   0  0  0  0  0  0  0  0  0  0  0  0
   14.4021   -6.4769    6.7914 S   0  0  2  0  0  0  0  0  0  0  0  0
   12.7271   -6.0906    6.2396 C   0  0  0  0  0  0  0  0  0  0  0  0
   15.1595   -4.8441    6.6210 C   0  0  0  0  0  0  0  0  0  0  0  0
   15.6780   -4.3457    7.9573 C   0  0  1  0  0  0  0  0  0  0  0  0
   14.6415   -4.3141    8.9116 O   0  0  0  0  0  0  0  0  0  0  0  0
   16.7352   -5.2547    8.5526 C   0  0  1  0  0  0  0  0  0  0  0  0
   17.9987   -4.7845    8.1557 O   0  0  0  0  0  0  0  0  0  0  0  0
   16.5392   -5.0955   10.0467 C   0  0  1  0  0  0  0  0  0  0  0  0
   17.5193   -4.1916   10.5055 O   0  0  0  0  0  0  0  0  0  0  0  0
   15.1368   -4.5098   10.2244 C   0  0  2  0  0  0  0  0  0  0  0  0
   13.6464   -7.8491    2.7663 O   0  0  0  0  0  0  0  0  0  0  0  0
   13.2827   -9.4040   10.0596 N   0  0  0  0  0  0  0  0  0  0  0  0
   14.1988   -8.8209    9.2183 C   0  0  0  0  0  0  0  0  0  0  0  0
   14.5627   -7.5084    9.4248 N   0  0  0  0  0  0  0  0  0  0  0  0
   14.0365   -6.7884   10.4407 C   0  0  0  0  0  0  0  0  0  0  0  0
   13.1207   -7.3678   11.3070 C   0  0  0  0  0  0  0  0  0  0  0  0
   12.7349   -8.6913   11.1049 C   0  0  0  0  0  0  0  0  0  0  0  0
   11.8525   -9.2813   11.9118 N   0  0  0  0  0  0  0  0  0  0  0  0
   12.7675   -6.4335   12.2270 N   0  0  0  0  0  0  0  0  0  0  0  0
   13.4534   -5.2978   11.9616 C   0  0  0  0  0  0  0  0  0  0  0  0
   14.2497   -5.5031   10.8620 N   0  0  0  0  0  0  0  0  0  0  0  0
  2  1  1  6  0  0  0
  2  3  1  0  0  0  0
  2  5  1  0  0  0  0
  3  4  1  0  0  0  0
  3 17  1  0  0  0  0
  5  6  1  0  0  0  0
  7  6  1  6  0  0  0
  7  8  1  0  0  0  0
  7  9  1  0  0  0  0
 10  9  1  6  0  0  0
 10 11  1  0  0  0  0
 10 12  1  0  0  0  0
 11 16  1  0  0  0  0
 12 13  1  1  0  0  0
 12 14  1  0  0  0  0
 14 15  1  6  0  0  0
 14 16  1  0  0  0  0
 16 27  1  1  0  0  0
 18 19  2  0  0  0  0
 18 23  1  0  0  0  0
 19 20  1  0  0  0  0
 20 21  2  0  0  0  0
 21 22  1  0  0  0  0
 21 27  1  0  0  0  0
 22 23  2  0  0  0  0
 22 25  1  0  0  0  0
 23 24  1  0  0  0  0
 25 26  2  0  0  0  0
 26 27  1  0  0  0  0
M  END
>  <CHROM.1>
62.67307258,58.99988022,178.91350784,-78.99035121,-138.16371007,-56.90245844
60.76419525,14.63553247,-6.84039732,7.92958938,-1.49803425,0.86850710,1.20292705

>  <Name>
ligand

>  <RI>
0

>  <Rbt.Current_Directory>
/home/itssahil/PROJECTS/Mol_Feturizer/New_Systems/rnas/3GX5

>  <Rbt.Executable>
rbdock ($Id: //depot/dev/client3/rdock/2013.1/src/exe/rbdock.cxx#4 $)

>  <Rbt.Library>
libRbt.so (2013.1, Build901 2013/11/27)

>  <Rbt.Parameter_File>
/export/apps/rDock/src/rDock_2013.1_src/data/scripts/dock_solv.prm

>  <Rbt.Receptor>
prm/pocket_docking_7.prm

>  <SCORE>
-8.2699

>  <SCORE.INTER>
-9.00212

>  <SCORE.INTER.CONST>
1

>  <SCORE.INTER.POLAR>
0

>  <SCORE.INTER.ROT>
7

>  <SCORE.INTER.SOLV>
10.1251

>  <SCORE.INTER.VDW>
-17.6431

>  <SCORE.INTER.norm>
-0.333412

>  <SCORE.INTRA>
0.732223

>  <SCORE.INTRA.DIHEDRAL>
3.52474

>  <SCORE.INTRA.DIHEDRAL.0>
4.28829

>  <SCORE.INTRA.POLAR>
0

>  <SCORE.INTRA.POLAR.0>
0

>  <SCORE.INTRA.REPUL>
0

>  <SCORE.INTRA.REPUL.0>
0

>  <SCORE.INTRA.SOLV>
-0.302556

>  <SCORE.INTRA.SOLV.lig_0>
-48.6018

>  <SCORE.INTRA.VDW>
-0.878868

>  <SCORE.INTRA.VDW.0>
-2.1506

>  <SCORE.INTRA.norm>
0.0271194

>  <SCORE.RESTR>
0

>  <SCORE.RESTR.CAVITY>
0

>  <SCORE.RESTR.norm>
0

>  <SCORE.SYSTEM>
0

>  <SCORE.SYSTEM.CONST>
0

>  <SCORE.SYSTEM.DIHEDRAL>
0

>  <SCORE.SYSTEM.SOLV>
0

>  <SCORE.SYSTEM.norm>
0

>  <SCORE.heavy>
27

>  <SCORE.norm>
-0.306293

>  <RMSD>
6.771

$$$$
ligand
 OpenBabel11021811483D
libRbt.so/2013.1/901 2013/11/27
 27 29  0  0  0  0  0  0  0  0999 V2000
   12.2784   -6.6348    6.0771 N   0  0  0  0  0  0  0  0  0  0  0  0
   13.4269   -6.5230    5.1758 C   0  0  2  0  0  0  0  0  0  0  0  0
   13.5502   -7.6220    4.1176 C   0  0  0  0  0  0  0  0  0  0  0  0
   13.8111   -8.7680    4.4812 O   0  0  0  0  0  0  0  0  0  0  0  0
   14.7217   -6.3891    5.9596 C   0  0  0  0  0  0  0  0  0  0  0  0
   14.9270   -4.9700    6.4608 C   0  0  0  0  0  0  0  0  0  0  0  0
   13.6474   -4.5224    7.6472 S   0  0  2  0  0  0  0  0  0  0  0  0
   12.4862   -3.6791    6.5519 C   0  0  0  0  0  0  0  0  0  0  0  0
   14.4152   -3.0875    8.4347 C   0  0  0  0  0  0  0  0  0  0  0  0
   15.2455   -3.5076    9.6335 C   0  0  1  0  0  0  0  0  0  0  0  0
   14.4148   -3.9541   10.6808 O   0  0  0  0  0  0  0  0  0  0  0  0
   16.1629   -4.6761    9.3316 C   0  0  1  0  0  0  0  0  0  0  0  0
   17.4141   -4.1683    8.9425 O   0  0  0  0  0  0  0  0  0  0  0  0
   16.2584   -5.4037   10.6574 C   0  0  1  0  0  0  0  0  0  0  0  0
   17.4745   -5.0218   11.2601 O   0  0  0  0  0  0  0  0  0  0  0  0
   15.0674   -4.9192   11.4869 C   0  0  2  0  0  0  0  0  0  0  0  0
   13.4049   -7.4106    2.9105 O   0  0  0  0  0  0  0  0  0  0  0  0
   14.4330  -10.0998   11.9074 N   0  0  0  0  0  0  0  0  0  0  0  0
   15.6064   -9.4049   11.7425 C   0  0  0  0  0  0  0  0  0  0  0  0
   15.5681   -8.0310   11.6499 N   0  0  0  0  0  0  0  0  0  0  0  0
   14.3980   -7.3577   11.7215 C   0  0  0  0  0  0  0  0  0  0  0  0
   13.2063   -8.0447   11.9018 C   0  0  0  0  0  0  0  0  0  0  0  0
   13.2276   -9.4352   11.9868 C   0  0  0  0  0  0  0  0  0  0  0  0
   12.1029  -10.1315   12.1535 N   0  0  0  0  0  0  0  0  0  0  0  0
   12.2012   -7.1325   11.9467 N   0  0  0  0  0  0  0  0  0  0  0  0
   12.7427   -5.8995   11.8156 C   0  0  0  0  0  0  0  0  0  0  0  0
   14.1040   -6.0210   11.6821 N   0  0  0  0  0  0  0  0  0  0  0  0
  2  1  1  1  0  0  0
  2  3  1  0  0  0  0
  2  5  1  0  0  0  0
  3  4  1  0  0  0  0
  3 17  1  0  0  0  0
  5  6  1  0  0  0  0
  7  6  1  6  0  0  0
  7  8  1  0  0  0  0
  7  9  1  0  0  0  0
 10  9  1  6  0  0  0
 10 11  1  0  0  0  0
 10 12  1  0  0  0  0
 11 16  1  0  0  0  0
 12 13  1  1  0  0  0
 12 14  1  0  0  0  0
 14 15  1  1  0  0  0
 14 16  1  0  0  0  0
 16 27  1  6  0  0  0
 18 19  2  0  0  0  0
 18 23  1  0  0  0  0
 19 20  1  0  0  0  0
 20 21  2  0  0  0  0
 21 22  1  0  0  0  0
 21 27  1  0  0  0  0
 22 23  2  0  0  0  0
 22 25  1  0  0  0  0
 23 24  1  0  0  0  0
 25 26  2  0  0  0  0
 26 27  1  0  0  0  0
M  END
>  <CHROM.1>
-68.01332695,-79.56580169,64.56249277,-95.48374940,-89.86298601,-69.66934682
142.44505107,14.30168362,-6.26240447,9.03639604,1.81042446,-1.13696447,-1.16236323

>  <Name>
ligand

>  <RI>
0

>  <Rbt.Current_Directory>
/home/itssahil/PROJECTS/Mol_Feturizer/New_Systems/rnas/3GX5

>  <Rbt.Executable>
rbdock ($Id: //depot/dev/client3/rdock/2013.1/src/exe/rbdock.cxx#4 $)

>  <Rbt.Library>
libRbt.so (2013.1, Build901 2013/11/27)

>  <Rbt.Parameter_File>
/export/apps/rDock/src/rDock_2013.1_src/data/scripts/dock_solv.prm

>  <Rbt.Receptor>
prm/pocket_docking_3.prm

>  <SCORE>
-8.3547

>  <SCORE.INTER>
-11.9063

>  <SCORE.INTER.CONST>
1

>  <SCORE.INTER.POLAR>
0

>  <SCORE.INTER.ROT>
7

>  <SCORE.INTER.SOLV>
13.8483

>  <SCORE.INTER.VDW>
-20.8203

>  <SCORE.INTER.norm>
-0.440974

>  <SCORE.INTRA>
3.55161

>  <SCORE.INTRA.DIHEDRAL>
3.88456

>  <SCORE.INTRA.DIHEDRAL.0>
4.28829

>  <SCORE.INTRA.POLAR>
0

>  <SCORE.INTRA.POLAR.0>
0

>  <SCORE.INTRA.REPUL>
0

>  <SCORE.INTRA.REPUL.0>
0

>  <SCORE.INTRA.SOLV>
2.16944

>  <SCORE.INTRA.SOLV.lig_0>
-48.6018

>  <SCORE.INTRA.VDW>
0.524606

>  <SCORE.INTRA.VDW.0>
-2.1506

>  <SCORE.INTRA.norm>
0.131541

>  <SCORE.RESTR>
0

>  <SCORE.RESTR.CAVITY>
0

>  <SCORE.RESTR.norm>
0

>  <SCORE.SYSTEM>
0

>  <SCORE.SYSTEM.CONST>
0

>  <SCORE.SYSTEM.DIHEDRAL>
0

>  <SCORE.SYSTEM.SOLV>
0

>  <SCORE.SYSTEM.norm>
0

>  <SCORE.heavy>
27

>  <SCORE.norm>
-0.309433

>  <RMSD>
6.772

$$$$
ligand
 OpenBabel11021811483D
libRbt.so/2013.1/901 2013/11/27
 27 29  0  0  0  0  0  0  0  0999 V2000
   12.6934   -8.0765    3.8305 N   0  0  0  0  0  0  0  0  0  0  0  0
   13.9299   -7.8604    4.5842 C   0  0  2  0  0  0  0  0  0  0  0  0
   14.3082   -8.9674    5.5713 C   0  0  0  0  0  0  0  0  0  0  0  0
   13.4099   -9.5827    6.1442 O   0  0  0  0  0  0  0  0  0  0  0  0
   13.9141   -6.5089    5.2783 C   0  0  0  0  0  0  0  0  0  0  0  0
   12.7375   -6.3839    6.2309 C   0  0  0  0  0  0  0  0  0  0  0  0
   13.0637   -5.1324    7.4849 S   0  0  2  0  0  0  0  0  0  0  0  0
   13.2733   -3.6812    6.4317 C   0  0  0  0  0  0  0  0  0  0  0  0
   14.7967   -5.4854    7.8599 C   0  0  0  0  0  0  0  0  0  0  0  0
   15.2860   -4.6300    9.0140 C   0  0  1  0  0  0  0  0  0  0  0  0
   14.3298   -4.5984   10.0488 O   0  0  0  0  0  0  0  0  0  0  0  0
   16.5455   -5.1767    9.6569 C   0  0  1  0  0  0  0  0  0  0  0  0
   17.6550   -4.5676    9.0462 O   0  0  0  0  0  0  0  0  0  0  0  0
   16.4182   -4.7500   11.1053 C   0  0  1  0  0  0  0  0  0  0  0  0
   17.2166   -3.6006   11.2769 O   0  0  0  0  0  0  0  0  0  0  0  0
   14.9392   -4.4184   11.3150 C   0  0  2  0  0  0  0  0  0  0  0  0
   15.4774   -9.2696    5.8249 O   0  0  0  0  0  0  0  0  0  0  0  0
   11.2400   -8.0847   11.8555 N   0  0  0  0  0  0  0  0  0  0  0  0
   11.5331   -7.3412   10.7382 C   0  0  0  0  0  0  0  0  0  0  0  0
   12.5517   -6.4153   10.7935 N   0  0  0  0  0  0  0  0  0  0  0  0
   13.2671   -6.2296   11.9255 C   0  0  0  0  0  0  0  0  0  0  0  0
   12.9920   -6.9827   13.0576 C   0  0  0  0  0  0  0  0  0  0  0  0
   11.9580   -7.9159   13.0204 C   0  0  0  0  0  0  0  0  0  0  0  0
   11.6588   -8.6540   14.0897 N   0  0  0  0  0  0  0  0  0  0  0  0
   13.8565   -6.6013   14.0329 N   0  0  0  0  0  0  0  0  0  0  0  0
   14.6688   -5.6444   13.5278 C   0  0  0  0  0  0  0  0  0  0  0  0
   14.3214   -5.4074   12.2206 N   0  0  0  0  0  0  0  0  0  0  0  0
  2  1  1  1  0  0  0
  2  3  1  0  0  0  0
  2  5  1  0  0  0  0
  3  4  1  0  0  0  0
  3 17  1  0  0  0  0
  5  6  1  0  0  0  0
  7  6  1  6  0  0  0
  7  8  1  0  0  0  0
  7  9  1  0  0  0  0
 10  9  1  6  0  0  0
 10 11  1  0  0  0  0
 10 12  1  0  0  0  0
 11 16  1  0  0  0  0
 12 13  1  6  0  0  0
 12 14  1  0  0  0  0
 14 15  1  6  0  0  0
 14 16  1  0  0  0  0
 16 27  1  1  0  0  0
 18 19  2  0  0  0  0
 18 23  1  0  0  0  0
 19 20  1  0  0  0  0
 20 21  2  0  0  0  0
 21 22  1  0  0  0  0
 21 27  1  0  0  0  0
 22 23  2  0  0  0  0
 22 25  1  0  0  0  0
 23 24  1  0  0  0  0
 25 26  2  0  0  0  0
 26 27  1  0  0  0  0
M  END
>  <CHROM.1>
-33.34269726,58.73632144,157.56854448,60.69574584,-174.49244617,44.07097632
-6.49377458,14.00649714,-6.29146527,9.30194617,1.56138539,-0.79923376,-1.73411880

>  <Name>
ligand

>  <RI>
0

>  <Rbt.Current_Directory>
/home/itssahil/PROJECTS/Mol_Feturizer/New_Systems/rnas/3GX5

>  <Rbt.Executable>
rbdock ($Id: //depot/dev/client3/rdock/2013.1/src/exe/rbdock.cxx#4 $)

>  <Rbt.Library>
libRbt.so (2013.1, Build901 2013/11/27)

>  <Rbt.Parameter_File>
/export/apps/rDock/src/rDock_2013.1_src/data/scripts/dock_solv.prm

>  <Rbt.Receptor>
prm/pocket_docking_4.prm

>  <SCORE>
-10.2783

>  <SCORE.INTER>
-13.0977

>  <SCORE.INTER.CONST>
1

>  <SCORE.INTER.POLAR>
0

>  <SCORE.INTER.ROT>
7

>  <SCORE.INTER.SOLV>
15.4029

>  <SCORE.INTER.VDW>
-22.1328

>  <SCORE.INTER.norm>
-0.485101

>  <SCORE.INTRA>
2.81941

>  <SCORE.INTRA.DIHEDRAL>
2.54633

>  <SCORE.INTRA.DIHEDRAL.0>
4.28829

>  <SCORE.INTRA.POLAR>
0

>  <SCORE.INTRA.POLAR.0>
0

>  <SCORE.INTRA.REPUL>
0

>  <SCORE.INTRA.REPUL.0>
0

>  <SCORE.INTRA.SOLV>
-0.484691

>  <SCORE.INTRA.SOLV.lig_0>
-48.6018

>  <SCORE.INTRA.VDW>
1.78859

>  <SCORE.INTRA.VDW.0>
-2.1506

>  <SCORE.INTRA.norm>
0.104423

>  <SCORE.RESTR>
0

>  <SCORE.RESTR.CAVITY>
0

>  <SCORE.RESTR.norm>
0

>  <SCORE.SYSTEM>
0

>  <SCORE.SYSTEM.CONST>
0

>  <SCORE.SYSTEM.DIHEDRAL>
0

>  <SCORE.SYSTEM.SOLV>
0

>  <SCORE.SYSTEM.norm>
0

>  <SCORE.heavy>
27

>  <SCORE.norm>
-0.380678

>  <RMSD>
6.774

$$$$
ligand
 OpenBabel11021811483D
libRbt.so/2013.1/901 2013/11/27
 27 29  0  0  0  0  0  0  0  0999 V2000
   16.5668   -2.2447    7.6414 N   0  0  0  0  0  0  0  0  0  0  0  0
   15.6101   -3.3107    7.3378 C   0  0  2  0  0  0  0  0  0  0  0  0
   14.1406   -2.8867    7.2766 C   0  0  0  0  0  0  0  0  0  0  0  0
   13.5107   -3.0812    6.2379 O   0  0  0  0  0  0  0  0  0  0  0  0
   15.7876   -4.4859    8.2844 C   0  0  0  0  0  0  0  0  0  0  0  0
   15.5824   -4.0733    9.7318 C   0  0  0  0  0  0  0  0  0  0  0  0
   15.8743   -5.4649   10.8380 S   0  0  2  0  0  0  0  0  0  0  0  0
   15.7007   -4.6382   12.4335 C   0  0  0  0  0  0  0  0  0  0  0  0
   17.6765   -5.5809   10.7533 C   0  0  0  0  0  0  0  0  0  0  0  0
   18.1058   -6.9005   10.1388 C   0  0  1  0  0  0  0  0  0  0  0  0
   17.7840   -7.9741   10.9932 O   0  0  0  0  0  0  0  0  0  0  0  0
   17.3888   -7.2028    8.8377 C   0  0  1  0  0  0  0  0  0  0  0  0
   18.1760   -6.7245    7.7763 O   0  0  0  0  0  0  0  0  0  0  0  0
   17.3104   -8.7159    8.8193 C   0  0  1  0  0  0  0  0  0  0  0  0
   18.3454   -9.1806    7.9821 O   0  0  0  0  0  0  0  0  0  0  0  0
   17.5401   -9.1641   10.2642 C   0  0  2  0  0  0  0  0  0  0  0  0
   13.5568   -2.3514    8.2228 O   0  0  0  0  0  0  0  0  0  0  0  0
   14.9955  -10.6220   14.6021 N   0  0  0  0  0  0  0  0  0  0  0  0
   16.2375  -10.0426   14.5078 C   0  0  0  0  0  0  0  0  0  0  0  0
   16.7423   -9.7302   13.2647 N   0  0  0  0  0  0  0  0  0  0  0  0
   16.0358   -9.9814   12.1398 C   0  0  0  0  0  0  0  0  0  0  0  0
   14.7744  -10.5533   12.2199 C   0  0  0  0  0  0  0  0  0  0  0  0
   14.2545  -10.8844   13.4695 C   0  0  0  0  0  0  0  0  0  0  0  0
   13.0489  -11.4414   13.5873 N   0  0  0  0  0  0  0  0  0  0  0  0
   14.2943  -10.6839   10.9563 N   0  0  0  0  0  0  0  0  0  0  0  0
   15.2189  -10.1925   10.0995 C   0  0  0  0  0  0  0  0  0  0  0  0
   16.3013   -9.7466   10.8173 N   0  0  0  0  0  0  0  0  0  0  0  0
  2  1  1  1  0  0  0
  2  3  1  0  0  0  0
  2  5  1  0  0  0  0
  3  4  1  0  0  0  0
  3 17  1  0  0  0  0
  5  6  1  0  0  0  0
  7  6  1  6  0  0  0
  7  8  1  0  0  0  0
  7  9  1  0  0  0  0
 10  9  1  1  0  0  0
 10 11  1  0  0  0  0
 10 12  1  0  0  0  0
 11 16  1  0  0  0  0
 12 13  1  6  0  0  0
 12 14  1  0  0  0  0
 14 15  1  6  0  0  0
 14 16  1  0  0  0  0
 16 27  1  1  0  0  0
 18 19  2  0  0  0  0
 18 23  1  0  0  0  0
 19 20  1  0  0  0  0
 20 21  2  0  0  0  0
 21 22  1  0  0  0  0
 21 27  1  0  0  0  0
 22 23  2  0  0  0  0
 22 25  1  0  0  0  0
 23 24  1  0  0  0  0
 25 26  2  0  0  0  0
 26 27  1  0  0  0  0
M  END
>  <CHROM.1>
121.77292411,59.66749584,-177.33021675,175.31779322,-116.07893877,-67.62754301
-50.91413795,15.96103124,-7.14638428,10.29351600,-1.58478091,-0.66960155
2.53270552

>  <Name>
ligand

>  <RI>
0

>  <Rbt.Current_Directory>
/home/itssahil/PROJECTS/Mol_Feturizer/New_Systems/rnas/3GX5

>  <Rbt.Executable>
rbdock ($Id: //depot/dev/client3/rdock/2013.1/src/exe/rbdock.cxx#4 $)

>  <Rbt.Library>
libRbt.so (2013.1, Build901 2013/11/27)

>  <Rbt.Parameter_File>
/export/apps/rDock/src/rDock_2013.1_src/data/scripts/dock_solv.prm

>  <Rbt.Receptor>
prm/pocket_docking_6.prm

>  <SCORE>
-9.21868

>  <SCORE.INTER>
-10.5973

>  <SCORE.INTER.CONST>
1

>  <SCORE.INTER.POLAR>
0

>  <SCORE.INTER.ROT>
7

>  <SCORE.INTER.SOLV>
16.6458

>  <SCORE.INTER.VDW>
-20.8802

>  <SCORE.INTER.norm>
-0.392494

>  <SCORE.INTRA>
1.37867

>  <SCORE.INTRA.DIHEDRAL>
3.23228

>  <SCORE.INTRA.DIHEDRAL.0>
4.28829

>  <SCORE.INTRA.POLAR>
0

>  <SCORE.INTRA.POLAR.0>
0

>  <SCORE.INTRA.REPUL>
0

>  <SCORE.INTRA.REPUL.0>
0

>  <SCORE.INTRA.SOLV>
-0.105403

>  <SCORE.INTRA.SOLV.lig_0>
-48.6018

>  <SCORE.INTRA.VDW>
-0.184769

>  <SCORE.INTRA.VDW.0>
-2.1506

>  <SCORE.INTRA.norm>
0.0510618

>  <SCORE.RESTR>
0

>  <SCORE.RESTR.CAVITY>
0

>  <SCORE.RESTR.norm>
0

>  <SCORE.SYSTEM>
0

>  <SCORE.SYSTEM.CONST>
0

>  <SCORE.SYSTEM.DIHEDRAL>
0

>  <SCORE.SYSTEM.SOLV>
0

>  <SCORE.SYSTEM.norm>
0

>  <SCORE.heavy>
27

>  <SCORE.norm>
-0.341432

>  <RMSD>
6.810

$$$$
ligand
 OpenBabel11021811483D
libRbt.so/2013.1/901 2013/11/27
 27 29  0  0  0  0  0  0  0  0999 V2000
   12.8640   -6.9698    6.0922 N   0  0  0  0  0  0  0  0  0  0  0  0
   12.8752   -5.7748    6.9382 C   0  0  2  0  0  0  0  0  0  0  0  0
   12.5783   -4.4534    6.2251 C   0  0  0  0  0  0  0  0  0  0  0  0
   12.8934   -4.3349    5.0417 O   0  0  0  0  0  0  0  0  0  0  0  0
   14.1719   -5.6775    7.7242 C   0  0  0  0  0  0  0  0  0  0  0  0
   15.3845   -5.7418    6.8114 C   0  0  0  0  0  0  0  0  0  0  0  0
   16.9012   -5.4843    7.7488 S   0  0  2  0  0  0  0  0  0  0  0  0
   17.1260   -3.7105    7.4992 C   0  0  0  0  0  0  0  0  0  0  0  0
   18.1247   -6.1112    6.5747 C   0  0  0  0  0  0  0  0  0  0  0  0
   18.1876   -7.6270    6.6159 C   0  0  1  0  0  0  0  0  0  0  0  0
   17.1750   -8.1879    5.8120 O   0  0  0  0  0  0  0  0  0  0  0  0
   19.4853   -8.1759    6.0564 C   0  0  1  0  0  0  0  0  0  0  0  0
   20.3890   -8.3465    7.1191 O   0  0  0  0  0  0  0  0  0  0  0  0
   19.0801   -9.5114    5.4660 C   0  0  1  0  0  0  0  0  0  0  0  0
   19.4356  -10.5083    6.3976 O   0  0  0  0  0  0  0  0  0  0  0  0
   17.5610   -9.4485    5.2934 C   0  0  2  0  0  0  0  0  0  0  0  0
   12.0401   -3.4946    6.7854 O   0  0  0  0  0  0  0  0  0  0  0  0
   13.8546   -8.4244    1.7392 N   0  0  0  0  0  0  0  0  0  0  0  0
   13.7823   -8.2668    3.1020 C   0  0  0  0  0  0  0  0  0  0  0  0
   14.8728   -8.5959    3.8767 N   0  0  0  0  0  0  0  0  0  0  0  0
   16.0103   -9.0672    3.3187 C   0  0  0  0  0  0  0  0  0  0  0  0
   16.1032   -9.2186    1.9428 C   0  0  0  0  0  0  0  0  0  0  0  0
   15.0051   -8.8997    1.1466 C   0  0  0  0  0  0  0  0  0  0  0  0
   15.0531   -9.0378   -0.1786 N   0  0  0  0  0  0  0  0  0  0  0  0
   17.3428   -9.6945    1.6579 N   0  0  0  0  0  0  0  0  0  0  0  0
   18.0232   -9.8252    2.8200 C   0  0  0  0  0  0  0  0  0  0  0  0
   17.2142   -9.4339    3.8583 N   0  0  0  0  0  0  0  0  0  0  0  0
  2  1  1  6  0  0  0
  2  3  1  0  0  0  0
  2  5  1  0  0  0  0
  3  4  1  0  0  0  0
  3 17  1  0  0  0  0
  5  6  1  0  0  0  0
  7  6  1  6  0  0  0
  7  8  1  0  0  0  0
  7  9  1  0  0  0  0
 10  9  1  6  0  0  0
 10 11  1  0  0  0  0
 10 12  1  0  0  0  0
 11 16  1  0  0  0  0
 12 13  1  1  0  0  0
 12 14  1  0  0  0  0
 14 15  1  1  0  0  0
 14 16  1  0  0  0  0
 16 27  1  6  0  0  0
 18 19  2  0  0  0  0
 18 23  1  0  0  0  0
 19 20  1  0  0  0  0
 20 21  2  0  0  0  0
 21 22  1  0  0  0  0
 21 27  1  0  0  0  0
 22 23  2  0  0  0  0
 22 25  1  0  0  0  0
 23 24  1  0  0  0  0
 25 26  2  0  0  0  0
 26 27  1  0  0  0  0
M  END
>  <CHROM.1>
-29.95184492,54.27423199,175.18656169,-94.96130026,-80.04363623,83.19950735
-49.57088123,16.11435377,-7.40587548,5.15599533,2.17686043,-0.46493938,0.93466272

>  <Name>
ligand

>  <RI>
0

>  <Rbt.Current_Directory>
/home/itssahil/PROJECTS/Mol_Feturizer/New_Systems/rnas/3GX5

>  <Rbt.Executable>
rbdock ($Id: //depot/dev/client3/rdock/2013.1/src/exe/rbdock.cxx#4 $)

>  <Rbt.Library>
libRbt.so (2013.1, Build901 2013/11/27)

>  <Rbt.Parameter_File>
/export/apps/rDock/src/rDock_2013.1_src/data/scripts/dock_solv.prm

>  <Rbt.Receptor>
prm/pocket_docking_8.prm

>  <SCORE>
-16.5397

>  <SCORE.INTER>
-17.6379

>  <SCORE.INTER.CONST>
1

>  <SCORE.INTER.POLAR>
0

>  <SCORE.INTER.ROT>
7

>  <SCORE.INTER.SOLV>
13.751

>  <SCORE.INTER.VDW>
-24.609

>  <SCORE.INTER.norm>
-0.653256

>  <SCORE.INTRA>
1.09818

>  <SCORE.INTRA.DIHEDRAL>
3.09799

>  <SCORE.INTRA.DIHEDRAL.0>
4.28829

>  <SCORE.INTRA.POLAR>
0

>  <SCORE.INTRA.POLAR.0>
0

>  <SCORE.INTRA.REPUL>
0

>  <SCORE.INTRA.REPUL.0>
0

>  <SCORE.INTRA.SOLV>
0.189546

>  <SCORE.INTRA.SOLV.lig_0>
-48.6018

>  <SCORE.INTRA.VDW>
-0.545589

>  <SCORE.INTRA.VDW.0>
-2.1506

>  <SCORE.INTRA.norm>
0.0406734

>  <SCORE.RESTR>
0

>  <SCORE.RESTR.CAVITY>
0

>  <SCORE.RESTR.norm>
0

>  <SCORE.SYSTEM>
0

>  <SCORE.SYSTEM.CONST>
0

>  <SCORE.SYSTEM.DIHEDRAL>
0

>  <SCORE.SYSTEM.SOLV>
0

>  <SCORE.SYSTEM.norm>
0

>  <SCORE.heavy>
27

>  <SCORE.norm>
-0.612583

>  <RMSD>
6.812

$$$$
ligand
 OpenBabel11021811483D
libRbt.so/2013.1/901 2013/11/27
 27 29  0  0  0  0  0  0  0  0999 V2000
   19.2773   -7.5536    7.8887 N   0  0  0  0  0  0  0  0  0  0  0  0
   18.0074   -7.3304    7.1947 C   0  0  2  0  0  0  0  0  0  0  0  0
   17.6445   -8.3636    6.1253 C   0  0  0  0  0  0  0  0  0  0  0  0
   18.4426   -8.5783    5.2140 O   0  0  0  0  0  0  0  0  0  0  0  0
   17.9405   -5.9242    6.6229 C   0  0  0  0  0  0  0  0  0  0  0  0
   16.5472   -5.5929    6.1167 C   0  0  0  0  0  0  0  0  0  0  0  0
   15.4015   -5.3907    7.4921 S   0  0  2  0  0  0  0  0  0  0  0  0
   13.8889   -5.0047    6.5854 C   0  0  0  0  0  0  0  0  0  0  0  0
   15.8487   -3.7310    8.0525 C   0  0  0  0  0  0  0  0  0  0  0  0
   15.5137   -3.5469    9.5212 C   0  0  1  0  0  0  0  0  0  0  0  0
   14.1955   -3.9687    9.7864 O   0  0  0  0  0  0  0  0  0  0  0  0
   16.3877   -4.3862   10.4322 C   0  0  1  0  0  0  0  0  0  0  0  0
   17.4885   -3.6085   10.8302 O   0  0  0  0  0  0  0  0  0  0  0  0
   15.4829   -4.6922   11.6085 C   0  0  1  0  0  0  0  0  0  0  0  0
   15.8215   -3.7969   12.6437 O   0  0  0  0  0  0  0  0  0  0  0  0
   14.0567   -4.4367   11.1164 C   0  0  2  0  0  0  0  0  0  0  0  0
   16.5814   -8.9902    6.1312 O   0  0  0  0  0  0  0  0  0  0  0  0
   12.4094   -8.6675   13.7250 N   0  0  0  0  0  0  0  0  0  0  0  0
   13.1199   -7.5987   14.2150 C   0  0  0  0  0  0  0  0  0  0  0  0
   13.4654   -6.5725   13.3634 N   0  0  0  0  0  0  0  0  0  0  0  0
   13.1148   -6.5990   12.0580 C   0  0  0  0  0  0  0  0  0  0  0  0
   12.3853   -7.6649   11.5518 C   0  0  0  0  0  0  0  0  0  0  0  0
   12.0372   -8.7154   12.3983 C   0  0  0  0  0  0  0  0  0  0  0  0
   11.3423   -9.7604   11.9480 N   0  0  0  0  0  0  0  0  0  0  0  0
   12.1660   -7.4314   10.2322 N   0  0  0  0  0  0  0  0  0  0  0  0
   12.7265   -6.2418    9.9141 C   0  0  0  0  0  0  0  0  0  0  0  0
   13.3125   -5.7094   11.0361 N   0  0  0  0  0  0  0  0  0  0  0  0
  2  1  1  6  0  0  0
  2  3  1  0  0  0  0
  2  5  1  0  0  0  0
  3  4  1  0  0  0  0
  3 17  1  0  0  0  0
  5  6  1  0  0  0  0
  7  6  1  6  0  0  0
  7  8  1  0  0  0  0
  7  9  1  0  0  0  0
 10  9  1  6  0  0  0
 10 11  1  0  0  0  0
 10 12  1  0  0  0  0
 11 16  1  0  0  0  0
 12 13  1  1  0  0  0
 12 14  1  0  0  0  0
 14 15  1  1  0  0  0
 14 16  1  0  0  0  0
 16 27  1  6  0  0  0
 18 19  2  0  0  0  0
 18 23  1  0  0  0  0
 19 20  1  0  0  0  0
 20 21  2  0  0  0  0
 21 22  1  0  0  0  0
 21 27  1  0  0  0  0
 22 23  2  0  0  0  0
 22 25  1  0  0  0  0
 23 24  1  0  0  0  0
 25 26  2  0  0  0  0
 26 27  1  0  0  0  0
M  END
>  <CHROM.1>
-55.51521588,-169.97976807,70.84886961,179.61333713,-154.32271402,-49.00510373
170.30330022,15.07481537,-6.21280726,9.59300621,0.37428313,-0.85787603,-2.59365957

>  <Name>
ligand

>  <RI>
0

>  <Rbt.Current_Directory>
/home/itssahil/PROJECTS/Mol_Feturizer/New_Systems/rnas/3GX5

>  <Rbt.Executable>
rbdock ($Id: //depot/dev/client3/rdock/2013.1/src/exe/rbdock.cxx#4 $)

>  <Rbt.Library>
libRbt.so (2013.1, Build901 2013/11/27)

>  <Rbt.Parameter_File>
/export/apps/rDock/src/rDock_2013.1_src/data/scripts/dock_solv.prm

>  <Rbt.Receptor>
prm/pocket_docking_5.prm

>  <SCORE>
-9.88737

>  <SCORE.INTER>
-10.0485

>  <SCORE.INTER.CONST>
1

>  <SCORE.INTER.POLAR>
0

>  <SCORE.INTER.ROT>
7

>  <SCORE.INTER.SOLV>
12.7582

>  <SCORE.INTER.VDW>
-19.2184

>  <SCORE.INTER.norm>
-0.372165

>  <SCORE.INTRA>
0.161092

>  <SCORE.INTRA.DIHEDRAL>
3.24275

>  <SCORE.INTRA.DIHEDRAL.0>
4.28829

>  <SCORE.INTRA.POLAR>
0

>  <SCORE.INTRA.POLAR.0>
0

>  <SCORE.INTRA.REPUL>
0

>  <SCORE.INTRA.REPUL.0>
0

>  <SCORE.INTRA.SOLV>
-0.876181

>  <SCORE.INTRA.SOLV.lig_0>
-48.6018

>  <SCORE.INTRA.VDW>
-1.02219

>  <SCORE.INTRA.VDW.0>
-2.1506

>  <SCORE.INTRA.norm>
0.00596638

>  <SCORE.RESTR>
0

>  <SCORE.RESTR.CAVITY>
0

>  <SCORE.RESTR.norm>
0

>  <SCORE.SYSTEM>
0

>  <SCORE.SYSTEM.CONST>
0

>  <SCORE.SYSTEM.DIHEDRAL>
0

>  <SCORE.SYSTEM.SOLV>
0

>  <SCORE.SYSTEM.norm>
0

>  <SCORE.heavy>
27

>  <SCORE.norm>
-0.366199

>  <RMSD>
6.818

$$$$
ligand
 OpenBabel11021811483D
libRbt.so/2013.1/901 2013/11/27
 27 29  0  0  0  0  0  0  0  0999 V2000
   15.7817   -5.0609    6.3731 N   0  0  0  0  0  0  0  0  0  0  0  0
   14.6520   -4.1584    6.6030 C   0  0  2  0  0  0  0  0  0  0  0  0
   14.3552   -3.8253    8.0672 C   0  0  0  0  0  0  0  0  0  0  0  0
   15.1541   -4.1862    8.9305 O   0  0  0  0  0  0  0  0  0  0  0  0
   13.4004   -4.6662    5.9069 C   0  0  0  0  0  0  0  0  0  0  0  0
   12.9796   -6.0263    6.4363 C   0  0  0  0  0  0  0  0  0  0  0  0
   14.0775   -7.3159    5.8224 S   0  0  2  0  0  0  0  0  0  0  0  0
   13.0617   -7.9823    4.4871 C   0  0  0  0  0  0  0  0  0  0  0  0
   13.8122   -8.5966    7.0707 C   0  0  0  0  0  0  0  0  0  0  0  0
   14.4377   -8.1995    8.3951 C   0  0  1  0  0  0  0  0  0  0  0  0
   13.4407   -7.9223    9.3518 O   0  0  0  0  0  0  0  0  0  0  0  0
   15.2731   -9.3078    9.0052 C   0  0  1  0  0  0  0  0  0  0  0  0
   16.6061   -9.1351    8.5950 O   0  0  0  0  0  0  0  0  0  0  0  0
   15.1282   -9.0812   10.4965 C   0  0  1  0  0  0  0  0  0  0  0  0
   16.2866   -8.4070   10.9340 O   0  0  0  0  0  0  0  0  0  0  0  0
   13.8905   -8.1976   10.6667 C   0  0  2  0  0  0  0  0  0  0  0  0
   13.3449   -3.2136    8.4247 O   0  0  0  0  0  0  0  0  0  0  0  0
   12.6877  -11.6517   14.4138 N   0  0  0  0  0  0  0  0  0  0  0  0
   13.9229  -11.1321   14.1112 C   0  0  0  0  0  0  0  0  0  0  0  0
   14.0385  -10.2279   13.0784 N   0  0  0  0  0  0  0  0  0  0  0  0
   12.9586   -9.8428   12.3620 C   0  0  0  0  0  0  0  0  0  0  0  0
   11.7026  -10.3482   12.6648 C   0  0  0  0  0  0  0  0  0  0  0  0
   11.5711  -11.2714   13.7000 C   0  0  0  0  0  0  0  0  0  0  0  0
   10.3821  -11.7848   14.0169 N   0  0  0  0  0  0  0  0  0  0  0  0
   10.8106   -9.7923   11.8049 N   0  0  0  0  0  0  0  0  0  0  0  0
   11.4801   -8.9446   10.9901 C   0  0  0  0  0  0  0  0  0  0  0  0
   12.8113   -8.9588   11.3268 N   0  0  0  0  0  0  0  0  0  0  0  0
  2  1  1  1  0  0  0
  2  3  1  0  0  0  0
  2  5  1  0  0  0  0
  3  4  1  0  0  0  0
  3 17  1  0  0  0  0
  5  6  1  0  0  0  0
  7  6  1  1  0  0  0
  7  8  1  0  0  0  0
  7  9  1  0  0  0  0
 10  9  1  6  0  0  0
 10 11  1  0  0  0  0
 10 12  1  0  0  0  0
 11 16  1  0  0  0  0
 12 13  1  6  0  0  0
 12 14  1  0  0  0  0
 14 15  1  6  0  0  0
 14 16  1  0  0  0  0
 16 27  1  1  0  0  0
 18 19  2  0  0  0  0
 18 23  1  0  0  0  0
 19 20  1  0  0  0  0
 20 21  2  0  0  0  0
 21 22  1  0  0  0  0
 21 27  1  0  0  0  0
 22 23  2  0  0  0  0
 22 25  1  0  0  0  0
 23 24  1  0  0  0  0
 25 26  2  0  0  0  0
 26 27  1  0  0  0  0
M  END
>  <CHROM.1>
8.67247390,61.45356621,-74.21942780,-100.46372645,-71.03272006,110.59063220
153.84659495,13.70099502,-8.01279558,9.50991499,-0.76175302,1.27102977,1.45287418

>  <Name>
ligand

>  <RI>
0

>  <Rbt.Current_Directory>
/home/itssahil/PROJECTS/Mol_Feturizer/New_Systems/rnas/3GX5

>  <Rbt.Executable>
rbdock ($Id: //depot/dev/client3/rdock/2013.1/src/exe/rbdock.cxx#4 $)

>  <Rbt.Library>
libRbt.so (2013.1, Build901 2013/11/27)

>  <Rbt.Parameter_File>
/export/apps/rDock/src/rDock_2013.1_src/data/scripts/dock_solv.prm

>  <Rbt.Receptor>
prm/pocket_docking_6.prm

>  <SCORE>
-7.07887

>  <SCORE.INTER>
-11.4996

>  <SCORE.INTER.CONST>
1

>  <SCORE.INTER.POLAR>
0

>  <SCORE.INTER.ROT>
7

>  <SCORE.INTER.SOLV>
13.4353

>  <SCORE.INTER.VDW>
-20.4115

>  <SCORE.INTER.norm>
-0.425912

>  <SCORE.INTRA>
4.42075

>  <SCORE.INTRA.DIHEDRAL>
7.20476

>  <SCORE.INTRA.DIHEDRAL.0>
4.28829

>  <SCORE.INTRA.POLAR>
0

>  <SCORE.INTRA.POLAR.0>
0

>  <SCORE.INTRA.REPUL>
0

>  <SCORE.INTRA.REPUL.0>
0

>  <SCORE.INTRA.SOLV>
1.8458

>  <SCORE.INTRA.SOLV.lig_0>
-48.6018

>  <SCORE.INTRA.VDW>
-0.104528

>  <SCORE.INTRA.VDW.0>
-2.1506

>  <SCORE.INTRA.norm>
0.163732

>  <SCORE.RESTR>
0

>  <SCORE.RESTR.CAVITY>
0

>  <SCORE.RESTR.norm>
0

>  <SCORE.SYSTEM>
0

>  <SCORE.SYSTEM.CONST>
0

>  <SCORE.SYSTEM.DIHEDRAL>
0

>  <SCORE.SYSTEM.SOLV>
0

>  <SCORE.SYSTEM.norm>
0

>  <SCORE.heavy>
27

>  <SCORE.norm>
-0.26218

>  <RMSD>
6.824

$$$$
ligand
 OpenBabel11021811483D
libRbt.so/2013.1/901 2013/11/27
 27 29  0  0  0  0  0  0  0  0999 V2000
   15.0104   -4.6377    7.3469 N   0  0  0  0  0  0  0  0  0  0  0  0
   16.1130   -3.8855    7.9489 C   0  0  2  0  0  0  0  0  0  0  0  0
   15.8724   -2.3848    8.1301 C   0  0  0  0  0  0  0  0  0  0  0  0
   14.7178   -1.9821    8.2658 O   0  0  0  0  0  0  0  0  0  0  0  0
   17.4115   -4.1312    7.1991 C   0  0  0  0  0  0  0  0  0  0  0  0
   17.8359   -5.5876    7.2793 C   0  0  0  0  0  0  0  0  0  0  0  0
   18.4191   -5.9905    8.9354 S   0  0  2  0  0  0  0  0  0  0  0  0
   19.5004   -7.3854    8.5557 C   0  0  0  0  0  0  0  0  0  0  0  0
   16.9871   -6.8862    9.5803 C   0  0  0  0  0  0  0  0  0  0  0  0
   15.9522   -5.9249   10.1352 C   0  0  1  0  0  0  0  0  0  0  0  0
   14.7345   -6.5919   10.3775 O   0  0  0  0  0  0  0  0  0  0  0  0
   16.3542   -5.3384   11.4742 C   0  0  1  0  0  0  0  0  0  0  0  0
   17.0155   -4.1200   11.2437 O   0  0  0  0  0  0  0  0  0  0  0  0
   15.0298   -5.1155   12.1758 C   0  0  1  0  0  0  0  0  0  0  0  0
   14.7060   -3.7500   12.0390 O   0  0  0  0  0  0  0  0  0  0  0  0
   14.0135   -5.9896   11.4379 C   0  0  2  0  0  0  0  0  0  0  0  0
   16.7859   -1.5553    8.1409 O   0  0  0  0  0  0  0  0  0  0  0  0
   13.0147  -11.1175   11.7919 N   0  0  0  0  0  0  0  0  0  0  0  0
   13.4914  -10.4245   10.7058 C   0  0  0  0  0  0  0  0  0  0  0  0
   13.6898   -9.0652   10.8084 N   0  0  0  0  0  0  0  0  0  0  0  0
   13.4263   -8.4049   11.9583 C   0  0  0  0  0  0  0  0  0  0  0  0
   12.9577   -9.0933   13.0678 C   0  0  0  0  0  0  0  0  0  0  0  0
   12.7422  -10.4668   12.9765 C   0  0  0  0  0  0  0  0  0  0  0  0
   12.2864  -11.1624   14.0187 N   0  0  0  0  0  0  0  0  0  0  0  0
   12.7887   -8.1974   14.0743 N   0  0  0  0  0  0  0  0  0  0  0  0
   13.1564   -6.9769   13.6204 C   0  0  0  0  0  0  0  0  0  0  0  0
   13.5609   -7.0893   12.3130 N   0  0  0  0  0  0  0  0  0  0  0  0
  2  1  1  6  0  0  0
  2  3  1  0  0  0  0
  2  5  1  0  0  0  0
  3  4  1  0  0  0  0
  3 17  1  0  0  0  0
  5  6  1  0  0  0  0
  7  6  1  6  0  0  0
  7  8  1  0  0  0  0
  7  9  1  0  0  0  0
 10  9  1  1  0  0  0
 10 11  1  0  0  0  0
 10 12  1  0  0  0  0
 11 16  1  0  0  0  0
 12 13  1  6  0  0  0
 12 14  1  0  0  0  0
 14 15  1  6  0  0  0
 14 16  1  0  0  0  0
 16 27  1  1  0  0  0
 18 19  2  0  0  0  0
 18 23  1  0  0  0  0
 19 20  1  0  0  0  0
 20 21  2  0  0  0  0
 21 22  1  0  0  0  0
 21 27  1  0  0  0  0
 22 23  2  0  0  0  0
 22 25  1  0  0  0  0
 23 24  1  0  0  0  0
 25 26  2  0  0  0  0
 26 27  1  0  0  0  0
M  END
>  <CHROM.1>
27.22590547,-63.17165183,-71.86624985,-155.10843993,-84.29227468,167.75042025
-21.31036696,15.31426565,-6.29510148,10.44526531,0.85909692,0.73743680,-0.14700538

>  <Name>
ligand

>  <RI>
0

>  <Rbt.Current_Directory>
/home/itssahil/PROJECTS/Mol_Feturizer/New_Systems/rnas/3GX5

>  <Rbt.Executable>
rbdock ($Id: //depot/dev/client3/rdock/2013.1/src/exe/rbdock.cxx#4 $)

>  <Rbt.Library>
libRbt.so (2013.1, Build901 2013/11/27)

>  <Rbt.Parameter_File>
/export/apps/rDock/src/rDock_2013.1_src/data/scripts/dock_solv.prm

>  <Rbt.Receptor>
prm/pocket_docking_6.prm

>  <SCORE>
-7.88185

>  <SCORE.INTER>
-9.96391

>  <SCORE.INTER.CONST>
1

>  <SCORE.INTER.POLAR>
0

>  <SCORE.INTER.ROT>
7

>  <SCORE.INTER.SOLV>
9.50811

>  <SCORE.INTER.VDW>
-18.0786

>  <SCORE.INTER.norm>
-0.369034

>  <SCORE.INTRA>
2.08206

>  <SCORE.INTRA.DIHEDRAL>
3.42538

>  <SCORE.INTRA.DIHEDRAL.0>
4.28829

>  <SCORE.INTRA.POLAR>
0

>  <SCORE.INTRA.POLAR.0>
0

>  <SCORE.INTRA.REPUL>
0

>  <SCORE.INTRA.REPUL.0>
0

>  <SCORE.INTRA.SOLV>
2.82611

>  <SCORE.INTRA.SOLV.lig_0>
-48.6018

>  <SCORE.INTRA.VDW>
-1.04369

>  <SCORE.INTRA.VDW.0>
-2.1506

>  <SCORE.INTRA.norm>
0.0771133

>  <SCORE.RESTR>
0

>  <SCORE.RESTR.CAVITY>
0

>  <SCORE.RESTR.norm>
0

>  <SCORE.SYSTEM>
0

>  <SCORE.SYSTEM.CONST>
0

>  <SCORE.SYSTEM.DIHEDRAL>
0

>  <SCORE.SYSTEM.SOLV>
0

>  <SCORE.SYSTEM.norm>
0

>  <SCORE.heavy>
27

>  <SCORE.norm>
-0.29192

>  <RMSD>
6.829

$$$$
ligand
 OpenBabel11021811483D
libRbt.so/2013.1/901 2013/11/27
 27 29  0  0  0  0  0  0  0  0999 V2000
   12.6805   -3.3799    7.1002 N   0  0  0  0  0  0  0  0  0  0  0  0
   13.9471   -3.8063    7.6982 C   0  0  2  0  0  0  0  0  0  0  0  0
   15.1662   -2.9466    7.3553 C   0  0  0  0  0  0  0  0  0  0  0  0
   15.0249   -1.7278    7.2643 O   0  0  0  0  0  0  0  0  0  0  0  0
   14.2244   -5.2698    7.3977 C   0  0  0  0  0  0  0  0  0  0  0  0
   13.9697   -5.5981    5.9367 C   0  0  0  0  0  0  0  0  0  0  0  0
   14.5360   -7.2640    5.5504 S   0  0  2  0  0  0  0  0  0  0  0  0
   13.3207   -7.7251    4.2976 C   0  0  0  0  0  0  0  0  0  0  0  0
   13.8715   -8.1742    6.9641 C   0  0  0  0  0  0  0  0  0  0  0  0
   14.8787   -8.2232    8.0983 C   0  0  1  0  0  0  0  0  0  0  0  0
   14.2249   -8.1688    9.3456 O   0  0  0  0  0  0  0  0  0  0  0  0
   15.6711   -9.5154    8.1240 C   0  0  1  0  0  0  0  0  0  0  0  0
   16.8573   -9.3224    7.3955 O   0  0  0  0  0  0  0  0  0  0  0  0
   15.9634   -9.7229    9.5962 C   0  0  1  0  0  0  0  0  0  0  0  0
   17.2836   -9.2859    9.8286 O   0  0  0  0  0  0  0  0  0  0  0  0
   14.9618   -8.8446   10.3491 C   0  0  2  0  0  0  0  0  0  0  0  0
   16.2883   -3.4213    7.1594 O   0  0  0  0  0  0  0  0  0  0  0  0
   13.8673  -11.2726   14.8575 N   0  0  0  0  0  0  0  0  0  0  0  0
   14.9596  -10.4931   14.5633 C   0  0  0  0  0  0  0  0  0  0  0  0
   15.0714   -9.9366   13.3082 N   0  0  0  0  0  0  0  0  0  0  0  0
   14.1247  -10.1423   12.3652 C   0  0  0  0  0  0  0  0  0  0  0  0
   13.0092  -10.9156   12.6519 C   0  0  0  0  0  0  0  0  0  0  0  0
   12.8870  -11.4938   13.9137 C   0  0  0  0  0  0  0  0  0  0  0  0
   11.8331  -12.2487   14.2252 N   0  0  0  0  0  0  0  0  0  0  0  0
   12.2273  -10.9480   11.5421 N   0  0  0  0  0  0  0  0  0  0  0  0
   12.8225  -10.2016   10.5833 C   0  0  0  0  0  0  0  0  0  0  0  0
   13.9959   -9.6893   11.0796 N   0  0  0  0  0  0  0  0  0  0  0  0
  2  1  1  6  0  0  0
  2  3  1  0  0  0  0
  2  5  1  0  0  0  0
  3  4  1  0  0  0  0
  3 17  1  0  0  0  0
  5  6  1  0  0  0  0
  7  6  1  1  0  0  0
  7  8  1  0  0  0  0
  7  9  1  0  0  0  0
 10  9  1  6  0  0  0
 10 11  1  0  0  0  0
 10 12  1  0  0  0  0
 11 16  1  0  0  0  0
 12 13  1  6  0  0  0
 12 14  1  0  0  0  0
 14 15  1  6  0  0  0
 14 16  1  0  0  0  0
 16 27  1  6  0  0  0
 18 19  2  0  0  0  0
 18 23  1  0  0  0  0
 19 20  1  0  0  0  0
 20 21  2  0  0  0  0
 21 22  1  0  0  0  0
 21 27  1  0  0  0  0
 22 23  2  0  0  0  0
 22 25  1  0  0  0  0
 23 24  1  0  0  0  0
 25 26  2  0  0  0  0
 26 27  1  0  0  0  0
M  END
>  <CHROM.1>
37.43542954,45.70245855,171.54821647,147.18758860,-90.82345210,145.14271355
-155.69371075,14.41086559,-8.01570744,9.27900832,0.84098684,1.42117197,-0.09317850

>  <Name>
ligand

>  <RI>
0

>  <Rbt.Current_Directory>
/home/itssahil/PROJECTS/Mol_Feturizer/New_Systems/rnas/3GX5

>  <Rbt.Executable>
rbdock ($Id: //depot/dev/client3/rdock/2013.1/src/exe/rbdock.cxx#4 $)

>  <Rbt.Library>
libRbt.so (2013.1, Build901 2013/11/27)

>  <Rbt.Parameter_File>
/export/apps/rDock/src/rDock_2013.1_src/data/scripts/dock_solv.prm

>  <Rbt.Receptor>
prm/pocket_docking_8.prm

>  <SCORE>
-6.34106

>  <SCORE.INTER>
-10.8326

>  <SCORE.INTER.CONST>
1

>  <SCORE.INTER.POLAR>
0

>  <SCORE.INTER.ROT>
7

>  <SCORE.INTER.SOLV>
18.9005

>  <SCORE.INTER.VDW>
-21.7886

>  <SCORE.INTER.norm>
-0.401208

>  <SCORE.INTRA>
4.49154

>  <SCORE.INTRA.DIHEDRAL>
6.11946

>  <SCORE.INTRA.DIHEDRAL.0>
4.28829

>  <SCORE.INTRA.POLAR>
0

>  <SCORE.INTRA.POLAR.0>
0

>  <SCORE.INTRA.REPUL>
0

>  <SCORE.INTRA.REPUL.0>
0

>  <SCORE.INTRA.SOLV>
-0.319217

>  <SCORE.INTRA.SOLV.lig_0>
-48.6018

>  <SCORE.INTRA.VDW>
1.59142

>  <SCORE.INTRA.VDW.0>
-2.1506

>  <SCORE.INTRA.norm>
0.166354

>  <SCORE.RESTR>
0

>  <SCORE.RESTR.CAVITY>
0

>  <SCORE.RESTR.norm>
0

>  <SCORE.SYSTEM>
0

>  <SCORE.SYSTEM.CONST>
0

>  <SCORE.SYSTEM.DIHEDRAL>
0

>  <SCORE.SYSTEM.SOLV>
0

>  <SCORE.SYSTEM.norm>
0

>  <SCORE.heavy>
27

>  <SCORE.norm>
-0.234854

>  <RMSD>
6.829

$$$$
ligand
 OpenBabel11021811483D
libRbt.so/2013.1/901 2013/11/27
 27 29  0  0  0  0  0  0  0  0999 V2000
   13.2673   -7.3239    5.2868 N   0  0  0  0  0  0  0  0  0  0  0  0
   14.3238   -6.3700    5.6301 C   0  0  2  0  0  0  0  0  0  0  0  0
   15.5499   -6.9605    6.3306 C   0  0  0  0  0  0  0  0  0  0  0  0
   16.6691   -6.6747    5.9071 O   0  0  0  0  0  0  0  0  0  0  0  0
   13.7646   -5.2030    6.4264 C   0  0  0  0  0  0  0  0  0  0  0  0
   14.8421   -4.1843    6.7560 C   0  0  0  0  0  0  0  0  0  0  0  0
   14.1647   -2.8377    7.7425 S   0  0  2  0  0  0  0  0  0  0  0  0
   15.6911   -1.9987    8.2171 C   0  0  0  0  0  0  0  0  0  0  0  0
   13.8067   -3.7078    9.2864 C   0  0  0  0  0  0  0  0  0  0  0  0
   15.0690   -3.8949   10.1077 C   0  0  1  0  0  0  0  0  0  0  0  0
   14.7608   -3.9746   11.4806 O   0  0  0  0  0  0  0  0  0  0  0  0
   15.7900   -5.1899    9.7891 C   0  0  1  0  0  0  0  0  0  0  0  0
   16.7555   -4.9283    8.8020 O   0  0  0  0  0  0  0  0  0  0  0  0
   16.4429   -5.5650   11.1040 C   0  0  1  0  0  0  0  0  0  0  0  0
   17.7945   -5.1707   11.0301 O   0  0  0  0  0  0  0  0  0  0  0  0
   15.7040   -4.7669   12.1804 C   0  0  2  0  0  0  0  0  0  0  0  0
   15.4682   -7.7180    7.3013 O   0  0  0  0  0  0  0  0  0  0  0  0
   11.2518   -7.4672   12.7324 N   0  0  0  0  0  0  0  0  0  0  0  0
   11.6389   -6.6881   11.6692 C   0  0  0  0  0  0  0  0  0  0  0  0
   12.8589   -6.0497   11.7111 N   0  0  0  0  0  0  0  0  0  0  0  0
   13.6798   -6.1797   12.7773 C   0  0  0  0  0  0  0  0  0  0  0  0
   13.3088   -6.9742   13.8523 C   0  0  0  0  0  0  0  0  0  0  0  0
   12.0734   -7.6181   13.8292 C   0  0  0  0  0  0  0  0  0  0  0  0
   11.6782   -8.3848   14.8459 N   0  0  0  0  0  0  0  0  0  0  0  0
   14.3113   -6.9331   14.7674 N   0  0  0  0  0  0  0  0  0  0  0  0
   15.2985   -6.1476   14.2785 C   0  0  0  0  0  0  0  0  0  0  0  0
   14.9261   -5.6785   13.0429 N   0  0  0  0  0  0  0  0  0  0  0  0
  2  1  1  1  0  0  0
  2  3  1  0  0  0  0
  2  5  1  0  0  0  0
  3  4  1  0  0  0  0
  3 17  1  0  0  0  0
  5  6  1  0  0  0  0
  7  6  1  6  0  0  0
  7  8  1  0  0  0  0
  7  9  1  0  0  0  0
 10  9  1  6  0  0  0
 10 11  1  0  0  0  0
 10 12  1  0  0  0  0
 11 16  1  0  0  0  0
 12 13  1  6  0  0  0
 12 14  1  0  0  0  0
 14 15  1  6  0  0  0
 14 16  1  0  0  0  0
 16 27  1  1  0  0  0
 18 19  2  0  0  0  0
 18 23  1  0  0  0  0
 19 20  1  0  0  0  0
 20 21  2  0  0  0  0
 21 22  1  0  0  0  0
 21 27  1  0  0  0  0
 22 23  2  0  0  0  0
 22 25  1  0  0  0  0
 23 24  1  0  0  0  0
 25 26  2  0  0  0  0
 26 27  1  0  0  0  0
M  END
>  <CHROM.1>
131.00725929,-178.36828333,-178.25968285,169.96026528,79.10859483,152.66633272
30.67749303,14.52700480,-5.55656270,10.04745741,1.19588728,-0.84789119,-1.61812093

>  <Name>
ligand

>  <RI>
0

>  <Rbt.Current_Directory>
/home/itssahil/PROJECTS/Mol_Feturizer/New_Systems/rnas/3GX5

>  <Rbt.Executable>
rbdock ($Id: //depot/dev/client3/rdock/2013.1/src/exe/rbdock.cxx#4 $)

>  <Rbt.Library>
libRbt.so (2013.1, Build901 2013/11/27)

>  <Rbt.Parameter_File>
/export/apps/rDock/src/rDock_2013.1_src/data/scripts/dock_solv.prm

>  <Rbt.Receptor>
prm/pocket_docking_5.prm

>  <SCORE>
-13.4001

>  <SCORE.INTER>
-17.2943

>  <SCORE.INTER.CONST>
1

>  <SCORE.INTER.POLAR>
0

>  <SCORE.INTER.ROT>
7

>  <SCORE.INTER.SOLV>
12.1

>  <SCORE.INTER.VDW>
-23.8295

>  <SCORE.INTER.norm>
-0.640528

>  <SCORE.INTRA>
3.89412

>  <SCORE.INTRA.DIHEDRAL>
3.41672

>  <SCORE.INTRA.DIHEDRAL.0>
4.28829

>  <SCORE.INTRA.POLAR>
0

>  <SCORE.INTRA.POLAR.0>
0

>  <SCORE.INTRA.REPUL>
0

>  <SCORE.INTRA.REPUL.0>
0

>  <SCORE.INTRA.SOLV>
-0.446537

>  <SCORE.INTRA.SOLV.lig_0>
-48.6018

>  <SCORE.INTRA.VDW>
2.40903

>  <SCORE.INTRA.VDW.0>
-2.1506

>  <SCORE.INTRA.norm>
0.144227

>  <SCORE.RESTR>
0

>  <SCORE.RESTR.CAVITY>
0

>  <SCORE.RESTR.norm>
0

>  <SCORE.SYSTEM>
0

>  <SCORE.SYSTEM.CONST>
0

>  <SCORE.SYSTEM.DIHEDRAL>
0

>  <SCORE.SYSTEM.SOLV>
0

>  <SCORE.SYSTEM.norm>
0

>  <SCORE.heavy>
27

>  <SCORE.norm>
-0.496302

>  <RMSD>
6.833

$$$$
ligand
 OpenBabel11021811483D
libRbt.so/2013.1/901 2013/11/27
 27 29  0  0  0  0  0  0  0  0999 V2000
   15.3425   -7.7032    5.1148 N   0  0  0  0  0  0  0  0  0  0  0  0
   14.2502   -7.7961    6.0853 C   0  0  2  0  0  0  0  0  0  0  0  0
   13.8439   -9.2140    6.4943 C   0  0  0  0  0  0  0  0  0  0  0  0
   13.3487   -9.3908    7.6066 O   0  0  0  0  0  0  0  0  0  0  0  0
   13.0386   -7.0078    5.6169 C   0  0  0  0  0  0  0  0  0  0  0  0
   13.3224   -5.5160    5.5815 C   0  0  0  0  0  0  0  0  0  0  0  0
   13.1411   -4.7943    7.2221 S   0  0  2  0  0  0  0  0  0  0  0  0
   13.7285   -3.1191    6.8938 C   0  0  0  0  0  0  0  0  0  0  0  0
   14.6030   -5.4706    8.0431 C   0  0  0  0  0  0  0  0  0  0  0  0
   14.8449   -4.7808    9.3730 C   0  0  1  0  0  0  0  0  0  0  0  0
   13.7772   -5.0242   10.2600 O   0  0  0  0  0  0  0  0  0  0  0  0
   16.0776   -5.2990   10.0873 C   0  0  1  0  0  0  0  0  0  0  0  0
   17.1681   -4.4849    9.7367 O   0  0  0  0  0  0  0  0  0  0  0  0
   15.7299   -5.1422   11.5538 C   0  0  1  0  0  0  0  0  0  0  0  0
   16.3557   -3.9643   12.0109 O   0  0  0  0  0  0  0  0  0  0  0  0
   14.2070   -5.0031   11.6098 C   0  0  2  0  0  0  0  0  0  0  0  0
   13.9954  -10.1937    5.7595 O   0  0  0  0  0  0  0  0  0  0  0  0
   11.4035   -9.3707   10.9147 N   0  0  0  0  0  0  0  0  0  0  0  0
   11.8010   -8.4636    9.9626 C   0  0  0  0  0  0  0  0  0  0  0  0
   12.5391   -7.3653   10.3454 N   0  0  0  0  0  0  0  0  0  0  0  0
   12.8799   -7.1681   11.6387 C   0  0  0  0  0  0  0  0  0  0  0  0
   12.4976   -8.0826   12.6094 C   0  0  0  0  0  0  0  0  0  0  0  0
   11.7419   -9.1931   12.2393 C   0  0  0  0  0  0  0  0  0  0  0  0
   11.3499  -10.0907   13.1439 N   0  0  0  0  0  0  0  0  0  0  0  0
   12.9754   -7.6477   13.8039 N   0  0  0  0  0  0  0  0  0  0  0  0
   13.6566   -6.4977   13.5938 C   0  0  0  0  0  0  0  0  0  0  0  0
   13.6131   -6.1903   12.2561 N   0  0  0  0  0  0  0  0  0  0  0  0
  2  1  1  6  0  0  0
  2  3  1  0  0  0  0
  2  5  1  0  0  0  0
  3  4  1  0  0  0  0
  3 17  1  0  0  0  0
  5  6  1  0  0  0  0
  7  6  1  6  0  0  0
  7  8  1  0  0  0  0
  7  9  1  0  0  0  0
 10  9  1  6  0  0  0
 10 11  1  0  0  0  0
 10 12  1  0  0  0  0
 11 16  1  0  0  0  0
 12 13  1  6  0  0  0
 12 14  1  0  0  0  0
 14 15  1  6  0  0  0
 14 16  1  0  0  0  0
 16 27  1  1  0  0  0
 18 19  2  0  0  0  0
 18 23  1  0  0  0  0
 19 20  1  0  0  0  0
 20 21  2  0  0  0  0
 21 22  1  0  0  0  0
 21 27  1  0  0  0  0
 22 23  2  0  0  0  0
 22 25  1  0  0  0  0
 23 24  1  0  0  0  0
 25 26  2  0  0  0  0
 26 27  1  0  0  0  0
M  END
>  <CHROM.1>
152.39353795,-66.32716605,-81.89499318,173.34663104,168.19403126,63.66368321
4.61566328,13.76623134,-6.68119567,9.43432589,1.28322301,-1.05188326,-1.71641206

>  <Name>
ligand

>  <RI>
0

>  <Rbt.Current_Directory>
/home/itssahil/PROJECTS/Mol_Feturizer/New_Systems/rnas/3GX5

>  <Rbt.Executable>
rbdock ($Id: //depot/dev/client3/rdock/2013.1/src/exe/rbdock.cxx#4 $)

>  <Rbt.Library>
libRbt.so (2013.1, Build901 2013/11/27)

>  <Rbt.Parameter_File>
/export/apps/rDock/src/rDock_2013.1_src/data/scripts/dock_solv.prm

>  <Rbt.Receptor>
prm/pocket_docking_4.prm

>  <SCORE>
-12.7486

>  <SCORE.INTER>
-12.8581

>  <SCORE.INTER.CONST>
1

>  <SCORE.INTER.POLAR>
0

>  <SCORE.INTER.ROT>
7

>  <SCORE.INTER.SOLV>
10.5482

>  <SCORE.INTER.VDW>
-20.3548

>  <SCORE.INTER.norm>
-0.476228

>  <SCORE.INTRA>
0.109499

>  <SCORE.INTRA.DIHEDRAL>
1.08457

>  <SCORE.INTRA.DIHEDRAL.0>
4.28829

>  <SCORE.INTRA.POLAR>
0

>  <SCORE.INTRA.POLAR.0>
0

>  <SCORE.INTRA.REPUL>
0

>  <SCORE.INTRA.REPUL.0>
0

>  <SCORE.INTRA.SOLV>
0.447507

>  <SCORE.INTRA.SOLV.lig_0>
-48.6018

>  <SCORE.INTRA.VDW>
-0.656537

>  <SCORE.INTRA.VDW.0>
-2.1506

>  <SCORE.INTRA.norm>
0.00405552

>  <SCORE.RESTR>
0

>  <SCORE.RESTR.CAVITY>
0

>  <SCORE.RESTR.norm>
0

>  <SCORE.SYSTEM>
0

>  <SCORE.SYSTEM.CONST>
0

>  <SCORE.SYSTEM.DIHEDRAL>
0

>  <SCORE.SYSTEM.SOLV>
0

>  <SCORE.SYSTEM.norm>
0

>  <SCORE.heavy>
27

>  <SCORE.norm>
-0.472172

>  <RMSD>
6.840

$$$$
ligand
 OpenBabel11021811483D
libRbt.so/2013.1/901 2013/11/27
 27 29  0  0  0  0  0  0  0  0999 V2000
   14.9435   -4.2282    6.5831 N   0  0  0  0  0  0  0  0  0  0  0  0
   15.8265   -3.7300    7.6394 C   0  0  2  0  0  0  0  0  0  0  0  0
   15.5665   -2.2936    8.0999 C   0  0  0  0  0  0  0  0  0  0  0  0
   14.4051   -1.9309    8.2820 O   0  0  0  0  0  0  0  0  0  0  0  0
   17.2861   -3.9124    7.2585 C   0  0  0  0  0  0  0  0  0  0  0  0
   17.6167   -5.3716    6.9958 C   0  0  0  0  0  0  0  0  0  0  0  0
   17.9126   -6.2458    8.5429 S   0  0  2  0  0  0  0  0  0  0  0  0
   18.2718   -7.8964    7.9059 C   0  0  0  0  0  0  0  0  0  0  0  0
   16.2141   -6.5033    9.1062 C   0  0  0  0  0  0  0  0  0  0  0  0
   15.8212   -5.4601   10.1360 C   0  0  1  0  0  0  0  0  0  0  0  0
   14.4452   -5.5446   10.4284 O   0  0  0  0  0  0  0  0  0  0  0  0
   16.5204   -5.6566   11.4667 C   0  0  1  0  0  0  0  0  0  0  0  0
   17.6900   -4.8774   11.4722 O   0  0  0  0  0  0  0  0  0  0  0  0
   15.5155   -5.1381   12.4753 C   0  0  1  0  0  0  0  0  0  0  0  0
   15.9094   -3.8309   12.8277 O   0  0  0  0  0  0  0  0  0  0  0  0
   14.1675   -5.1209   11.7514 C   0  0  2  0  0  0  0  0  0  0  0  0
   16.4711   -1.4766    8.2927 O   0  0  0  0  0  0  0  0  0  0  0  0
   13.0871   -8.0617   15.9469 N   0  0  0  0  0  0  0  0  0  0  0  0
   14.0934   -7.1379   15.8015 C   0  0  0  0  0  0  0  0  0  0  0  0
   14.2176   -6.4595   14.6090 N   0  0  0  0  0  0  0  0  0  0  0  0
   13.3657   -6.6856   13.5839 C   0  0  0  0  0  0  0  0  0  0  0  0
   12.3361   -7.6053   13.7207 C   0  0  0  0  0  0  0  0  0  0  0  0
   12.2038   -8.3069   14.9171 C   0  0  0  0  0  0  0  0  0  0  0  0
   11.2314   -9.2036   15.0848 N   0  0  0  0  0  0  0  0  0  0  0  0
   11.6372   -7.6257   12.5565 N   0  0  0  0  0  0  0  0  0  0  0  0
   12.1980   -6.7310   11.7106 C   0  0  0  0  0  0  0  0  0  0  0  0
   13.2661   -6.1346   12.3344 N   0  0  0  0  0  0  0  0  0  0  0  0
  2  1  1  6  0  0  0
  2  3  1  0  0  0  0
  2  5  1  0  0  0  0
  3  4  1  0  0  0  0
  3 17  1  0  0  0  0
  5  6  1  0  0  0  0
  7  6  1  6  0  0  0
  7  8  1  0  0  0  0
  7  9  1  0  0  0  0
 10  9  1  6  0  0  0
 10 11  1  0  0  0  0
 10 12  1  0  0  0  0
 11 16  1  0  0  0  0
 12 13  1  6  0  0  0
 12 14  1  0  0  0  0
 14 15  1  6  0  0  0
 14 16  1  0  0  0  0
 16 27  1  1  0  0  0
 18 19  2  0  0  0  0
 18 23  1  0  0  0  0
 19 20  1  0  0  0  0
 20 21  2  0  0  0  0
 21 22  1  0  0  0  0
 21 27  1  0  0  0  0
 22 23  2  0  0  0  0
 22 25  1  0  0  0  0
 23 24  1  0  0  0  0
 25 26  2  0  0  0  0
 26 27  1  0  0  0  0
M  END
>  <CHROM.1>
43.66375650,-58.63936052,-81.46541847,-179.84974965,-98.86386185,171.55234415
135.36218619,15.10898885,-5.63466801,10.89297407,0.89109279,0.70915360,-0.61784285

>  <Name>
ligand

>  <RI>
0

>  <Rbt.Current_Directory>
/home/itssahil/PROJECTS/Mol_Feturizer/New_Systems/rnas/3GX5

>  <Rbt.Executable>
rbdock ($Id: //depot/dev/client3/rdock/2013.1/src/exe/rbdock.cxx#4 $)

>  <Rbt.Library>
libRbt.so (2013.1, Build901 2013/11/27)

>  <Rbt.Parameter_File>
/export/apps/rDock/src/rDock_2013.1_src/data/scripts/dock_solv.prm

>  <Rbt.Receptor>
prm/pocket_docking_5.prm

>  <SCORE>
-9.93678

>  <SCORE.INTER>
-12.5423

>  <SCORE.INTER.CONST>
1

>  <SCORE.INTER.POLAR>
0

>  <SCORE.INTER.ROT>
7

>  <SCORE.INTER.SOLV>
10.6952

>  <SCORE.INTER.VDW>
-20.1932

>  <SCORE.INTER.norm>
-0.464529

>  <SCORE.INTRA>
2.6055

>  <SCORE.INTRA.DIHEDRAL>
3.41568

>  <SCORE.INTRA.DIHEDRAL.0>
4.28829

>  <SCORE.INTRA.POLAR>
0

>  <SCORE.INTRA.POLAR.0>
0

>  <SCORE.INTRA.REPUL>
0

>  <SCORE.INTRA.REPUL.0>
0

>  <SCORE.INTRA.SOLV>
1.66708

>  <SCORE.INTRA.SOLV.lig_0>
-48.6018

>  <SCORE.INTRA.VDW>
0.0641196

>  <SCORE.INTRA.VDW.0>
-2.1506

>  <SCORE.INTRA.norm>
0.0965

>  <SCORE.RESTR>
0

>  <SCORE.RESTR.CAVITY>
0

>  <SCORE.RESTR.norm>
0

>  <SCORE.SYSTEM>
0

>  <SCORE.SYSTEM.CONST>
0

>  <SCORE.SYSTEM.DIHEDRAL>
0

>  <SCORE.SYSTEM.SOLV>
0

>  <SCORE.SYSTEM.norm>
0

>  <SCORE.heavy>
27

>  <SCORE.norm>
-0.368029

>  <RMSD>
6.863

$$$$
ligand
 OpenBabel11021811483D
libRbt.so/2013.1/901 2013/11/27
 27 29  0  0  0  0  0  0  0  0999 V2000
   13.4732   -8.8956    5.7669 N   0  0  0  0  0  0  0  0  0  0  0  0
   13.1251   -7.8430    4.8104 C   0  0  2  0  0  0  0  0  0  0  0  0
   13.7643   -7.9664    3.4251 C   0  0  0  0  0  0  0  0  0  0  0  0
   13.3474   -7.2518    2.5145 O   0  0  0  0  0  0  0  0  0  0  0  0
   13.3866   -6.4665    5.3982 C   0  0  0  0  0  0  0  0  0  0  0  0
   12.4635   -6.1743    6.5687 C   0  0  0  0  0  0  0  0  0  0  0  0
   12.9604   -4.6602    7.4088 S   0  0  2  0  0  0  0  0  0  0  0  0
   12.9425   -3.5099    6.0176 C   0  0  0  0  0  0  0  0  0  0  0  0
   14.7420   -4.9322    7.5521 C   0  0  0  0  0  0  0  0  0  0  0  0
   15.2883   -4.2884    8.8131 C   0  0  1  0  0  0  0  0  0  0  0  0
   14.3907   -4.4585    9.8863 O   0  0  0  0  0  0  0  0  0  0  0  0
   16.5854   -4.9195    9.2796 C   0  0  1  0  0  0  0  0  0  0  0  0
   17.6549   -4.1922    8.7298 O   0  0  0  0  0  0  0  0  0  0  0  0
   16.5356   -4.7606   10.7857 C   0  0  1  0  0  0  0  0  0  0  0  0
   17.3338   -3.6468   11.1178 O   0  0  0  0  0  0  0  0  0  0  0  0
   15.0681   -4.4971   11.1299 C   0  0  2  0  0  0  0  0  0  0  0  0
   14.6788   -8.7567    3.1761 O   0  0  0  0  0  0  0  0  0  0  0  0
   12.5518   -9.0766   10.7923 N   0  0  0  0  0  0  0  0  0  0  0  0
   12.9466   -8.2540    9.7654 C   0  0  0  0  0  0  0  0  0  0  0  0
   13.6017   -7.0781   10.0584 N   0  0  0  0  0  0  0  0  0  0  0  0
   13.8639   -6.7234   11.3363 C   0  0  0  0  0  0  0  0  0  0  0  0
   13.4837   -7.5505   12.3832 C   0  0  0  0  0  0  0  0  0  0  0  0
   12.8112   -8.7382   12.1035 C   0  0  0  0  0  0  0  0  0  0  0  0
   12.4237   -9.5563   13.0824 N   0  0  0  0  0  0  0  0  0  0  0  0
   13.8744   -6.9621   13.5431 N   0  0  0  0  0  0  0  0  0  0  0  0
   14.5004   -5.8018   13.2390 C   0  0  0  0  0  0  0  0  0  0  0  0
   14.5087   -5.6424   11.8752 N   0  0  0  0  0  0  0  0  0  0  0  0
  2  1  1  1  0  0  0
  2  3  1  0  0  0  0
  2  5  1  0  0  0  0
  3  4  1  0  0  0  0
  3 17  1  0  0  0  0
  5  6  1  0  0  0  0
  7  6  1  6  0  0  0
  7  8  1  0  0  0  0
  7  9  1  0  0  0  0
 10  9  1  6  0  0  0
 10 11  1  0  0  0  0
 10 12  1  0  0  0  0
 11 16  1  0  0  0  0
 12 13  1  6  0  0  0
 12 14  1  0  0  0  0
 14 15  1  6  0  0  0
 14 16  1  0  0  0  0
 16 27  1  1  0  0  0
 18 19  2  0  0  0  0
 18 23  1  0  0  0  0
 19 20  1  0  0  0  0
 20 21  2  0  0  0  0
 21 22  1  0  0  0  0
 21 27  1  0  0  0  0
 22 23  2  0  0  0  0
 22 25  1  0  0  0  0
 23 24  1  0  0  0  0
 25 26  2  0  0  0  0
 26 27  1  0  0  0  0
M  END
>  <CHROM.1>
168.09647507,-66.08322129,171.06108625,55.14656539,-147.92149655,39.47923168
21.95485992,14.13812729,-6.26641291,8.73998927,1.77775104,-0.99137533,-1.48877489

>  <Name>
ligand

>  <RI>
0

>  <Rbt.Current_Directory>
/home/itssahil/PROJECTS/Mol_Feturizer/New_Systems/rnas/3GX5

>  <Rbt.Executable>
rbdock ($Id: //depot/dev/client3/rdock/2013.1/src/exe/rbdock.cxx#4 $)

>  <Rbt.Library>
libRbt.so (2013.1, Build901 2013/11/27)

>  <Rbt.Parameter_File>
/export/apps/rDock/src/rDock_2013.1_src/data/scripts/dock_solv.prm

>  <Rbt.Receptor>
prm/pocket_docking_3.prm

>  <SCORE>
-9.54851

>  <SCORE.INTER>
-12.624

>  <SCORE.INTER.CONST>
1

>  <SCORE.INTER.POLAR>
0

>  <SCORE.INTER.ROT>
7

>  <SCORE.INTER.SOLV>
10.9554

>  <SCORE.INTER.VDW>
-20.3345

>  <SCORE.INTER.norm>
-0.467554

>  <SCORE.INTRA>
3.05965

>  <SCORE.INTRA.DIHEDRAL>
4.41376

>  <SCORE.INTRA.DIHEDRAL.0>
4.28829

>  <SCORE.INTRA.POLAR>
0

>  <SCORE.INTRA.POLAR.0>
0

>  <SCORE.INTRA.REPUL>
0

>  <SCORE.INTRA.REPUL.0>
0

>  <SCORE.INTRA.SOLV>
-0.40685

>  <SCORE.INTRA.SOLV.lig_0>
-48.6018

>  <SCORE.INTRA.VDW>
1.0562

>  <SCORE.INTRA.VDW.0>
-2.1506

>  <SCORE.INTRA.norm>
0.11332

>  <SCORE.RESTR>
0.0157995

>  <SCORE.RESTR.CAVITY>
0.0157995

>  <SCORE.RESTR.norm>
0.000585167

>  <SCORE.SYSTEM>
0

>  <SCORE.SYSTEM.CONST>
0

>  <SCORE.SYSTEM.DIHEDRAL>
0

>  <SCORE.SYSTEM.SOLV>
0

>  <SCORE.SYSTEM.norm>
0

>  <SCORE.heavy>
27

>  <SCORE.norm>
-0.353649

>  <RMSD>
6.883

$$$$
ligand
 OpenBabel11021811483D
libRbt.so/2013.1/901 2013/11/27
 27 29  0  0  0  0  0  0  0  0999 V2000
   14.0049   -8.1908    3.5817 N   0  0  0  0  0  0  0  0  0  0  0  0
   14.3616   -8.0405    4.9938 C   0  0  2  0  0  0  0  0  0  0  0  0
   14.7448   -9.3305    5.7230 C   0  0  0  0  0  0  0  0  0  0  0  0
   14.2206  -10.3871    5.3730 O   0  0  0  0  0  0  0  0  0  0  0  0
   13.2730   -7.3011    5.7535 C   0  0  0  0  0  0  0  0  0  0  0  0
   13.3385   -5.8036    5.5072 C   0  0  0  0  0  0  0  0  0  0  0  0
   13.0059   -4.8935    7.0258 S   0  0  2  0  0  0  0  0  0  0  0  0
   13.3429   -3.2116    6.4629 C   0  0  0  0  0  0  0  0  0  0  0  0
   14.5301   -5.2151    7.9434 C   0  0  0  0  0  0  0  0  0  0  0  0
   14.4355   -4.6726    9.3575 C   0  0  1  0  0  0  0  0  0  0  0  0
   13.3370   -5.2396   10.0344 O   0  0  0  0  0  0  0  0  0  0  0  0
   15.6440   -5.0236   10.2029 C   0  0  1  0  0  0  0  0  0  0  0  0
   16.5685   -3.9688   10.1140 O   0  0  0  0  0  0  0  0  0  0  0  0
   15.0768   -5.1345   11.6036 C   0  0  1  0  0  0  0  0  0  0  0  0
   15.3645   -3.9261   12.2708 O   0  0  0  0  0  0  0  0  0  0  0  0
   13.5668   -5.3114   11.4305 C   0  0  2  0  0  0  0  0  0  0  0  0
   15.5546   -9.3599    6.6537 O   0  0  0  0  0  0  0  0  0  0  0  0
   13.2260  -10.3533   10.0592 N   0  0  0  0  0  0  0  0  0  0  0  0
   13.7322   -9.3113    9.3209 C   0  0  0  0  0  0  0  0  0  0  0  0
   13.7337   -8.0431    9.8588 N   0  0  0  0  0  0  0  0  0  0  0  0
   13.2493   -7.8091   11.0991 C   0  0  0  0  0  0  0  0  0  0  0  0
   12.7477   -8.8536   11.8620 C   0  0  0  0  0  0  0  0  0  0  0  0
   12.7299  -10.1402   11.3277 C   0  0  0  0  0  0  0  0  0  0  0  0
   12.2500  -11.1689   12.0272 N   0  0  0  0  0  0  0  0  0  0  0  0
   12.3420   -8.3430   13.0532 N   0  0  0  0  0  0  0  0  0  0  0  0
   12.5950   -7.0139   13.0521 C   0  0  0  0  0  0  0  0  0  0  0  0
   13.1638   -6.6681   11.8511 N   0  0  0  0  0  0  0  0  0  0  0  0
  2  1  1  6  0  0  0
  2  3  1  0  0  0  0
  2  5  1  0  0  0  0
  3  4  1  0  0  0  0
  3 17  1  0  0  0  0
  5  6  1  0  0  0  0
  7  6  1  6  0  0  0
  7  8  1  0  0  0  0
  7  9  1  0  0  0  0
 10  9  1  6  0  0  0
 10 11  1  0  0  0  0
 10 12  1  0  0  0  0
 11 16  1  0  0  0  0
 12 13  1  1  0  0  0
 12 14  1  0  0  0  0
 14 15  1  1  0  0  0
 14 16  1  0  0  0  0
 16 27  1  6  0  0  0
 18 19  2  0  0  0  0
 18 23  1  0  0  0  0
 19 20  1  0  0  0  0
 20 21  2  0  0  0  0
 21 22  1  0  0  0  0
 21 27  1  0  0  0  0
 22 23  2  0  0  0  0
 22 25  1  0  0  0  0
 23 24  1  0  0  0  0
 25 26  2  0  0  0  0
 26 27  1  0  0  0  0
M  END
>  <CHROM.1>
-31.20839689,-78.29695326,-140.33187406,173.71439961,-173.49490306,57.67694934
31.84130140,13.85316401,-6.97872170,9.01237662,1.22291206,-1.36094265,-1.98723974

>  <Name>
ligand

>  <RI>
0

>  <Rbt.Current_Directory>
/home/itssahil/PROJECTS/Mol_Feturizer/New_Systems/rnas/3GX5

>  <Rbt.Executable>
rbdock ($Id: //depot/dev/client3/rdock/2013.1/src/exe/rbdock.cxx#4 $)

>  <Rbt.Library>
libRbt.so (2013.1, Build901 2013/11/27)

>  <Rbt.Parameter_File>
/export/apps/rDock/src/rDock_2013.1_src/data/scripts/dock_solv.prm

>  <Rbt.Receptor>
prm/pocket_docking_3.prm

>  <SCORE>
-8.84209

>  <SCORE.INTER>
-9.37831

>  <SCORE.INTER.CONST>
1

>  <SCORE.INTER.POLAR>
0

>  <SCORE.INTER.ROT>
7

>  <SCORE.INTER.SOLV>
18.0698

>  <SCORE.INTER.VDW>
-20.5421

>  <SCORE.INTER.norm>
-0.347345

>  <SCORE.INTRA>
0.536222

>  <SCORE.INTRA.DIHEDRAL>
5.22641

>  <SCORE.INTRA.DIHEDRAL.0>
4.28829

>  <SCORE.INTRA.POLAR>
0

>  <SCORE.INTRA.POLAR.0>
0

>  <SCORE.INTRA.REPUL>
0

>  <SCORE.INTRA.REPUL.0>
0

>  <SCORE.INTRA.SOLV>
-0.669805

>  <SCORE.INTRA.SOLV.lig_0>
-48.6018

>  <SCORE.INTRA.VDW>
-1.74208

>  <SCORE.INTRA.VDW.0>
-2.1506

>  <SCORE.INTRA.norm>
0.0198601

>  <SCORE.RESTR>
0

>  <SCORE.RESTR.CAVITY>
0

>  <SCORE.RESTR.norm>
0

>  <SCORE.SYSTEM>
0

>  <SCORE.SYSTEM.CONST>
0

>  <SCORE.SYSTEM.DIHEDRAL>
0

>  <SCORE.SYSTEM.SOLV>
0

>  <SCORE.SYSTEM.norm>
0

>  <SCORE.heavy>
27

>  <SCORE.norm>
-0.327485

>  <RMSD>
6.904

$$$$
ligand
 OpenBabel11021811483D
libRbt.so/2013.1/901 2013/11/27
 27 29  0  0  0  0  0  0  0  0999 V2000
   14.9453   -9.7031    4.9793 N   0  0  0  0  0  0  0  0  0  0  0  0
   14.4265   -8.3787    5.3264 C   0  0  2  0  0  0  0  0  0  0  0  0
   13.3392   -7.8277    4.4006 C   0  0  0  0  0  0  0  0  0  0  0  0
   12.1988   -7.6912    4.8417 O   0  0  0  0  0  0  0  0  0  0  0  0
   15.5571   -7.3749    5.4784 C   0  0  0  0  0  0  0  0  0  0  0  0
   15.0481   -6.0304    5.9691 C   0  0  0  0  0  0  0  0  0  0  0  0
   14.7910   -6.0592    7.7519 S   0  0  2  0  0  0  0  0  0  0  0  0
   13.0310   -6.4574    7.8079 C   0  0  0  0  0  0  0  0  0  0  0  0
   14.7103   -4.2873    8.1020 C   0  0  0  0  0  0  0  0  0  0  0  0
   14.6792   -4.0318    9.5975 C   0  0  1  0  0  0  0  0  0  0  0  0
   13.5331   -4.6125   10.1767 O   0  0  0  0  0  0  0  0  0  0  0  0
   15.8510   -4.6610   10.3250 C   0  0  1  0  0  0  0  0  0  0  0  0
   16.8767   -3.7053   10.4231 O   0  0  0  0  0  0  0  0  0  0  0  0
   15.2838   -4.9937   11.6901 C   0  0  1  0  0  0  0  0  0  0  0  0
   15.6958   -3.9771   12.5759 O   0  0  0  0  0  0  0  0  0  0  0  0
   13.7626   -4.9840   11.5244 C   0  0  2  0  0  0  0  0  0  0  0  0
   13.5523   -7.5178    3.2253 O   0  0  0  0  0  0  0  0  0  0  0  0
   14.8789   -9.9769   12.6390 N   0  0  0  0  0  0  0  0  0  0  0  0
   15.7362   -8.9036   12.6284 C   0  0  0  0  0  0  0  0  0  0  0  0
   15.2494   -7.6561   12.3048 N   0  0  0  0  0  0  0  0  0  0  0  0
   13.9450   -7.4716   12.0014 C   0  0  0  0  0  0  0  0  0  0  0  0
   13.0645   -8.5434   12.0214 C   0  0  0  0  0  0  0  0  0  0  0  0
   13.5437   -9.8132   12.3367 C   0  0  0  0  0  0  0  0  0  0  0  0
   12.7302  -10.8692   12.3601 N   0  0  0  0  0  0  0  0  0  0  0  0
   11.8326   -8.0779   11.6900 N   0  0  0  0  0  0  0  0  0  0  0  0
   11.9261   -6.7442   11.4821 C   0  0  0  0  0  0  0  0  0  0  0  0
   13.2272   -6.3514   11.6780 N   0  0  0  0  0  0  0  0  0  0  0  0
  2  1  1  6  0  0  0
  2  3  1  0  0  0  0
  2  5  1  0  0  0  0
  3  4  1  0  0  0  0
  3 17  1  0  0  0  0
  5  6  1  0  0  0  0
  7  6  1  6  0  0  0
  7  8  1  0  0  0  0
  7  9  1  0  0  0  0
 10  9  1  6  0  0  0
 10 11  1  0  0  0  0
 10 12  1  0  0  0  0
 11 16  1  0  0  0  0
 12 13  1  1  0  0  0
 12 14  1  0  0  0  0
 14 15  1  1  0  0  0
 14 16  1  0  0  0  0
 16 27  1  6  0  0  0
 18 19  2  0  0  0  0
 18 23  1  0  0  0  0
 19 20  1  0  0  0  0
 20 21  2  0  0  0  0
 21 22  1  0  0  0  0
 21 27  1  0  0  0  0
 22 23  2  0  0  0  0
 22 25  1  0  0  0  0
 23 24  1  0  0  0  0
 25 26  2  0  0  0  0
 26 27  1  0  0  0  0
M  END
>  <CHROM.1>
112.70961438,-174.48826854,80.22493906,-94.99111318,-172.40535287,-61.76395059
117.47280008,14.24036745,-6.81690571,9.29790066,1.65876332,-1.22030277,-1.53444131

>  <Name>
ligand

>  <RI>
0

>  <Rbt.Current_Directory>
/home/itssahil/PROJECTS/Mol_Feturizer/New_Systems/rnas/3GX5

>  <Rbt.Executable>
rbdock ($Id: //depot/dev/client3/rdock/2013.1/src/exe/rbdock.cxx#4 $)

>  <Rbt.Library>
libRbt.so (2013.1, Build901 2013/11/27)

>  <Rbt.Parameter_File>
/export/apps/rDock/src/rDock_2013.1_src/data/scripts/dock_solv.prm

>  <Rbt.Receptor>
prm/pocket_docking_4.prm

>  <SCORE>
-6.09264

>  <SCORE.INTER>
-7.01903

>  <SCORE.INTER.CONST>
1

>  <SCORE.INTER.POLAR>
0

>  <SCORE.INTER.ROT>
7

>  <SCORE.INTER.SOLV>
15.0683

>  <SCORE.INTER.VDW>
-17.9688

>  <SCORE.INTER.norm>
-0.259964

>  <SCORE.INTRA>
0.926394

>  <SCORE.INTRA.DIHEDRAL>
3.08861

>  <SCORE.INTRA.DIHEDRAL.0>
4.28829

>  <SCORE.INTRA.POLAR>
0

>  <SCORE.INTRA.POLAR.0>
0

>  <SCORE.INTRA.REPUL>
0

>  <SCORE.INTRA.REPUL.0>
0

>  <SCORE.INTRA.SOLV>
-0.897056

>  <SCORE.INTRA.SOLV.lig_0>
-48.6018

>  <SCORE.INTRA.VDW>
-0.169385

>  <SCORE.INTRA.VDW.0>
-2.1506

>  <SCORE.INTRA.norm>
0.0343109

>  <SCORE.RESTR>
0

>  <SCORE.RESTR.CAVITY>
0

>  <SCORE.RESTR.norm>
0

>  <SCORE.SYSTEM>
0

>  <SCORE.SYSTEM.CONST>
0

>  <SCORE.SYSTEM.DIHEDRAL>
0

>  <SCORE.SYSTEM.SOLV>
0

>  <SCORE.SYSTEM.norm>
0

>  <SCORE.heavy>
27

>  <SCORE.norm>
-0.225653

>  <RMSD>
6.925

$$$$
ligand
 OpenBabel11021811483D
libRbt.so/2013.1/901 2013/11/27
 27 29  0  0  0  0  0  0  0  0999 V2000
   15.2864   -7.8246    5.3167 N   0  0  0  0  0  0  0  0  0  0  0  0
   14.1666   -7.8056    6.2598 C   0  0  2  0  0  0  0  0  0  0  0  0
   13.6787   -9.1750    6.7391 C   0  0  0  0  0  0  0  0  0  0  0  0
   13.2113   -9.2738    7.8729 O   0  0  0  0  0  0  0  0  0  0  0  0
   13.0087   -6.9881    5.7123 C   0  0  0  0  0  0  0  0  0  0  0  0
   13.3689   -5.5169    5.5972 C   0  0  0  0  0  0  0  0  0  0  0  0
   13.2418   -4.7031    7.1993 S   0  0  2  0  0  0  0  0  0  0  0  0
   13.8934   -3.0738    6.7754 C   0  0  0  0  0  0  0  0  0  0  0  0
   14.6861   -5.3967    8.0369 C   0  0  0  0  0  0  0  0  0  0  0  0
   14.9281   -4.7015    9.3639 C   0  0  1  0  0  0  0  0  0  0  0  0
   13.7809   -4.7745   10.1792 O   0  0  0  0  0  0  0  0  0  0  0  0
   16.0311   -5.3526   10.1750 C   0  0  1  0  0  0  0  0  0  0  0  0
   17.2407   -4.6996    9.8829 O   0  0  0  0  0  0  0  0  0  0  0  0
   15.6103   -5.1042   11.6094 C   0  0  1  0  0  0  0  0  0  0  0  0
   16.3548   -4.0038   12.0815 O   0  0  0  0  0  0  0  0  0  0  0  0
   14.1190   -4.7658   11.5550 C   0  0  2  0  0  0  0  0  0  0  0  0
   13.7375  -10.1905    6.0405 O   0  0  0  0  0  0  0  0  0  0  0  0
   13.6597   -7.9521   15.6847 N   0  0  0  0  0  0  0  0  0  0  0  0
   14.6076   -6.9811   15.4704 C   0  0  0  0  0  0  0  0  0  0  0  0
   14.5623   -6.2403   14.3099 N   0  0  0  0  0  0  0  0  0  0  0  0
   13.6011   -6.4509   13.3829 C   0  0  0  0  0  0  0  0  0  0  0  0
   12.6289   -7.4184   13.5916 C   0  0  0  0  0  0  0  0  0  0  0  0
   12.6674   -8.1830   14.7558 C   0  0  0  0  0  0  0  0  0  0  0  0
   11.7549   -9.1266   14.9895 N   0  0  0  0  0  0  0  0  0  0  0  0
   11.7953   -7.4106   12.5196 N   0  0  0  0  0  0  0  0  0  0  0  0
   12.2175   -6.4527   11.6623 C   0  0  0  0  0  0  0  0  0  0  0  0
   13.3314   -5.8437   12.1857 N   0  0  0  0  0  0  0  0  0  0  0  0
  2  1  1  6  0  0  0
  2  3  1  0  0  0  0
  2  5  1  0  0  0  0
  3  4  1  0  0  0  0
  3 17  1  0  0  0  0
  5  6  1  0  0  0  0
  7  6  1  6  0  0  0
  7  8  1  0  0  0  0
  7  9  1  0  0  0  0
 10  9  1  6  0  0  0
 10 11  1  0  0  0  0
 10 12  1  0  0  0  0
 11 16  1  0  0  0  0
 12 13  1  6  0  0  0
 12 14  1  0  0  0  0
 14 15  1  6  0  0  0
 14 16  1  0  0  0  0
 16 27  1  1  0  0  0
 18 19  2  0  0  0  0
 18 23  1  0  0  0  0
 19 20  1  0  0  0  0
 20 21  2  0  0  0  0
 21 22  1  0  0  0  0
 21 27  1  0  0  0  0
 22 23  2  0  0  0  0
 22 25  1  0  0  0  0
 23 24  1  0  0  0  0
 25 26  2  0  0  0  0
 26 27  1  0  0  0  0
M  END
>  <CHROM.1>
148.62183884,-66.29294451,-79.82910602,173.98147955,171.46188008,56.06324116
159.89464756,13.96814849,-6.38993583,10.08527037,1.44793585,-1.11328992,-1.62888150

>  <Name>
ligand

>  <RI>
0

>  <Rbt.Current_Directory>
/home/itssahil/PROJECTS/Mol_Feturizer/New_Systems/rnas/3GX5

>  <Rbt.Executable>
rbdock ($Id: //depot/dev/client3/rdock/2013.1/src/exe/rbdock.cxx#4 $)

>  <Rbt.Library>
libRbt.so (2013.1, Build901 2013/11/27)

>  <Rbt.Parameter_File>
/export/apps/rDock/src/rDock_2013.1_src/data/scripts/dock_solv.prm

>  <Rbt.Receptor>
prm/pocket_docking_5.prm

>  <SCORE>
-14.1372

>  <SCORE.INTER>
-14.9402

>  <SCORE.INTER.CONST>
1

>  <SCORE.INTER.POLAR>
0

>  <SCORE.INTER.ROT>
7

>  <SCORE.INTER.SOLV>
8.13942

>  <SCORE.INTER.VDW>
-20.9399

>  <SCORE.INTER.norm>
-0.553341

>  <SCORE.INTRA>
0.803047

>  <SCORE.INTRA.DIHEDRAL>
0.841783

>  <SCORE.INTRA.DIHEDRAL.0>
4.28829

>  <SCORE.INTRA.POLAR>
0

>  <SCORE.INTRA.POLAR.0>
0

>  <SCORE.INTRA.REPUL>
0

>  <SCORE.INTRA.REPUL.0>
0

>  <SCORE.INTRA.SOLV>
0.499239

>  <SCORE.INTRA.SOLV.lig_0>
-48.6018

>  <SCORE.INTRA.VDW>
0.132536

>  <SCORE.INTRA.VDW.0>
-2.1506

>  <SCORE.INTRA.norm>
0.0297425

>  <SCORE.RESTR>
0

>  <SCORE.RESTR.CAVITY>
0

>  <SCORE.RESTR.norm>
0

>  <SCORE.SYSTEM>
0

>  <SCORE.SYSTEM.CONST>
0

>  <SCORE.SYSTEM.DIHEDRAL>
0

>  <SCORE.SYSTEM.SOLV>
0

>  <SCORE.SYSTEM.norm>
0

>  <SCORE.heavy>
27

>  <SCORE.norm>
-0.523599

>  <RMSD>
6.943

$$$$
ligand
 OpenBabel11021811483D
libRbt.so/2013.1/901 2013/11/27
 27 29  0  0  0  0  0  0  0  0999 V2000
   19.1919  -10.5164    3.6138 N   0  0  0  0  0  0  0  0  0  0  0  0
   17.8217  -10.0870    3.3271 C   0  0  2  0  0  0  0  0  0  0  0  0
   17.5706   -9.5710    1.9081 C   0  0  0  0  0  0  0  0  0  0  0  0
   18.5282   -9.1812    1.2413 O   0  0  0  0  0  0  0  0  0  0  0  0
   17.3428   -9.0760    4.3553 C   0  0  0  0  0  0  0  0  0  0  0  0
   15.8708   -8.7482    4.1728 C   0  0  0  0  0  0  0  0  0  0  0  0
   15.2913   -7.6663    5.4914 S   0  0  2  0  0  0  0  0  0  0  0  0
   14.9837   -8.8870    6.7854 C   0  0  0  0  0  0  0  0  0  0  0  0
   13.5926   -7.3670    4.9497 C   0  0  0  0  0  0  0  0  0  0  0  0
   12.8738   -6.4376    5.9101 C   0  0  1  0  0  0  0  0  0  0  0  0
   12.7196   -7.0487    7.1707 O   0  0  0  0  0  0  0  0  0  0  0  0
   13.6469   -5.1620    6.1816 C   0  0  1  0  0  0  0  0  0  0  0  0
   13.2109   -4.1785    5.2774 O   0  0  0  0  0  0  0  0  0  0  0  0
   13.2576   -4.8070    7.6024 C   0  0  1  0  0  0  0  0  0  0  0  0
   12.2654   -3.8079    7.5295 O   0  0  0  0  0  0  0  0  0  0  0  0
   12.6903   -6.0901    8.2134 C   0  0  2  0  0  0  0  0  0  0  0  0
   16.4466   -9.5222    1.4010 O   0  0  0  0  0  0  0  0  0  0  0  0
   14.0465  -10.1944   11.1686 N   0  0  0  0  0  0  0  0  0  0  0  0
   13.0796  -10.1400   10.1944 C   0  0  0  0  0  0  0  0  0  0  0  0
   12.8676   -8.9568    9.5213 N   0  0  0  0  0  0  0  0  0  0  0  0
   13.5959   -7.8529    9.8014 C   0  0  0  0  0  0  0  0  0  0  0  0
   14.5853   -7.8963   10.7729 C   0  0  0  0  0  0  0  0  0  0  0  0
   14.8046   -9.0828   11.4695 C   0  0  0  0  0  0  0  0  0  0  0  0
   15.7416   -9.1625   12.4147 N   0  0  0  0  0  0  0  0  0  0  0  0
   15.1579   -6.6667   10.8408 N   0  0  0  0  0  0  0  0  0  0  0  0
   14.5593   -5.8701    9.9256 C   0  0  0  0  0  0  0  0  0  0  0  0
   13.5938   -6.5919    9.2679 N   0  0  0  0  0  0  0  0  0  0  0  0
  2  1  1  6  0  0  0
  2  3  1  0  0  0  0
  2  5  1  0  0  0  0
  3  4  1  0  0  0  0
  3 17  1  0  0  0  0
  5  6  1  0  0  0  0
  7  6  1  6  0  0  0
  7  8  1  0  0  0  0
  7  9  1  0  0  0  0
 10  9  1  6  0  0  0
 10 11  1  0  0  0  0
 10 12  1  0  0  0  0
 11 16  1  0  0  0  0
 12 13  1  6  0  0  0
 12 14  1  0  0  0  0
 14 15  1  6  0  0  0
 14 16  1  0  0  0  0
 16 27  1  1  0  0  0
 18 19  2  0  0  0  0
 18 23  1  0  0  0  0
 19 20  1  0  0  0  0
 20 21  2  0  0  0  0
 21 22  1  0  0  0  0
 21 27  1  0  0  0  0
 22 23  2  0  0  0  0
 22 25  1  0  0  0  0
 23 24  1  0  0  0  0
 25 26  2  0  0  0  0
 26 27  1  0  0  0  0
M  END
>  <CHROM.1>
-20.77366202,-173.06587663,174.83388397,-81.99752728,-179.11191303,-65.48780249
-49.29869499,14.82212203,-7.76654786,6.86800437,-0.83554083,-0.88781248,1.94052408

>  <Name>
ligand

>  <RI>
0

>  <Rbt.Current_Directory>
/home/itssahil/PROJECTS/Mol_Feturizer/New_Systems/rnas/3GX5

>  <Rbt.Executable>
rbdock ($Id: //depot/dev/client3/rdock/2013.1/src/exe/rbdock.cxx#4 $)

>  <Rbt.Library>
libRbt.so (2013.1, Build901 2013/11/27)

>  <Rbt.Parameter_File>
/export/apps/rDock/src/rDock_2013.1_src/data/scripts/dock_solv.prm

>  <Rbt.Receptor>
prm/pocket_docking_7.prm

>  <SCORE>
-10.2641

>  <SCORE.INTER>
-10.1595

>  <SCORE.INTER.CONST>
1

>  <SCORE.INTER.POLAR>
0

>  <SCORE.INTER.ROT>
7

>  <SCORE.INTER.SOLV>
11.2414

>  <SCORE.INTER.VDW>
-18.7868

>  <SCORE.INTER.norm>
-0.376276

>  <SCORE.INTRA>
-0.104596

>  <SCORE.INTRA.DIHEDRAL>
0.205871

>  <SCORE.INTRA.DIHEDRAL.0>
4.28829

>  <SCORE.INTRA.POLAR>
0

>  <SCORE.INTRA.POLAR.0>
0

>  <SCORE.INTRA.REPUL>
0

>  <SCORE.INTRA.REPUL.0>
0

>  <SCORE.INTRA.SOLV>
-1.014

>  <SCORE.INTRA.SOLV.lig_0>
-48.6018

>  <SCORE.INTRA.VDW>
0.29947

>  <SCORE.INTRA.VDW.0>
-2.1506

>  <SCORE.INTRA.norm>
-0.00387392

>  <SCORE.RESTR>
0

>  <SCORE.RESTR.CAVITY>
0

>  <SCORE.RESTR.norm>
0

>  <SCORE.SYSTEM>
0

>  <SCORE.SYSTEM.CONST>
0

>  <SCORE.SYSTEM.DIHEDRAL>
0

>  <SCORE.SYSTEM.SOLV>
0

>  <SCORE.SYSTEM.norm>
0

>  <SCORE.heavy>
27

>  <SCORE.norm>
-0.38015

>  <RMSD>
6.943

$$$$
ligand
 OpenBabel11021811483D
libRbt.so/2013.1/901 2013/11/27
 27 29  0  0  0  0  0  0  0  0999 V2000
   14.3500  -10.2043    5.1525 N   0  0  0  0  0  0  0  0  0  0  0  0
   14.6559   -8.7885    4.9388 C   0  0  2  0  0  0  0  0  0  0  0  0
   13.8885   -8.1071    3.8032 C   0  0  0  0  0  0  0  0  0  0  0  0
   13.4351   -6.9784    3.9883 O   0  0  0  0  0  0  0  0  0  0  0  0
   16.1514   -8.5742    4.7762 C   0  0  0  0  0  0  0  0  0  0  0  0
   16.9194   -9.0444    5.9995 C   0  0  0  0  0  0  0  0  0  0  0  0
   16.7586   -7.8591    7.3465 S   0  0  2  0  0  0  0  0  0  0  0  0
   17.7939   -8.6576    8.5914 C   0  0  0  0  0  0  0  0  0  0  0  0
   15.1256   -8.3028    7.9830 C   0  0  0  0  0  0  0  0  0  0  0  0
   14.3637   -7.0678    8.4270 C   0  0  1  0  0  0  0  0  0  0  0  0
   13.0686   -7.4133    8.8624 O   0  0  0  0  0  0  0  0  0  0  0  0
   15.0072   -6.3757    9.6123 C   0  0  1  0  0  0  0  0  0  0  0  0
   15.8706   -5.3782    9.1280 O   0  0  0  0  0  0  0  0  0  0  0  0
   13.8312   -5.7676   10.3494 C   0  0  1  0  0  0  0  0  0  0  0  0
   13.7729   -4.4039    9.9960 O   0  0  0  0  0  0  0  0  0  0  0  0
   12.5923   -6.5111    9.8454 C   0  0  2  0  0  0  0  0  0  0  0  0
   13.6973   -8.6414    2.7074 O   0  0  0  0  0  0  0  0  0  0  0  0
   13.3840  -10.5205   13.1189 N   0  0  0  0  0  0  0  0  0  0  0  0
   14.2582  -10.0011   12.1952 C   0  0  0  0  0  0  0  0  0  0  0  0
   13.8617   -8.9353   11.4177 N   0  0  0  0  0  0  0  0  0  0  0  0
   12.6309   -8.3922   11.5511 C   0  0  0  0  0  0  0  0  0  0  0  0
   11.7422   -8.8968   12.4892 C   0  0  0  0  0  0  0  0  0  0  0  0
   12.1249   -9.9813   13.2759 C   0  0  0  0  0  0  0  0  0  0  0  0
   11.2968  -10.4987   14.1837 N   0  0  0  0  0  0  0  0  0  0  0  0
   10.5990   -8.1674   12.4160 N   0  0  0  0  0  0  0  0  0  0  0  0
   10.7646   -7.2153   11.4691 C   0  0  0  0  0  0  0  0  0  0  0  0
   12.0210   -7.3362   10.9283 N   0  0  0  0  0  0  0  0  0  0  0  0
  2  1  1  6  0  0  0
  2  3  1  0  0  0  0
  2  5  1  0  0  0  0
  3  4  1  0  0  0  0
  3 17  1  0  0  0  0
  5  6  1  0  0  0  0
  7  6  1  6  0  0  0
  7  8  1  0  0  0  0
  7  9  1  0  0  0  0
 10  9  1  1  0  0  0
 10 11  1  0  0  0  0
 10 12  1  0  0  0  0
 11 16  1  0  0  0  0
 12 13  1  6  0  0  0
 12 14  1  0  0  0  0
 14 15  1  6  0  0  0
 14 16  1  0  0  0  0
 16 27  1  1  0  0  0
 18 19  2  0  0  0  0
 18 23  1  0  0  0  0
 19 20  1  0  0  0  0
 20 21  2  0  0  0  0
 21 22  1  0  0  0  0
 21 27  1  0  0  0  0
 22 23  2  0  0  0  0
 22 25  1  0  0  0  0
 23 24  1  0  0  0  0
 25 26  2  0  0  0  0
 26 27  1  0  0  0  0
M  END
>  <CHROM.1>
137.18260198,-59.35193484,-76.36859909,-178.30206049,-143.04019868,177.20493700
50.37414091,14.03510520,-8.02152633,8.87455595,1.17089046,-0.31670982,-1.63344902

>  <Name>
ligand

>  <RI>
0

>  <Rbt.Current_Directory>
/home/itssahil/PROJECTS/Mol_Feturizer/New_Systems/rnas/3GX5

>  <Rbt.Executable>
rbdock ($Id: //depot/dev/client3/rdock/2013.1/src/exe/rbdock.cxx#4 $)

>  <Rbt.Library>
libRbt.so (2013.1, Build901 2013/11/27)

>  <Rbt.Parameter_File>
/export/apps/rDock/src/rDock_2013.1_src/data/scripts/dock_solv.prm

>  <Rbt.Receptor>
prm/pocket_docking_6.prm

>  <SCORE>
-5.5349

>  <SCORE.INTER>
-6.77315

>  <SCORE.INTER.CONST>
1

>  <SCORE.INTER.POLAR>
0

>  <SCORE.INTER.ROT>
7

>  <SCORE.INTER.SOLV>
10.2028

>  <SCORE.INTER.VDW>
-16.183

>  <SCORE.INTER.norm>
-0.250857

>  <SCORE.INTRA>
1.23825

>  <SCORE.INTRA.DIHEDRAL>
4.23556

>  <SCORE.INTRA.DIHEDRAL.0>
4.28829

>  <SCORE.INTRA.POLAR>
0

>  <SCORE.INTRA.POLAR.0>
0

>  <SCORE.INTRA.REPUL>
0

>  <SCORE.INTRA.REPUL.0>
0

>  <SCORE.INTRA.SOLV>
1.13024

>  <SCORE.INTRA.SOLV.lig_0>
-48.6018

>  <SCORE.INTRA.VDW>
-1.44465

>  <SCORE.INTRA.VDW.0>
-2.1506

>  <SCORE.INTRA.norm>
0.0458613

>  <SCORE.RESTR>
0

>  <SCORE.RESTR.CAVITY>
0

>  <SCORE.RESTR.norm>
0

>  <SCORE.SYSTEM>
0

>  <SCORE.SYSTEM.CONST>
0

>  <SCORE.SYSTEM.DIHEDRAL>
0

>  <SCORE.SYSTEM.SOLV>
0

>  <SCORE.SYSTEM.norm>
0

>  <SCORE.heavy>
27

>  <SCORE.norm>
-0.204996

>  <RMSD>
6.984

$$$$
ligand
 OpenBabel11021811483D
libRbt.so/2013.1/901 2013/11/27
 27 29  0  0  0  0  0  0  0  0999 V2000
   12.9985   -8.0700    3.5579 N   0  0  0  0  0  0  0  0  0  0  0  0
   14.0399   -7.6364    4.4913 C   0  0  2  0  0  0  0  0  0  0  0  0
   14.6584   -8.7383    5.3550 C   0  0  0  0  0  0  0  0  0  0  0  0
   15.8835   -8.8470    5.3888 O   0  0  0  0  0  0  0  0  0  0  0  0
   13.5485   -6.4902    5.3595 C   0  0  0  0  0  0  0  0  0  0  0  0
   14.6951   -5.8081    6.0857 C   0  0  0  0  0  0  0  0  0  0  0  0
   14.0845   -4.8586    7.4895 S   0  0  2  0  0  0  0  0  0  0  0  0
   14.1368   -3.1956    6.7891 C   0  0  0  0  0  0  0  0  0  0  0  0
   15.5700   -4.7991    8.5183 C   0  0  0  0  0  0  0  0  0  0  0  0
   15.2406   -4.3117    9.9173 C   0  0  1  0  0  0  0  0  0  0  0  0
   14.0155   -4.8529   10.3559 O   0  0  0  0  0  0  0  0  0  0  0  0
   16.2598   -4.7549   10.9483 C   0  0  1  0  0  0  0  0  0  0  0  0
   17.2260   -3.7429   11.0800 O   0  0  0  0  0  0  0  0  0  0  0  0
   15.4427   -4.8965   12.2166 C   0  0  1  0  0  0  0  0  0  0  0  0
   15.6514   -3.7320   12.9836 O   0  0  0  0  0  0  0  0  0  0  0  0
   13.9838   -4.9934   11.7653 C   0  0  2  0  0  0  0  0  0  0  0  0
   13.9828   -9.5300    6.0178 O   0  0  0  0  0  0  0  0  0  0  0  0
   15.0314  -10.1235   11.8240 N   0  0  0  0  0  0  0  0  0  0  0  0
   15.8814   -9.0931   11.5031 C   0  0  0  0  0  0  0  0  0  0  0  0
   15.4152   -7.7975   11.5453 N   0  0  0  0  0  0  0  0  0  0  0  0
   14.1393   -7.5247   11.8993 C   0  0  0  0  0  0  0  0  0  0  0  0
   13.2732   -8.5536   12.2394 C   0  0  0  0  0  0  0  0  0  0  0  0
   13.7270   -9.8700   12.1916 C   0  0  0  0  0  0  0  0  0  0  0  0
   12.9231  -10.8865   12.5048 N   0  0  0  0  0  0  0  0  0  0  0  0
   12.0740   -8.0016   12.5578 N   0  0  0  0  0  0  0  0  0  0  0  0
   12.1817   -6.6581   12.4392 C   0  0  0  0  0  0  0  0  0  0  0  0
   13.4574   -6.3455   12.0388 N   0  0  0  0  0  0  0  0  0  0  0  0
  2  1  1  1  0  0  0
  2  3  1  0  0  0  0
  2  5  1  0  0  0  0
  3  4  1  0  0  0  0
  3 17  1  0  0  0  0
  5  6  1  0  0  0  0
  7  6  1  6  0  0  0
  7  8  1  0  0  0  0
  7  9  1  0  0  0  0
 10  9  1  6  0  0  0
 10 11  1  0  0  0  0
 10 12  1  0  0  0  0
 11 16  1  0  0  0  0
 12 13  1  1  0  0  0
 12 14  1  0  0  0  0
 14 15  1  1  0  0  0
 14 16  1  0  0  0  0
 16 27  1  6  0  0  0
 18 19  2  0  0  0  0
 18 23  1  0  0  0  0
 19 20  1  0  0  0  0
 20 21  2  0  0  0  0
 21 22  1  0  0  0  0
 21 27  1  0  0  0  0
 22 23  2  0  0  0  0
 22 25  1  0  0  0  0
 23 24  1  0  0  0  0
 25 26  2  0  0  0  0
 26 27  1  0  0  0  0
M  END
>  <CHROM.1>
128.41183778,-166.14071428,-160.99213880,-101.82285514,-167.33112274,39.41597488
75.40658284,14.44040629,-6.67157216,9.43411427,1.66129127,-1.32394320,-1.52378919

>  <Name>
ligand

>  <RI>
0

>  <Rbt.Current_Directory>
/home/itssahil/PROJECTS/Mol_Feturizer/New_Systems/rnas/3GX5

>  <Rbt.Executable>
rbdock ($Id: //depot/dev/client3/rdock/2013.1/src/exe/rbdock.cxx#4 $)

>  <Rbt.Library>
libRbt.so (2013.1, Build901 2013/11/27)

>  <Rbt.Parameter_File>
/export/apps/rDock/src/rDock_2013.1_src/data/scripts/dock_solv.prm

>  <Rbt.Receptor>
prm/pocket_docking_3.prm

>  <SCORE>
-6.2145

>  <SCORE.INTER>
-8.12863

>  <SCORE.INTER.CONST>
1

>  <SCORE.INTER.POLAR>
0

>  <SCORE.INTER.ROT>
7

>  <SCORE.INTER.SOLV>
19.8035

>  <SCORE.INTER.VDW>
-20.2869

>  <SCORE.INTER.norm>
-0.301061

>  <SCORE.INTRA>
1.91414

>  <SCORE.INTRA.DIHEDRAL>
6.0227

>  <SCORE.INTRA.DIHEDRAL.0>
4.28829

>  <SCORE.INTRA.POLAR>
0

>  <SCORE.INTRA.POLAR.0>
0

>  <SCORE.INTRA.REPUL>
0

>  <SCORE.INTRA.REPUL.0>
0

>  <SCORE.INTRA.SOLV>
-1.23586

>  <SCORE.INTRA.SOLV.lig_0>
-48.6018

>  <SCORE.INTRA.VDW>
-0.479281

>  <SCORE.INTRA.VDW.0>
-2.1506

>  <SCORE.INTRA.norm>
0.070894

>  <SCORE.RESTR>
0

>  <SCORE.RESTR.CAVITY>
0

>  <SCORE.RESTR.norm>
0

>  <SCORE.SYSTEM>
0

>  <SCORE.SYSTEM.CONST>
0

>  <SCORE.SYSTEM.DIHEDRAL>
0

>  <SCORE.SYSTEM.SOLV>
0

>  <SCORE.SYSTEM.norm>
0

>  <SCORE.heavy>
27

>  <SCORE.norm>
-0.230166

>  <RMSD>
6.996

$$$$
ligand
 OpenBabel11021811483D
libRbt.so/2013.1/901 2013/11/27
 27 29  0  0  0  0  0  0  0  0999 V2000
   15.4219   -3.4903    7.9534 N   0  0  0  0  0  0  0  0  0  0  0  0
   14.6378   -3.8171    6.7608 C   0  0  2  0  0  0  0  0  0  0  0  0
   13.1176   -3.7886    6.9370 C   0  0  0  0  0  0  0  0  0  0  0  0
   12.4068   -3.6987    5.9368 O   0  0  0  0  0  0  0  0  0  0  0  0
   15.0813   -5.1428    6.1653 C   0  0  0  0  0  0  0  0  0  0  0  0
   14.9734   -6.2727    7.1749 C   0  0  0  0  0  0  0  0  0  0  0  0
   15.4173   -7.8464    6.4190 S   0  0  2  0  0  0  0  0  0  0  0  0
   15.4903   -8.8906    7.8898 C   0  0  0  0  0  0  0  0  0  0  0  0
   17.1857   -7.5920    6.1420 C   0  0  0  0  0  0  0  0  0  0  0  0
   17.8574   -8.8828    5.7111 C   0  0  1  0  0  0  0  0  0  0  0  0
   17.2016   -9.4343    4.5922 O   0  0  0  0  0  0  0  0  0  0  0  0
   19.2922   -8.6777    5.2664 C   0  0  1  0  0  0  0  0  0  0  0  0
   20.1333   -8.8874    6.3725 O   0  0  0  0  0  0  0  0  0  0  0  0
   19.4949   -9.7513    4.2164 C   0  0  1  0  0  0  0  0  0  0  0  0
   20.1785  -10.8191    4.8332 O   0  0  0  0  0  0  0  0  0  0  0  0
   18.0921  -10.1837    3.7844 C   0  0  2  0  0  0  0  0  0  0  0  0
   12.5689   -3.8462    8.0408 O   0  0  0  0  0  0  0  0  0  0  0  0
   14.5528   -8.3996    0.3627 N   0  0  0  0  0  0  0  0  0  0  0  0
   14.3771   -8.6559    1.7008 C   0  0  0  0  0  0  0  0  0  0  0  0
   15.4388   -9.1275    2.4412 N   0  0  0  0  0  0  0  0  0  0  0  0
   16.6477   -9.3385    1.8743 C   0  0  0  0  0  0  0  0  0  0  0  0
   16.8442   -9.0710    0.5273 C   0  0  0  0  0  0  0  0  0  0  0  0
   15.7773   -8.6035   -0.2372 C   0  0  0  0  0  0  0  0  0  0  0  0
   15.9247   -8.3412   -1.5361 N   0  0  0  0  0  0  0  0  0  0  0  0
   18.1370   -9.3603    0.2285 N   0  0  0  0  0  0  0  0  0  0  0  0
   18.7480   -9.7836    1.3590 C   0  0  0  0  0  0  0  0  0  0  0  0
   17.8409   -9.7691    2.3898 N   0  0  0  0  0  0  0  0  0  0  0  0
  2  1  1  1  0  0  0
  2  3  1  0  0  0  0
  2  5  1  0  0  0  0
  3  4  1  0  0  0  0
  3 17  1  0  0  0  0
  5  6  1  0  0  0  0
  7  6  1  1  0  0  0
  7  8  1  0  0  0  0
  7  9  1  0  0  0  0
 10  9  1  6  0  0  0
 10 11  1  0  0  0  0
 10 12  1  0  0  0  0
 11 16  1  0  0  0  0
 12 13  1  1  0  0  0
 12 14  1  0  0  0  0
 14 15  1  1  0  0  0
 14 16  1  0  0  0  0
 16 27  1  6  0  0  0
 18 19  2  0  0  0  0
 18 23  1  0  0  0  0
 19 20  1  0  0  0  0
 20 21  2  0  0  0  0
 21 22  1  0  0  0  0
 21 27  1  0  0  0  0
 22 23  2  0  0  0  0
 22 25  1  0  0  0  0
 23 24  1  0  0  0  0
 25 26  2  0  0  0  0
 26 27  1  0  0  0  0
M  END
>  <CHROM.1>
160.92660247,57.32906771,176.86316683,170.09318510,170.60613719,53.97244459
-30.32784511,16.35207295,-7.80594248,4.40878463,-2.16911930,0.66997026,-1.89120608

>  <Name>
ligand

>  <RI>
0

>  <Rbt.Current_Directory>
/home/itssahil/PROJECTS/Mol_Feturizer/New_Systems/rnas/3GX5

>  <Rbt.Executable>
rbdock ($Id: //depot/dev/client3/rdock/2013.1/src/exe/rbdock.cxx#4 $)

>  <Rbt.Library>
libRbt.so (2013.1, Build901 2013/11/27)

>  <Rbt.Parameter_File>
/export/apps/rDock/src/rDock_2013.1_src/data/scripts/dock_solv.prm

>  <Rbt.Receptor>
prm/pocket_docking_7.prm

>  <SCORE>
-16.2226

>  <SCORE.INTER>
-16.0119

>  <SCORE.INTER.CONST>
1

>  <SCORE.INTER.POLAR>
0

>  <SCORE.INTER.ROT>
7

>  <SCORE.INTER.SOLV>
10.1598

>  <SCORE.INTER.VDW>
-22.3278

>  <SCORE.INTER.norm>
-0.593032

>  <SCORE.INTRA>
-0.210766

>  <SCORE.INTRA.DIHEDRAL>
-0.691538

>  <SCORE.INTRA.DIHEDRAL.0>
4.28829

>  <SCORE.INTRA.POLAR>
0

>  <SCORE.INTRA.POLAR.0>
0

>  <SCORE.INTRA.REPUL>
0

>  <SCORE.INTRA.REPUL.0>
0

>  <SCORE.INTRA.SOLV>
-0.539777

>  <SCORE.INTRA.SOLV.lig_0>
-48.6018

>  <SCORE.INTRA.VDW>
0.404891

>  <SCORE.INTRA.VDW.0>
-2.1506

>  <SCORE.INTRA.norm>
-0.00780614

>  <SCORE.RESTR>
0

>  <SCORE.RESTR.CAVITY>
0

>  <SCORE.RESTR.norm>
0

>  <SCORE.SYSTEM>
0

>  <SCORE.SYSTEM.CONST>
0

>  <SCORE.SYSTEM.DIHEDRAL>
0

>  <SCORE.SYSTEM.SOLV>
0

>  <SCORE.SYSTEM.norm>
0

>  <SCORE.heavy>
27

>  <SCORE.norm>
-0.600838

>  <RMSD>
7.060

$$$$
ligand
 OpenBabel11021811483D
libRbt.so/2013.1/901 2013/11/27
 27 29  0  0  0  0  0  0  0  0999 V2000
   18.7627   -8.4653    5.6577 N   0  0  0  0  0  0  0  0  0  0  0  0
   17.3488   -8.1874    5.9171 C   0  0  2  0  0  0  0  0  0  0  0  0
   16.8989   -6.7456    5.6690 C   0  0  0  0  0  0  0  0  0  0  0  0
   17.7547   -5.8817    5.4821 O   0  0  0  0  0  0  0  0  0  0  0  0
   16.9540   -8.6369    7.3139 C   0  0  0  0  0  0  0  0  0  0  0  0
   15.4525   -8.8332    7.4340 C   0  0  0  0  0  0  0  0  0  0  0  0
   14.8686   -8.3023    9.0534 S   0  0  2  0  0  0  0  0  0  0  0  0
   13.1062   -8.6532    8.8812 C   0  0  0  0  0  0  0  0  0  0  0  0
   14.8428   -6.5093    8.8231 C   0  0  0  0  0  0  0  0  0  0  0  0
   14.5220   -5.8006   10.1261 C   0  0  1  0  0  0  0  0  0  0  0  0
   13.2107   -6.1021   10.5455 O   0  0  0  0  0  0  0  0  0  0  0  0
   15.4137   -6.2428   11.2697 C   0  0  1  0  0  0  0  0  0  0  0  0
   16.5113   -5.3680   11.3397 O   0  0  0  0  0  0  0  0  0  0  0  0
   14.5245   -6.1002   12.4883 C   0  0  1  0  0  0  0  0  0  0  0  0
   14.8657   -4.8857   13.1181 O   0  0  0  0  0  0  0  0  0  0  0  0
   13.0907   -6.0500   11.9561 C   0  0  2  0  0  0  0  0  0  0  0  0
   15.7126   -6.4062    5.6532 O   0  0  0  0  0  0  0  0  0  0  0  0
   13.3707  -11.2201   12.7373 N   0  0  0  0  0  0  0  0  0  0  0  0
   14.3787  -10.3699   12.3523 C   0  0  0  0  0  0  0  0  0  0  0  0
   14.1058   -9.0286   12.1967 N   0  0  0  0  0  0  0  0  0  0  0  0
   12.8662   -8.5369   12.4190 C   0  0  0  0  0  0  0  0  0  0  0  0
   11.8415   -9.3808   12.8217 C   0  0  0  0  0  0  0  0  0  0  0  0
   12.0994  -10.7416   12.9735 C   0  0  0  0  0  0  0  0  0  0  0  0
   11.1394  -11.5856   13.3525 N   0  0  0  0  0  0  0  0  0  0  0  0
   10.7205   -8.6307   12.9793 N   0  0  0  0  0  0  0  0  0  0  0  0
   11.0302   -7.3434   12.7005 C   0  0  0  0  0  0  0  0  0  0  0  0
   12.3578   -7.2670   12.3585 N   0  0  0  0  0  0  0  0  0  0  0  0
  2  1  1  1  0  0  0
  2  3  1  0  0  0  0
  2  5  1  0  0  0  0
  3  4  1  0  0  0  0
  3 17  1  0  0  0  0
  5  6  1  0  0  0  0
  7  6  1  6  0  0  0
  7  8  1  0  0  0  0
  7  9  1  0  0  0  0
 10  9  1  6  0  0  0
 10 11  1  0  0  0  0
 10 12  1  0  0  0  0
 11 16  1  0  0  0  0
 12 13  1  1  0  0  0
 12 14  1  0  0  0  0
 14 15  1  6  0  0  0
 14 16  1  0  0  0  0
 16 27  1  1  0  0  0
 18 19  2  0  0  0  0
 18 23  1  0  0  0  0
 19 20  1  0  0  0  0
 20 21  2  0  0  0  0
 21 22  1  0  0  0  0
 21 27  1  0  0  0  0
 22 23  2  0  0  0  0
 22 25  1  0  0  0  0
 23 24  1  0  0  0  0
 25 26  2  0  0  0  0
 26 27  1  0  0  0  0
M  END
>  <CHROM.1>
-11.26230910,-159.33167097,-142.85543192,179.98692548,-173.67288235,-65.50848842
75.83021695,14.44164266,-7.78130681,10.15648310,0.15950657,-0.95271756,-2.68751587

>  <Name>
ligand

>  <RI>
0

>  <Rbt.Current_Directory>
/home/itssahil/PROJECTS/Mol_Feturizer/New_Systems/rnas/3GX5

>  <Rbt.Executable>
rbdock ($Id: //depot/dev/client3/rdock/2013.1/src/exe/rbdock.cxx#4 $)

>  <Rbt.Library>
libRbt.so (2013.1, Build901 2013/11/27)

>  <Rbt.Parameter_File>
/export/apps/rDock/src/rDock_2013.1_src/data/scripts/dock_solv.prm

>  <Rbt.Receptor>
prm/pocket_docking_5.prm

>  <SCORE>
-4.66826

>  <SCORE.INTER>
-4.88556

>  <SCORE.INTER.CONST>
1

>  <SCORE.INTER.POLAR>
0

>  <SCORE.INTER.ROT>
7

>  <SCORE.INTER.SOLV>
12.1172

>  <SCORE.INTER.VDW>
-15.5628

>  <SCORE.INTER.norm>
-0.180947

>  <SCORE.INTRA>
0.217302

>  <SCORE.INTRA.DIHEDRAL>
5.20032

>  <SCORE.INTRA.DIHEDRAL.0>
4.28829

>  <SCORE.INTRA.POLAR>
0

>  <SCORE.INTRA.POLAR.0>
0

>  <SCORE.INTRA.REPUL>
0

>  <SCORE.INTRA.REPUL.0>
0

>  <SCORE.INTRA.SOLV>
-0.909073

>  <SCORE.INTRA.SOLV.lig_0>
-48.6018

>  <SCORE.INTRA.VDW>
-1.92832

>  <SCORE.INTRA.VDW.0>
-2.1506

>  <SCORE.INTRA.norm>
0.00804823

>  <SCORE.RESTR>
0

>  <SCORE.RESTR.CAVITY>
0

>  <SCORE.RESTR.norm>
0

>  <SCORE.SYSTEM>
0

>  <SCORE.SYSTEM.CONST>
0

>  <SCORE.SYSTEM.DIHEDRAL>
0

>  <SCORE.SYSTEM.SOLV>
0

>  <SCORE.SYSTEM.norm>
0

>  <SCORE.heavy>
27

>  <SCORE.norm>
-0.172898

>  <RMSD>
7.082

$$$$
ligand
 OpenBabel11021811483D
libRbt.so/2013.1/901 2013/11/27
 27 29  0  0  0  0  0  0  0  0999 V2000
   14.8912   -3.7227    8.2556 N   0  0  0  0  0  0  0  0  0  0  0  0
   14.4449   -3.7338    6.8611 C   0  0  2  0  0  0  0  0  0  0  0  0
   12.9432   -3.5334    6.6428 C   0  0  0  0  0  0  0  0  0  0  0  0
   12.5111   -3.5010    5.4913 O   0  0  0  0  0  0  0  0  0  0  0  0
   14.9259   -4.9855    6.1466 C   0  0  0  0  0  0  0  0  0  0  0  0
   14.4929   -6.2460    6.8753 C   0  0  0  0  0  0  0  0  0  0  0  0
   15.0154   -7.7147    5.9725 S   0  0  2  0  0  0  0  0  0  0  0  0
   14.8876   -8.9497    7.2830 C   0  0  0  0  0  0  0  0  0  0  0  0
   16.8071   -7.4735    5.9595 C   0  0  0  0  0  0  0  0  0  0  0  0
   17.5235   -8.7572    5.5825 C   0  0  1  0  0  0  0  0  0  0  0  0
   16.9225   -9.3477    4.4527 O   0  0  0  0  0  0  0  0  0  0  0  0
   18.9688   -8.5281    5.1864 C   0  0  1  0  0  0  0  0  0  0  0  0
   19.7726   -8.6943    6.3271 O   0  0  0  0  0  0  0  0  0  0  0  0
   19.2348   -9.6189    4.1687 C   0  0  1  0  0  0  0  0  0  0  0  0
   19.9188  -10.6570    4.8339 O   0  0  0  0  0  0  0  0  0  0  0  0
   17.8592  -10.0932    3.6952 C   0  0  2  0  0  0  0  0  0  0  0  0
   12.1424   -3.3967    7.5716 O   0  0  0  0  0  0  0  0  0  0  0  0
   14.4746   -8.2311    0.1603 N   0  0  0  0  0  0  0  0  0  0  0  0
   14.2667   -8.4293    1.5036 C   0  0  0  0  0  0  0  0  0  0  0  0
   15.2894   -8.9345    2.2760 N   0  0  0  0  0  0  0  0  0  0  0  0
   16.4915   -9.2347    1.7352 C   0  0  0  0  0  0  0  0  0  0  0  0
   16.7209   -9.0269    0.3828 C   0  0  0  0  0  0  0  0  0  0  0  0
   15.6931   -8.5262   -0.4135 C   0  0  0  0  0  0  0  0  0  0  0  0
   15.8725   -8.3191   -1.7183 N   0  0  0  0  0  0  0  0  0  0  0  0
   17.9985   -9.4005    0.1139 N   0  0  0  0  0  0  0  0  0  0  0  0
   18.5691   -9.8177    1.2676 C   0  0  0  0  0  0  0  0  0  0  0  0
   17.6508   -9.7146    2.2834 N   0  0  0  0  0  0  0  0  0  0  0  0
  2  1  1  1  0  0  0
  2  3  1  0  0  0  0
  2  5  1  0  0  0  0
  3  4  1  0  0  0  0
  3 17  1  0  0  0  0
  5  6  1  0  0  0  0
  7  6  1  1  0  0  0
  7  8  1  0  0  0  0
  7  9  1  0  0  0  0
 10  9  1  6  0  0  0
 10 11  1  0  0  0  0
 10 12  1  0  0  0  0
 11 16  1  0  0  0  0
 12 13  1  1  0  0  0
 12 14  1  0  0  0  0
 14 15  1  1  0  0  0
 14 16  1  0  0  0  0
 16 27  1  6  0  0  0
 18 19  2  0  0  0  0
 18 23  1  0  0  0  0
 19 20  1  0  0  0  0
 20 21  2  0  0  0  0
 21 22  1  0  0  0  0
 21 27  1  0  0  0  0
 22 23  2  0  0  0  0
 22 25  1  0  0  0  0
 23 24  1  0  0  0  0
 25 26  2  0  0  0  0
 26 27  1  0  0  0  0
M  END
>  <CHROM.1>
178.28726262,55.23006378,177.62671223,161.72993396,164.70229157,46.80859510
-25.45846004,16.09820095,-7.69585302,4.22864938,-2.19395356,0.68599118,-1.88279840

>  <Name>
ligand

>  <RI>
0

>  <Rbt.Current_Directory>
/home/itssahil/PROJECTS/Mol_Feturizer/New_Systems/rnas/3GX5

>  <Rbt.Executable>
rbdock ($Id: //depot/dev/client3/rdock/2013.1/src/exe/rbdock.cxx#4 $)

>  <Rbt.Library>
libRbt.so (2013.1, Build901 2013/11/27)

>  <Rbt.Parameter_File>
/export/apps/rDock/src/rDock_2013.1_src/data/scripts/dock_solv.prm

>  <Rbt.Receptor>
prm/pocket_docking_7.prm

>  <SCORE>
-16.5877

>  <SCORE.INTER>
-17.3058

>  <SCORE.INTER.CONST>
1

>  <SCORE.INTER.POLAR>
0

>  <SCORE.INTER.ROT>
7

>  <SCORE.INTER.SOLV>
10.0106

>  <SCORE.INTER.VDW>
-23.1407

>  <SCORE.INTER.norm>
-0.640955

>  <SCORE.INTRA>
0.718072

>  <SCORE.INTRA.DIHEDRAL>
0.176767

>  <SCORE.INTRA.DIHEDRAL.0>
4.28829

>  <SCORE.INTRA.POLAR>
0

>  <SCORE.INTRA.POLAR.0>
0

>  <SCORE.INTRA.REPUL>
0

>  <SCORE.INTRA.REPUL.0>
0

>  <SCORE.INTRA.SOLV>
-0.478368

>  <SCORE.INTRA.SOLV.lig_0>
-48.6018

>  <SCORE.INTRA.VDW>
0.868872

>  <SCORE.INTRA.VDW.0>
-2.1506

>  <SCORE.INTRA.norm>
0.0265952

>  <SCORE.RESTR>
0

>  <SCORE.RESTR.CAVITY>
0

>  <SCORE.RESTR.norm>
0

>  <SCORE.SYSTEM>
0

>  <SCORE.SYSTEM.CONST>
0

>  <SCORE.SYSTEM.DIHEDRAL>
0

>  <SCORE.SYSTEM.SOLV>
0

>  <SCORE.SYSTEM.norm>
0

>  <SCORE.heavy>
27

>  <SCORE.norm>
-0.61436

>  <RMSD>
7.084

$$$$
ligand
 OpenBabel11021811483D
libRbt.so/2013.1/901 2013/11/27
 27 29  0  0  0  0  0  0  0  0999 V2000
   13.0638   -7.8976    3.9617 N   0  0  0  0  0  0  0  0  0  0  0  0
   14.1914   -7.8144    4.8921 C   0  0  2  0  0  0  0  0  0  0  0  0
   14.3615   -9.0059    5.8377 C   0  0  0  0  0  0  0  0  0  0  0  0
   13.3662   -9.6536    6.1595 O   0  0  0  0  0  0  0  0  0  0  0  0
   14.1551   -6.5126    5.6749 C   0  0  0  0  0  0  0  0  0  0  0  0
   12.8470   -6.3511    6.4300 C   0  0  0  0  0  0  0  0  0  0  0  0
   12.9997   -5.0877    7.7050 S   0  0  2  0  0  0  0  0  0  0  0  0
   13.6620   -3.7275    6.7201 C   0  0  0  0  0  0  0  0  0  0  0  0
   14.5157   -5.6305    8.5271 C   0  0  0  0  0  0  0  0  0  0  0  0
   14.7312   -4.8701    9.8226 C   0  0  1  0  0  0  0  0  0  0  0  0
   13.7115   -5.1680   10.7487 O   0  0  0  0  0  0  0  0  0  0  0  0
   16.0219   -5.2525   10.5198 C   0  0  1  0  0  0  0  0  0  0  0  0
   17.0288   -4.3630   10.1074 O   0  0  0  0  0  0  0  0  0  0  0  0
   15.6997   -5.0675   11.9888 C   0  0  1  0  0  0  0  0  0  0  0  0
   16.2330   -3.8233   12.3831 O   0  0  0  0  0  0  0  0  0  0  0  0
   14.1724   -5.0566   12.0837 C   0  0  2  0  0  0  0  0  0  0  0  0
   15.4543   -9.3456    6.2991 O   0  0  0  0  0  0  0  0  0  0  0  0
   10.9800   -9.2040   11.9246 N   0  0  0  0  0  0  0  0  0  0  0  0
   11.1586   -8.2402   10.9620 C   0  0  0  0  0  0  0  0  0  0  0  0
   12.0514   -7.2166   11.1915 N   0  0  0  0  0  0  0  0  0  0  0  0
   12.7546   -7.1473   12.3441 C   0  0  0  0  0  0  0  0  0  0  0  0
   12.5953   -8.1208   13.3195 C   0  0  0  0  0  0  0  0  0  0  0  0
   11.6883   -9.1568   13.1065 C   0  0  0  0  0  0  0  0  0  0  0  0
   11.5022  -10.1074   14.0226 N   0  0  0  0  0  0  0  0  0  0  0  0
   13.4190   -7.8134   14.3545 N   0  0  0  0  0  0  0  0  0  0  0  0
   14.0947   -6.6851   14.0368 C   0  0  0  0  0  0  0  0  0  0  0  0
   13.6999   -6.2633   12.7911 N   0  0  0  0  0  0  0  0  0  0  0  0
  2  1  1  1  0  0  0
  2  3  1  0  0  0  0
  2  5  1  0  0  0  0
  3  4  1  0  0  0  0
  3 17  1  0  0  0  0
  5  6  1  0  0  0  0
  7  6  1  6  0  0  0
  7  8  1  0  0  0  0
  7  9  1  0  0  0  0
 10  9  1  6  0  0  0
 10 11  1  0  0  0  0
 10 12  1  0  0  0  0
 11 16  1  0  0  0  0
 12 13  1  6  0  0  0
 12 14  1  0  0  0  0
 14 15  1  6  0  0  0
 14 16  1  0  0  0  0
 16 27  1  1  0  0  0
 18 19  2  0  0  0  0
 18 23  1  0  0  0  0
 19 20  1  0  0  0  0
 20 21  2  0  0  0  0
 21 22  1  0  0  0  0
 21 27  1  0  0  0  0
 22 23  2  0  0  0  0
 22 25  1  0  0  0  0
 23 24  1  0  0  0  0
 25 26  2  0  0  0  0
 26 27  1  0  0  0  0
M  END
>  <CHROM.1>
-28.24279777,57.01819413,163.36501072,51.91181222,-169.32032427,64.95444012
-13.75766608,13.72644400,-6.71586602,9.74059154,1.40341688,-0.98274226,-1.70284342

>  <Name>
ligand

>  <RI>
0

>  <Rbt.Current_Directory>
/home/itssahil/PROJECTS/Mol_Feturizer/New_Systems/rnas/3GX5

>  <Rbt.Executable>
rbdock ($Id: //depot/dev/client3/rdock/2013.1/src/exe/rbdock.cxx#4 $)

>  <Rbt.Library>
libRbt.so (2013.1, Build901 2013/11/27)

>  <Rbt.Parameter_File>
/export/apps/rDock/src/rDock_2013.1_src/data/scripts/dock_solv.prm

>  <Rbt.Receptor>
prm/pocket_docking_5.prm

>  <SCORE>
-9.93227

>  <SCORE.INTER>
-12.157

>  <SCORE.INTER.CONST>
1

>  <SCORE.INTER.POLAR>
0

>  <SCORE.INTER.ROT>
7

>  <SCORE.INTER.SOLV>
13.0764

>  <SCORE.INTER.VDW>
-20.7301

>  <SCORE.INTER.norm>
-0.45026

>  <SCORE.INTRA>
2.22473

>  <SCORE.INTRA.DIHEDRAL>
1.26806

>  <SCORE.INTRA.DIHEDRAL.0>
4.28829

>  <SCORE.INTRA.POLAR>
0

>  <SCORE.INTRA.POLAR.0>
0

>  <SCORE.INTRA.REPUL>
0

>  <SCORE.INTRA.REPUL.0>
0

>  <SCORE.INTRA.SOLV>
-0.553417

>  <SCORE.INTRA.SOLV.lig_0>
-48.6018

>  <SCORE.INTRA.VDW>
1.86742

>  <SCORE.INTRA.VDW.0>
-2.1506

>  <SCORE.INTRA.norm>
0.0823976

>  <SCORE.RESTR>
0

>  <SCORE.RESTR.CAVITY>
0

>  <SCORE.RESTR.norm>
0

>  <SCORE.SYSTEM>
0

>  <SCORE.SYSTEM.CONST>
0

>  <SCORE.SYSTEM.DIHEDRAL>
0

>  <SCORE.SYSTEM.SOLV>
0

>  <SCORE.SYSTEM.norm>
0

>  <SCORE.heavy>
27

>  <SCORE.norm>
-0.367862

>  <RMSD>
7.155

$$$$
ligand
 OpenBabel11021811483D
libRbt.so/2013.1/901 2013/11/27
 27 29  0  0  0  0  0  0  0  0999 V2000
   15.6950   -9.4507    4.3901 N   0  0  0  0  0  0  0  0  0  0  0  0
   16.6313   -8.4072    4.8125 C   0  0  2  0  0  0  0  0  0  0  0  0
   17.9601   -8.9012    5.3896 C   0  0  0  0  0  0  0  0  0  0  0  0
   19.0090   -8.4475    4.9340 O   0  0  0  0  0  0  0  0  0  0  0  0
   15.9637   -7.4325    5.7681 C   0  0  0  0  0  0  0  0  0  0  0  0
   16.8338   -6.2133    6.0205 C   0  0  0  0  0  0  0  0  0  0  0  0
   16.0582   -5.1148    7.2192 S   0  0  2  0  0  0  0  0  0  0  0  0
   17.3303   -3.8400    7.3446 C   0  0  0  0  0  0  0  0  0  0  0  0
   16.3835   -6.0169    8.7518 C   0  0  0  0  0  0  0  0  0  0  0  0
   15.8881   -5.2362    9.9552 C   0  0  1  0  0  0  0  0  0  0  0  0
   14.5067   -5.4408   10.1454 O   0  0  0  0  0  0  0  0  0  0  0  0
   16.5355   -5.6825   11.2514 C   0  0  1  0  0  0  0  0  0  0  0  0
   17.6596   -4.8726   11.4872 O   0  0  0  0  0  0  0  0  0  0  0  0
   15.4589   -5.4358   12.2888 C   0  0  1  0  0  0  0  0  0  0  0  0
   15.7648   -4.2185   12.9312 O   0  0  0  0  0  0  0  0  0  0  0  0
   14.1464   -5.3224   11.5104 C   0  0  2  0  0  0  0  0  0  0  0  0
   18.0293   -9.7412    6.2909 O   0  0  0  0  0  0  0  0  0  0  0  0
   13.9015  -10.5073   12.1997 N   0  0  0  0  0  0  0  0  0  0  0  0
   15.0117   -9.7441   11.9310 C   0  0  0  0  0  0  0  0  0  0  0  0
   14.8720   -8.3820   11.7799 N   0  0  0  0  0  0  0  0  0  0  0  0
   13.6641   -7.7860   11.8946 C   0  0  0  0  0  0  0  0  0  0  0  0
   12.5361   -8.5417   12.1795 C   0  0  0  0  0  0  0  0  0  0  0  0
   12.6595   -9.9219   12.3248 C   0  0  0  0  0  0  0  0  0  0  0  0
   11.5981  -10.6830   12.5923 N   0  0  0  0  0  0  0  0  0  0  0  0
   11.4743   -7.6978   12.2467 N   0  0  0  0  0  0  0  0  0  0  0  0
   11.9195   -6.4392   12.0272 C   0  0  0  0  0  0  0  0  0  0  0  0
   13.2756   -6.4754   11.8143 N   0  0  0  0  0  0  0  0  0  0  0  0
  2  1  1  1  0  0  0
  2  3  1  0  0  0  0
  2  5  1  0  0  0  0
  3  4  1  0  0  0  0
  3 17  1  0  0  0  0
  5  6  1  0  0  0  0
  7  6  1  6  0  0  0
  7  8  1  0  0  0  0
  7  9  1  0  0  0  0
 10  9  1  6  0  0  0
 10 11  1  0  0  0  0
 10 12  1  0  0  0  0
 11 16  1  0  0  0  0
 12 13  1  1  0  0  0
 12 14  1  0  0  0  0
 14 15  1  6  0  0  0
 14 16  1  0  0  0  0
 16 27  1  1  0  0  0
 18 19  2  0  0  0  0
 18 23  1  0  0  0  0
 19 20  1  0  0  0  0
 20 21  2  0  0  0  0
 21 22  1  0  0  0  0
 21 27  1  0  0  0  0
 22 23  2  0  0  0  0
 22 25  1  0  0  0  0
 23 24  1  0  0  0  0
 25 26  2  0  0  0  0
 26 27  1  0  0  0  0
M  END
>  <CHROM.1>
128.56212377,-169.81330237,-177.13212460,177.91218724,176.53193054,82.42862451
70.07931133,15.33578063,-7.10697357,9.50782310,0.50681672,-0.94778628,-2.50281959

>  <Name>
ligand

>  <RI>
0

>  <Rbt.Current_Directory>
/home/itssahil/PROJECTS/Mol_Feturizer/New_Systems/rnas/3GX5

>  <Rbt.Executable>
rbdock ($Id: //depot/dev/client3/rdock/2013.1/src/exe/rbdock.cxx#4 $)

>  <Rbt.Library>
libRbt.so (2013.1, Build901 2013/11/27)

>  <Rbt.Parameter_File>
/export/apps/rDock/src/rDock_2013.1_src/data/scripts/dock_solv.prm

>  <Rbt.Receptor>
prm/pocket_docking_7.prm

>  <SCORE>
-6.95842

>  <SCORE.INTER>
-6.41418

>  <SCORE.INTER.CONST>
1

>  <SCORE.INTER.POLAR>
0

>  <SCORE.INTER.ROT>
7

>  <SCORE.INTER.SOLV>
13.7401

>  <SCORE.INTER.VDW>
-17.1228

>  <SCORE.INTER.norm>
-0.237562

>  <SCORE.INTRA>
-0.544236

>  <SCORE.INTRA.DIHEDRAL>
1.34184

>  <SCORE.INTRA.DIHEDRAL.0>
4.28829

>  <SCORE.INTRA.POLAR>
0

>  <SCORE.INTRA.POLAR.0>
0

>  <SCORE.INTRA.REPUL>
0

>  <SCORE.INTRA.REPUL.0>
0

>  <SCORE.INTRA.SOLV>
-1.27153

>  <SCORE.INTRA.SOLV.lig_0>
-48.6018

>  <SCORE.INTRA.VDW>
-0.579391

>  <SCORE.INTRA.VDW.0>
-2.1506

>  <SCORE.INTRA.norm>
-0.0201569

>  <SCORE.RESTR>
0

>  <SCORE.RESTR.CAVITY>
0

>  <SCORE.RESTR.norm>
0

>  <SCORE.SYSTEM>
0

>  <SCORE.SYSTEM.CONST>
0

>  <SCORE.SYSTEM.DIHEDRAL>
0

>  <SCORE.SYSTEM.SOLV>
0

>  <SCORE.SYSTEM.norm>
0

>  <SCORE.heavy>
27

>  <SCORE.norm>
-0.257719

>  <RMSD>
7.158

$$$$
ligand
 OpenBabel11021811483D
libRbt.so/2013.1/901 2013/11/27
 27 29  0  0  0  0  0  0  0  0999 V2000
   15.8301   -7.9048    4.7993 N   0  0  0  0  0  0  0  0  0  0  0  0
   14.4111   -8.2358    4.6549 C   0  0  2  0  0  0  0  0  0  0  0  0
   13.8311   -8.0735    3.2477 C   0  0  0  0  0  0  0  0  0  0  0  0
   13.3107   -7.0016    2.9414 O   0  0  0  0  0  0  0  0  0  0  0  0
   13.5705   -7.4786    5.6692 C   0  0  0  0  0  0  0  0  0  0  0  0
   13.7006   -5.9756    5.4919 C   0  0  0  0  0  0  0  0  0  0  0  0
   13.2095   -5.1123    6.9948 S   0  0  2  0  0  0  0  0  0  0  0  0
   13.2497   -3.4071    6.4036 C   0  0  0  0  0  0  0  0  0  0  0  0
   14.7635   -5.1478    7.9181 C   0  0  0  0  0  0  0  0  0  0  0  0
   14.5848   -4.5509    9.3019 C   0  0  1  0  0  0  0  0  0  0  0  0
   13.4647   -5.1148    9.9451 O   0  0  0  0  0  0  0  0  0  0  0  0
   15.7550   -4.8400   10.2213 C   0  0  1  0  0  0  0  0  0  0  0  0
   16.6610   -3.7690   10.1358 O   0  0  0  0  0  0  0  0  0  0  0  0
   15.1187   -4.9070   11.5949 C   0  0  1  0  0  0  0  0  0  0  0  0
   15.3466   -3.6665   12.2251 O   0  0  0  0  0  0  0  0  0  0  0  0
   13.6236   -5.1249   11.3528 C   0  0  2  0  0  0  0  0  0  0  0  0
   13.8562   -8.9734    2.4037 O   0  0  0  0  0  0  0  0  0  0  0  0
   11.9460   -9.8704    9.9092 N   0  0  0  0  0  0  0  0  0  0  0  0
   12.2507   -8.8021    9.1011 C   0  0  0  0  0  0  0  0  0  0  0  0
   12.6790   -7.6249    9.6740 N   0  0  0  0  0  0  0  0  0  0  0  0
   12.8065   -7.5055   11.0146 C   0  0  0  0  0  0  0  0  0  0  0  0
   12.5160   -8.5800   11.8427 C   0  0  0  0  0  0  0  0  0  0  0  0
   12.0718   -9.7742   11.2788 C   0  0  0  0  0  0  0  0  0  0  0  0
   11.7762  -10.8270   12.0416 N   0  0  0  0  0  0  0  0  0  0  0  0
   12.7367   -8.1906   13.1248 N   0  0  0  0  0  0  0  0  0  0  0  0
   13.1716   -6.9095   13.1089 C   0  0  0  0  0  0  0  0  0  0  0  0
   13.2274   -6.4723   11.8084 N   0  0  0  0  0  0  0  0  0  0  0  0
  2  1  1  6  0  0  0
  2  3  1  0  0  0  0
  2  5  1  0  0  0  0
  3  4  1  0  0  0  0
  3 17  1  0  0  0  0
  5  6  1  0  0  0  0
  7  6  1  6  0  0  0
  7  8  1  0  0  0  0
  7  9  1  0  0  0  0
 10  9  1  6  0  0  0
 10 11  1  0  0  0  0
 10 12  1  0  0  0  0
 11 16  1  0  0  0  0
 12 13  1  1  0  0  0
 12 14  1  0  0  0  0
 14 15  1  6  0  0  0
 14 16  1  0  0  0  0
 16 27  1  6  0  0  0
 18 19  2  0  0  0  0
 18 23  1  0  0  0  0
 19 20  1  0  0  0  0
 20 21  2  0  0  0  0
 21 22  1  0  0  0  0
 21 27  1  0  0  0  0
 22 23  2  0  0  0  0
 22 25  1  0  0  0  0
 23 24  1  0  0  0  0
 25 26  2  0  0  0  0
 26 27  1  0  0  0  0
M  END
>  <CHROM.1>
-92.07927152,60.57503469,-159.83574567,-172.54196937,-175.96670294,49.49277590
0.72067382,13.69760884,-6.66441111,8.65650380,1.44387680,-1.12815895,-1.74287636

>  <Name>
ligand

>  <RI>
0

>  <Rbt.Current_Directory>
/home/itssahil/PROJECTS/Mol_Feturizer/New_Systems/rnas/3GX5

>  <Rbt.Executable>
rbdock ($Id: //depot/dev/client3/rdock/2013.1/src/exe/rbdock.cxx#4 $)

>  <Rbt.Library>
libRbt.so (2013.1, Build901 2013/11/27)

>  <Rbt.Parameter_File>
/export/apps/rDock/src/rDock_2013.1_src/data/scripts/dock_solv.prm

>  <Rbt.Receptor>
prm/pocket_docking_3.prm

>  <SCORE>
-11.6971

>  <SCORE.INTER>
-13.3225

>  <SCORE.INTER.CONST>
1

>  <SCORE.INTER.POLAR>
0

>  <SCORE.INTER.ROT>
7

>  <SCORE.INTER.SOLV>
16.015

>  <SCORE.INTER.VDW>
-22.4867

>  <SCORE.INTER.norm>
-0.493425

>  <SCORE.INTRA>
1.60059

>  <SCORE.INTRA.DIHEDRAL>
2.18551

>  <SCORE.INTRA.DIHEDRAL.0>
4.28829

>  <SCORE.INTRA.POLAR>
0

>  <SCORE.INTRA.POLAR.0>
0

>  <SCORE.INTRA.REPUL>
0

>  <SCORE.INTRA.REPUL.0>
0

>  <SCORE.INTRA.SOLV>
-0.130029

>  <SCORE.INTRA.SOLV.lig_0>
-48.6018

>  <SCORE.INTRA.VDW>
0.572855

>  <SCORE.INTRA.VDW.0>
-2.1506

>  <SCORE.INTRA.norm>
0.0592813

>  <SCORE.RESTR>
0.0247763

>  <SCORE.RESTR.CAVITY>
0.0247763

>  <SCORE.RESTR.norm>
0.000917642

>  <SCORE.SYSTEM>
0

>  <SCORE.SYSTEM.CONST>
0

>  <SCORE.SYSTEM.DIHEDRAL>
0

>  <SCORE.SYSTEM.SOLV>
0

>  <SCORE.SYSTEM.norm>
0

>  <SCORE.heavy>
27

>  <SCORE.norm>
-0.433226

>  <RMSD>
7.222

$$$$
ligand
 OpenBabel11021811483D
libRbt.so/2013.1/901 2013/11/27
 27 29  0  0  0  0  0  0  0  0999 V2000
   13.2787   -7.8020    3.5037 N   0  0  0  0  0  0  0  0  0  0  0  0
   14.1417   -8.0036    4.6693 C   0  0  2  0  0  0  0  0  0  0  0  0
   14.5532   -9.4511    4.9486 C   0  0  0  0  0  0  0  0  0  0  0  0
   15.4573   -9.9497    4.2794 O   0  0  0  0  0  0  0  0  0  0  0  0
   13.5343   -7.3723    5.9108 C   0  0  0  0  0  0  0  0  0  0  0  0
   13.5438   -5.8556    5.8279 C   0  0  0  0  0  0  0  0  0  0  0  0
   13.1724   -5.1279    7.4334 S   0  0  2  0  0  0  0  0  0  0  0  0
   13.6250   -3.4103    7.1108 C   0  0  0  0  0  0  0  0  0  0  0  0
   14.6241   -5.6501    8.3759 C   0  0  0  0  0  0  0  0  0  0  0  0
   14.7125   -4.9016    9.6931 C   0  0  1  0  0  0  0  0  0  0  0  0
   13.6277   -5.2364   10.5281 O   0  0  0  0  0  0  0  0  0  0  0  0
   15.9505   -5.2615   10.4907 C   0  0  1  0  0  0  0  0  0  0  0  0
   16.9652   -4.3425   10.1730 O   0  0  0  0  0  0  0  0  0  0  0  0
   15.5034   -5.1037   11.9299 C   0  0  1  0  0  0  0  0  0  0  0  0
   15.9707   -3.8521   12.3806 O   0  0  0  0  0  0  0  0  0  0  0  0
   13.9738   -5.1312   11.8979 C   0  0  2  0  0  0  0  0  0  0  0  0
   14.0146  -10.1468    5.8138 O   0  0  0  0  0  0  0  0  0  0  0  0
   11.1339   -9.4940   11.3331 N   0  0  0  0  0  0  0  0  0  0  0  0
   11.4006   -8.5335   10.3879 C   0  0  0  0  0  0  0  0  0  0  0  0
   12.1741   -7.4467   10.7318 N   0  0  0  0  0  0  0  0  0  0  0  0
   12.6758   -7.3124   11.9800 C   0  0  0  0  0  0  0  0  0  0  0  0
   12.4267   -8.2811   12.9413 C   0  0  0  0  0  0  0  0  0  0  0  0
   11.6374   -9.3810   12.6116 C   0  0  0  0  0  0  0  0  0  0  0  0
   11.3700  -10.3296   13.5096 N   0  0  0  0  0  0  0  0  0  0  0  0
   13.0500   -7.9024   14.0868 N   0  0  0  0  0  0  0  0  0  0  0  0
   13.6911   -6.7340   13.8533 C   0  0  0  0  0  0  0  0  0  0  0  0
   13.4752   -6.3582   12.5504 N   0  0  0  0  0  0  0  0  0  0  0  0
  2  1  1  6  0  0  0
  2  3  1  0  0  0  0
  2  5  1  0  0  0  0
  3  4  1  0  0  0  0
  3 17  1  0  0  0  0
  5  6  1  0  0  0  0
  7  6  1  6  0  0  0
  7  8  1  0  0  0  0
  7  9  1  0  0  0  0
 10  9  1  6  0  0  0
 10 11  1  0  0  0  0
 10 12  1  0  0  0  0
 11 16  1  0  0  0  0
 12 13  1  6  0  0  0
 12 14  1  0  0  0  0
 14 15  1  6  0  0  0
 14 16  1  0  0  0  0
 16 27  1  1  0  0  0
 18 19  2  0  0  0  0
 18 23  1  0  0  0  0
 19 20  1  0  0  0  0
 20 21  2  0  0  0  0
 21 22  1  0  0  0  0
 21 27  1  0  0  0  0
 22 23  2  0  0  0  0
 22 25  1  0  0  0  0
 23 24  1  0  0  0  0
 25 26  2  0  0  0  0
 26 27  1  0  0  0  0
M  END
>  <CHROM.1>
78.82409880,-69.17468808,-167.25761932,167.66554633,167.20652299,65.23105776
-8.28391611,13.72124290,-6.85114877,9.41092217,1.35511223,-1.06748468,-1.85843652

>  <Name>
ligand

>  <RI>
0

>  <Rbt.Current_Directory>
/home/itssahil/PROJECTS/Mol_Feturizer/New_Systems/rnas/3GX5

>  <Rbt.Executable>
rbdock ($Id: //depot/dev/client3/rdock/2013.1/src/exe/rbdock.cxx#4 $)

>  <Rbt.Library>
libRbt.so (2013.1, Build901 2013/11/27)

>  <Rbt.Parameter_File>
/export/apps/rDock/src/rDock_2013.1_src/data/scripts/dock_solv.prm

>  <Rbt.Receptor>
prm/pocket_docking_8.prm

>  <SCORE>
-13.0233

>  <SCORE.INTER>
-13.2779

>  <SCORE.INTER.CONST>
1

>  <SCORE.INTER.POLAR>
0

>  <SCORE.INTER.ROT>
7

>  <SCORE.INTER.SOLV>
15.2172

>  <SCORE.INTER.VDW>
-22.191

>  <SCORE.INTER.norm>
-0.491772

>  <SCORE.INTRA>
0.254584

>  <SCORE.INTRA.DIHEDRAL>
0.24099

>  <SCORE.INTRA.DIHEDRAL.0>
4.28829

>  <SCORE.INTRA.POLAR>
0

>  <SCORE.INTRA.POLAR.0>
0

>  <SCORE.INTRA.REPUL>
0

>  <SCORE.INTRA.REPUL.0>
0

>  <SCORE.INTRA.SOLV>
-0.636613

>  <SCORE.INTRA.SOLV.lig_0>
-48.6018

>  <SCORE.INTRA.VDW>
0.452396

>  <SCORE.INTRA.VDW.0>
-2.1506

>  <SCORE.INTRA.norm>
0.00942903

>  <SCORE.RESTR>
0

>  <SCORE.RESTR.CAVITY>
0

>  <SCORE.RESTR.norm>
0

>  <SCORE.SYSTEM>
0

>  <SCORE.SYSTEM.CONST>
0

>  <SCORE.SYSTEM.DIHEDRAL>
0

>  <SCORE.SYSTEM.SOLV>
0

>  <SCORE.SYSTEM.norm>
0

>  <SCORE.heavy>
27

>  <SCORE.norm>
-0.482343

>  <RMSD>
7.258

$$$$
ligand
 OpenBabel11021811483D
libRbt.so/2013.1/901 2013/11/27
 27 29  0  0  0  0  0  0  0  0999 V2000
   17.5286   -6.3798   10.1406 N   0  0  0  0  0  0  0  0  0  0  0  0
   16.5034   -5.8200    9.2577 C   0  0  2  0  0  0  0  0  0  0  0  0
   16.8937   -5.6939    7.7831 C   0  0  0  0  0  0  0  0  0  0  0  0
   16.0097   -5.7513    6.9293 O   0  0  0  0  0  0  0  0  0  0  0  0
   15.9939   -4.4914    9.7905 C   0  0  0  0  0  0  0  0  0  0  0  0
   15.4163   -4.6345   11.1881 C   0  0  0  0  0  0  0  0  0  0  0  0
   13.9495   -5.6801   11.1668 S   0  0  2  0  0  0  0  0  0  0  0  0
   12.8381   -4.6405   10.1957 C   0  0  0  0  0  0  0  0  0  0  0  0
   13.2928   -5.3607   12.8206 C   0  0  0  0  0  0  0  0  0  0  0  0
   13.9029   -6.3075   13.8376 C   0  0  1  0  0  0  0  0  0  0  0  0
   13.8615   -7.6353   13.3672 O   0  0  0  0  0  0  0  0  0  0  0  0
   15.3700   -6.0256   14.0957 C   0  0  1  0  0  0  0  0  0  0  0  0
   15.4676   -5.1585   15.1973 O   0  0  0  0  0  0  0  0  0  0  0  0
   15.9409   -7.3903   14.4240 C   0  0  1  0  0  0  0  0  0  0  0  0
   16.0430   -7.4769   15.8276 O   0  0  0  0  0  0  0  0  0  0  0  0
   14.9285   -8.4063   13.8909 C   0  0  2  0  0  0  0  0  0  0  0  0
   18.0595   -5.5423    7.4081 O   0  0  0  0  0  0  0  0  0  0  0  0
   13.9584  -10.8026    9.3373 N   0  0  0  0  0  0  0  0  0  0  0  0
   13.0661  -10.1521   10.1545 C   0  0  0  0  0  0  0  0  0  0  0  0
   13.5170   -9.5803   11.3239 N   0  0  0  0  0  0  0  0  0  0  0  0
   14.8201   -9.6466   11.6775 C   0  0  0  0  0  0  0  0  0  0  0  0
   15.7355  -10.2880   10.8558 C   0  0  0  0  0  0  0  0  0  0  0  0
   15.2930  -10.8801    9.6747 C   0  0  0  0  0  0  0  0  0  0  0  0
   16.1407  -11.5114    8.8620 N   0  0  0  0  0  0  0  0  0  0  0  0
   16.9573  -10.1976   11.4415 N   0  0  0  0  0  0  0  0  0  0  0  0
   16.8233   -9.5031   12.5949 C   0  0  0  0  0  0  0  0  0  0  0  0
   15.5062   -9.1480   12.7524 N   0  0  0  0  0  0  0  0  0  0  0  0
  2  1  1  1  0  0  0
  2  3  1  0  0  0  0
  2  5  1  0  0  0  0
  3  4  1  0  0  0  0
  3 17  1  0  0  0  0
  5  6  1  0  0  0  0
  7  6  1  1  0  0  0
  7  8  1  0  0  0  0
  7  9  1  0  0  0  0
 10  9  1  6  0  0  0
 10 11  1  0  0  0  0
 10 12  1  0  0  0  0
 11 16  1  0  0  0  0
 12 13  1  1  0  0  0
 12 14  1  0  0  0  0
 14 15  1  1  0  0  0
 14 16  1  0  0  0  0
 16 27  1  6  0  0  0
 18 19  2  0  0  0  0
 18 23  1  0  0  0  0
 19 20  1  0  0  0  0
 20 21  2  0  0  0  0
 21 22  1  0  0  0  0
 21 27  1  0  0  0  0
 22 23  2  0  0  0  0
 22 25  1  0  0  0  0
 23 24  1  0  0  0  0
 25 26  2  0  0  0  0
 26 27  1  0  0  0  0
M  END
>  <CHROM.1>
151.62872047,-58.31758165,-64.93077932,-65.89002490,-87.61540089,-47.83523040
-34.48192619,15.26713282,-7.38707504,11.33751071,-0.11112284,1.35561163,0.08949059

>  <Name>
ligand

>  <RI>
0

>  <Rbt.Current_Directory>
/home/itssahil/PROJECTS/Mol_Feturizer/New_Systems/rnas/3GX5

>  <Rbt.Executable>
rbdock ($Id: //depot/dev/client3/rdock/2013.1/src/exe/rbdock.cxx#4 $)

>  <Rbt.Library>
libRbt.so (2013.1, Build901 2013/11/27)

>  <Rbt.Parameter_File>
/export/apps/rDock/src/rDock_2013.1_src/data/scripts/dock_solv.prm

>  <Rbt.Receptor>
prm/pocket_docking_6.prm

>  <SCORE>
200.655

>  <SCORE.INTER>
199.737

>  <SCORE.INTER.CONST>
1

>  <SCORE.INTER.POLAR>
0

>  <SCORE.INTER.ROT>
7

>  <SCORE.INTER.SOLV>
24.4878

>  <SCORE.INTER.VDW>
116.729

>  <SCORE.INTER.norm>
7.39767

>  <SCORE.INTRA>
-0.15448

>  <SCORE.INTRA.DIHEDRAL>
0.702187

>  <SCORE.INTRA.DIHEDRAL.0>
4.28829

>  <SCORE.INTRA.POLAR>
0

>  <SCORE.INTRA.POLAR.0>
0

>  <SCORE.INTRA.REPUL>
0

>  <SCORE.INTRA.REPUL.0>
0

>  <SCORE.INTRA.SOLV>
0.432966

>  <SCORE.INTRA.SOLV.lig_0>
-48.6018

>  <SCORE.INTRA.VDW>
-0.722056

>  <SCORE.INTRA.VDW.0>
-2.1506

>  <SCORE.INTRA.norm>
-0.00572148

>  <SCORE.RESTR>
1.07248

>  <SCORE.RESTR.CAVITY>
1.07248

>  <SCORE.RESTR.norm>
0.0397216

>  <SCORE.SYSTEM>
0

>  <SCORE.SYSTEM.CONST>
0

>  <SCORE.SYSTEM.DIHEDRAL>
0

>  <SCORE.SYSTEM.SOLV>
0

>  <SCORE.SYSTEM.norm>
0

>  <SCORE.heavy>
27

>  <SCORE.norm>
7.43167

>  <RMSD>
7.274

$$$$
ligand
 OpenBabel11021811483D
libRbt.so/2013.1/901 2013/11/27
 27 29  0  0  0  0  0  0  0  0999 V2000
   13.2110   -7.7595    3.4426 N   0  0  0  0  0  0  0  0  0  0  0  0
   14.0727   -7.9275    4.6144 C   0  0  2  0  0  0  0  0  0  0  0  0
   14.4318   -9.3714    4.9732 C   0  0  0  0  0  0  0  0  0  0  0  0
   15.2709   -9.9599    4.2925 O   0  0  0  0  0  0  0  0  0  0  0  0
   13.4964   -7.2052    5.8207 C   0  0  0  0  0  0  0  0  0  0  0  0
   13.5503   -5.6971    5.6472 C   0  0  0  0  0  0  0  0  0  0  0  0
   13.2790   -4.8650    7.2217 S   0  0  2  0  0  0  0  0  0  0  0  0
   13.7621   -3.1840    6.7746 C   0  0  0  0  0  0  0  0  0  0  0  0
   14.7608   -5.3746    8.1235 C   0  0  0  0  0  0  0  0  0  0  0  0
   14.8382   -4.6835    9.4724 C   0  0  1  0  0  0  0  0  0  0  0  0
   13.6364   -4.8557   10.1881 O   0  0  0  0  0  0  0  0  0  0  0  0
   15.9168   -5.2618   10.3670 C   0  0  1  0  0  0  0  0  0  0  0  0
   17.0929   -4.5147   10.1830 O   0  0  0  0  0  0  0  0  0  0  0  0
   15.3610   -5.0680   11.7633 C   0  0  1  0  0  0  0  0  0  0  0  0
   15.9773   -3.9219   12.3060 O   0  0  0  0  0  0  0  0  0  0  0  0
   13.8578   -4.8427   11.5873 C   0  0  2  0  0  0  0  0  0  0  0  0
   13.9127   -9.9780    5.9143 O   0  0  0  0  0  0  0  0  0  0  0  0
   13.3418   -8.1549   15.6099 N   0  0  0  0  0  0  0  0  0  0  0  0
   14.2327   -7.1172   15.4814 C   0  0  0  0  0  0  0  0  0  0  0  0
   14.2148   -6.3523   14.3358 N   0  0  0  0  0  0  0  0  0  0  0  0
   13.3352   -6.6041   13.3406 C   0  0  0  0  0  0  0  0  0  0  0  0
   12.4203   -7.6398   13.4619 C   0  0  0  0  0  0  0  0  0  0  0  0
   12.4328   -8.4289   14.6102 C   0  0  0  0  0  0  0  0  0  0  0  0
   11.5739   -9.4374   14.7611 N   0  0  0  0  0  0  0  0  0  0  0  0
   11.6624   -7.6615   12.3353 N   0  0  0  0  0  0  0  0  0  0  0  0
   12.0743   -6.6562   11.5289 C   0  0  0  0  0  0  0  0  0  0  0  0
   13.1057   -5.9867   12.1402 N   0  0  0  0  0  0  0  0  0  0  0  0
  2  1  1  6  0  0  0
  2  3  1  0  0  0  0
  2  5  1  0  0  0  0
  3  4  1  0  0  0  0
  3 17  1  0  0  0  0
  5  6  1  0  0  0  0
  7  6  1  6  0  0  0
  7  8  1  0  0  0  0
  7  9  1  0  0  0  0
 10  9  1  6  0  0  0
 10 11  1  0  0  0  0
 10 12  1  0  0  0  0
 11 16  1  0  0  0  0
 12 13  1  1  0  0  0
 12 14  1  0  0  0  0
 14 15  1  6  0  0  0
 14 16  1  0  0  0  0
 16 27  1  1  0  0  0
 18 19  2  0  0  0  0
 18 23  1  0  0  0  0
 19 20  1  0  0  0  0
 20 21  2  0  0  0  0
 21 22  1  0  0  0  0
 21 27  1  0  0  0  0
 22 23  2  0  0  0  0
 22 25  1  0  0  0  0
 23 24  1  0  0  0  0
 25 26  2  0  0  0  0
 26 27  1  0  0  0  0
M  END
>  <CHROM.1>
75.66413291,-68.66297658,-165.07924414,167.94591811,174.63149535,52.11958314
158.75026652,13.89775971,-6.50437821,9.77389076,1.37675278,-1.18468255,-1.79910321

>  <Name>
ligand

>  <RI>
0

>  <Rbt.Current_Directory>
/home/itssahil/PROJECTS/Mol_Feturizer/New_Systems/rnas/3GX5

>  <Rbt.Executable>
rbdock ($Id: //depot/dev/client3/rdock/2013.1/src/exe/rbdock.cxx#4 $)

>  <Rbt.Library>
libRbt.so (2013.1, Build901 2013/11/27)

>  <Rbt.Parameter_File>
/export/apps/rDock/src/rDock_2013.1_src/data/scripts/dock_solv.prm

>  <Rbt.Receptor>
prm/pocket_docking_8.prm

>  <SCORE>
-14.3877

>  <SCORE.INTER>
-15.06

>  <SCORE.INTER.CONST>
1

>  <SCORE.INTER.POLAR>
0

>  <SCORE.INTER.ROT>
7

>  <SCORE.INTER.SOLV>
14.213

>  <SCORE.INTER.VDW>
-23.0443

>  <SCORE.INTER.norm>
-0.557776

>  <SCORE.INTRA>
0.672269

>  <SCORE.INTRA.DIHEDRAL>
0.599281

>  <SCORE.INTRA.DIHEDRAL.0>
4.28829

>  <SCORE.INTRA.POLAR>
0

>  <SCORE.INTRA.POLAR.0>
0

>  <SCORE.INTRA.REPUL>
0

>  <SCORE.INTRA.REPUL.0>
0

>  <SCORE.INTRA.SOLV>
-0.633628

>  <SCORE.INTRA.SOLV.lig_0>
-48.6018

>  <SCORE.INTRA.VDW>
0.689442

>  <SCORE.INTRA.VDW.0>
-2.1506

>  <SCORE.INTRA.norm>
0.0248988

>  <SCORE.RESTR>
0

>  <SCORE.RESTR.CAVITY>
0

>  <SCORE.RESTR.norm>
0

>  <SCORE.SYSTEM>
0

>  <SCORE.SYSTEM.CONST>
0

>  <SCORE.SYSTEM.DIHEDRAL>
0

>  <SCORE.SYSTEM.SOLV>
0

>  <SCORE.SYSTEM.norm>
0

>  <SCORE.heavy>
27

>  <SCORE.norm>
-0.532877

>  <RMSD>
7.274

$$$$
ligand
 OpenBabel11021811483D
libRbt.so/2013.1/901 2013/11/27
 27 29  0  0  0  0  0  0  0  0999 V2000
   15.2427   -7.9930    5.8100 N   0  0  0  0  0  0  0  0  0  0  0  0
   13.9444   -8.1256    5.1462 C   0  0  2  0  0  0  0  0  0  0  0  0
   13.9722   -8.0757    3.6167 C   0  0  0  0  0  0  0  0  0  0  0  0
   14.6293   -8.9193    3.0082 O   0  0  0  0  0  0  0  0  0  0  0  0
   12.9481   -7.1182    5.6951 C   0  0  0  0  0  0  0  0  0  0  0  0
   13.4813   -5.6988    5.6043 C   0  0  0  0  0  0  0  0  0  0  0  0
   13.2910   -4.8452    7.1792 S   0  0  2  0  0  0  0  0  0  0  0  0
   14.0017   -3.2411    6.7537 C   0  0  0  0  0  0  0  0  0  0  0  0
   14.6737   -5.5510    8.1059 C   0  0  0  0  0  0  0  0  0  0  0  0
   14.8831   -4.8104    9.4138 C   0  0  1  0  0  0  0  0  0  0  0  0
   13.7261   -4.8816   10.2154 O   0  0  0  0  0  0  0  0  0  0  0  0
   15.9871   -5.4138   10.2597 C   0  0  1  0  0  0  0  0  0  0  0  0
   17.1875   -4.7457    9.9638 O   0  0  0  0  0  0  0  0  0  0  0  0
   15.5412   -5.1299   11.6798 C   0  0  1  0  0  0  0  0  0  0  0  0
   16.2569   -4.0006   12.1275 O   0  0  0  0  0  0  0  0  0  0  0  0
   14.0444   -4.8237   11.5946 C   0  0  2  0  0  0  0  0  0  0  0  0
   13.3682   -7.2216    2.9621 O   0  0  0  0  0  0  0  0  0  0  0  0
   13.6668   -7.9828   15.7534 N   0  0  0  0  0  0  0  0  0  0  0  0
   14.6101   -7.0133   15.5141 C   0  0  0  0  0  0  0  0  0  0  0  0
   14.5419   -6.2801   14.3499 N   0  0  0  0  0  0  0  0  0  0  0  0
   13.5627   -6.4968   13.4434 C   0  0  0  0  0  0  0  0  0  0  0  0
   12.5949   -7.4628   13.6776 C   0  0  0  0  0  0  0  0  0  0  0  0
   12.6564   -8.2197   14.8457 C   0  0  0  0  0  0  0  0  0  0  0  0
   11.7487   -9.1617   15.1035 N   0  0  0  0  0  0  0  0  0  0  0  0
   11.7404   -7.4619   12.6221 N   0  0  0  0  0  0  0  0  0  0  0  0
   12.1454   -6.5097   11.7505 C   0  0  0  0  0  0  0  0  0  0  0  0
   13.2694   -5.8974   12.2478 N   0  0  0  0  0  0  0  0  0  0  0  0
  2  1  1  1  0  0  0
  2  3  1  0  0  0  0
  2  5  1  0  0  0  0
  3  4  1  0  0  0  0
  3 17  1  0  0  0  0
  5  6  1  0  0  0  0
  7  6  1  6  0  0  0
  7  8  1  0  0  0  0
  7  9  1  0  0  0  0
 10  9  1  6  0  0  0
 10 11  1  0  0  0  0
 10 12  1  0  0  0  0
 11 16  1  0  0  0  0
 12 13  1  6  0  0  0
 12 14  1  0  0  0  0
 14 15  1  6  0  0  0
 14 16  1  0  0  0  0
 16 27  1  1  0  0  0
 18 19  2  0  0  0  0
 18 23  1  0  0  0  0
 19 20  1  0  0  0  0
 20 21  2  0  0  0  0
 21 22  1  0  0  0  0
 21 27  1  0  0  0  0
 22 23  2  0  0  0  0
 22 25  1  0  0  0  0
 23 24  1  0  0  0  0
 25 26  2  0  0  0  0
 26 27  1  0  0  0  0
M  END
>  <CHROM.1>
59.88028564,54.82257804,-130.87431845,179.80285666,170.19084601,59.60815727
157.25393648,13.99501084,-6.30029795,9.68391613,1.48918655,-0.99638815,-1.63585095

>  <Name>
ligand

>  <RI>
0

>  <Rbt.Current_Directory>
/home/itssahil/PROJECTS/Mol_Feturizer/New_Systems/rnas/3GX5

>  <Rbt.Executable>
rbdock ($Id: //depot/dev/client3/rdock/2013.1/src/exe/rbdock.cxx#4 $)

>  <Rbt.Library>
libRbt.so (2013.1, Build901 2013/11/27)

>  <Rbt.Parameter_File>
/export/apps/rDock/src/rDock_2013.1_src/data/scripts/dock_solv.prm

>  <Rbt.Receptor>
prm/pocket_docking_6.prm

>  <SCORE>
-14.0526

>  <SCORE.INTER>
-17.6116

>  <SCORE.INTER.CONST>
1

>  <SCORE.INTER.POLAR>
0

>  <SCORE.INTER.ROT>
7

>  <SCORE.INTER.SOLV>
7.19188

>  <SCORE.INTER.VDW>
-22.4051

>  <SCORE.INTER.norm>
-0.652283

>  <SCORE.INTRA>
3.55908

>  <SCORE.INTRA.DIHEDRAL>
4.66022

>  <SCORE.INTRA.DIHEDRAL.0>
4.28829

>  <SCORE.INTRA.POLAR>
0

>  <SCORE.INTRA.POLAR.0>
0

>  <SCORE.INTRA.REPUL>
0

>  <SCORE.INTRA.REPUL.0>
0

>  <SCORE.INTRA.SOLV>
0.879085

>  <SCORE.INTRA.SOLV.lig_0>
-48.6018

>  <SCORE.INTRA.VDW>
0.789429

>  <SCORE.INTRA.VDW.0>
-2.1506

>  <SCORE.INTRA.norm>
0.131818

>  <SCORE.RESTR>
0

>  <SCORE.RESTR.CAVITY>
0

>  <SCORE.RESTR.norm>
0

>  <SCORE.SYSTEM>
0

>  <SCORE.SYSTEM.CONST>
0

>  <SCORE.SYSTEM.DIHEDRAL>
0

>  <SCORE.SYSTEM.SOLV>
0

>  <SCORE.SYSTEM.norm>
0

>  <SCORE.heavy>
27

>  <SCORE.norm>
-0.520465

>  <RMSD>
7.315

$$$$
ligand
 OpenBabel11021811483D
libRbt.so/2013.1/901 2013/11/27
 27 29  0  0  0  0  0  0  0  0999 V2000
   13.5755   -8.9689    5.9667 N   0  0  0  0  0  0  0  0  0  0  0  0
   12.9909   -7.9951    5.0427 C   0  0  2  0  0  0  0  0  0  0  0  0
   13.7759   -7.7502    3.7517 C   0  0  0  0  0  0  0  0  0  0  0  0
   14.9391   -8.1448    3.6817 O   0  0  0  0  0  0  0  0  0  0  0  0
   12.7020   -6.6812    5.7491 C   0  0  0  0  0  0  0  0  0  0  0  0
   13.9557   -6.0971    6.3770 C   0  0  0  0  0  0  0  0  0  0  0  0
   13.5333   -4.8026    7.5565 S   0  0  2  0  0  0  0  0  0  0  0  0
   13.3810   -3.3955    6.4357 C   0  0  0  0  0  0  0  0  0  0  0  0
   15.1618   -4.4530    8.2596 C   0  0  0  0  0  0  0  0  0  0  0  0
   15.0680   -4.2289    9.7576 C   0  0  1  0  0  0  0  0  0  0  0  0
   14.0961   -5.0762   10.3265 O   0  0  0  0  0  0  0  0  0  0  0  0
   16.3566   -4.5633   10.4828 C   0  0  1  0  0  0  0  0  0  0  0  0
   17.1200   -3.3887   10.5946 O   0  0  0  0  0  0  0  0  0  0  0  0
   15.8854   -5.0383   11.8424 C   0  0  1  0  0  0  0  0  0  0  0  0
   16.0378   -3.9618   12.7401 O   0  0  0  0  0  0  0  0  0  0  0  0
   14.4073   -5.3956   11.6712 C   0  0  2  0  0  0  0  0  0  0  0  0
   13.2964   -7.1679    2.7751 O   0  0  0  0  0  0  0  0  0  0  0  0
   10.9841   -9.3558   11.5446 N   0  0  0  0  0  0  0  0  0  0  0  0
   10.7404   -8.0233   11.3166 C   0  0  0  0  0  0  0  0  0  0  0  0
   11.7813   -7.1247   11.3982 N   0  0  0  0  0  0  0  0  0  0  0  0
   13.0355   -7.5326   11.6954 C   0  0  0  0  0  0  0  0  0  0  0  0
   13.2997   -8.8767   11.9145 C   0  0  0  0  0  0  0  0  0  0  0  0
   12.2554   -9.7964   11.8456 C   0  0  0  0  0  0  0  0  0  0  0  0
   12.4680  -11.0957   12.0564 N   0  0  0  0  0  0  0  0  0  0  0  0
   14.6253   -9.0036   12.1808 N   0  0  0  0  0  0  0  0  0  0  0  0
   15.1894   -7.7755   12.1156 C   0  0  0  0  0  0  0  0  0  0  0  0
   14.2191   -6.8536   11.8087 N   0  0  0  0  0  0  0  0  0  0  0  0
  2  1  1  1  0  0  0
  2  3  1  0  0  0  0
  2  5  1  0  0  0  0
  3  4  1  0  0  0  0
  3 17  1  0  0  0  0
  5  6  1  0  0  0  0
  7  6  1  6  0  0  0
  7  8  1  0  0  0  0
  7  9  1  0  0  0  0
 10  9  1  6  0  0  0
 10 11  1  0  0  0  0
 10 12  1  0  0  0  0
 11 16  1  0  0  0  0
 12 13  1  1  0  0  0
 12 14  1  0  0  0  0
 14 15  1  1  0  0  0
 14 16  1  0  0  0  0
 16 27  1  6  0  0  0
 18 19  2  0  0  0  0
 18 23  1  0  0  0  0
 19 20  1  0  0  0  0
 20 21  2  0  0  0  0
 21 22  1  0  0  0  0
 21 27  1  0  0  0  0
 22 23  2  0  0  0  0
 22 25  1  0  0  0  0
 23 24  1  0  0  0  0
 25 26  2  0  0  0  0
 26 27  1  0  0  0  0
M  END
>  <CHROM.1>
-14.67559886,57.53326896,-165.02005465,-84.53130356,-139.82621031,36.13000858
-65.19020567,13.91013139,-6.60012093,9.13045311,1.65206599,-1.03559228,-1.46407698

>  <Name>
ligand

>  <RI>
0

>  <Rbt.Current_Directory>
/home/itssahil/PROJECTS/Mol_Feturizer/New_Systems/rnas/3GX5

>  <Rbt.Executable>
rbdock ($Id: //depot/dev/client3/rdock/2013.1/src/exe/rbdock.cxx#4 $)

>  <Rbt.Library>
libRbt.so (2013.1, Build901 2013/11/27)

>  <Rbt.Parameter_File>
/export/apps/rDock/src/rDock_2013.1_src/data/scripts/dock_solv.prm

>  <Rbt.Receptor>
prm/pocket_docking_3.prm

>  <SCORE>
-7.65436

>  <SCORE.INTER>
-11.2342

>  <SCORE.INTER.CONST>
1

>  <SCORE.INTER.POLAR>
0

>  <SCORE.INTER.ROT>
7

>  <SCORE.INTER.SOLV>
17.4607

>  <SCORE.INTER.VDW>
-21.5764

>  <SCORE.INTER.norm>
-0.416081

>  <SCORE.INTRA>
3.57982

>  <SCORE.INTRA.DIHEDRAL>
6.39429

>  <SCORE.INTRA.DIHEDRAL.0>
4.28829

>  <SCORE.INTRA.POLAR>
0

>  <SCORE.INTRA.POLAR.0>
0

>  <SCORE.INTRA.REPUL>
0

>  <SCORE.INTRA.REPUL.0>
0

>  <SCORE.INTRA.SOLV>
-0.42457

>  <SCORE.INTRA.SOLV.lig_0>
-48.6018

>  <SCORE.INTRA.VDW>
0.594959

>  <SCORE.INTRA.VDW.0>
-2.1506

>  <SCORE.INTRA.norm>
0.132586

>  <SCORE.RESTR>
0

>  <SCORE.RESTR.CAVITY>
0

>  <SCORE.RESTR.norm>
0

>  <SCORE.SYSTEM>
0

>  <SCORE.SYSTEM.CONST>
0

>  <SCORE.SYSTEM.DIHEDRAL>
0

>  <SCORE.SYSTEM.SOLV>
0

>  <SCORE.SYSTEM.norm>
0

>  <SCORE.heavy>
27

>  <SCORE.norm>
-0.283495

>  <RMSD>
7.327

$$$$
ligand
 OpenBabel11021811483D
libRbt.so/2013.1/901 2013/11/27
 27 29  0  0  0  0  0  0  0  0999 V2000
   13.0088   -3.0625    6.9323 N   0  0  0  0  0  0  0  0  0  0  0  0
   14.4364   -3.2653    7.1860 C   0  0  2  0  0  0  0  0  0  0  0  0
   15.0567   -4.5053    6.5375 C   0  0  0  0  0  0  0  0  0  0  0  0
   16.2601   -4.7128    6.6869 O   0  0  0  0  0  0  0  0  0  0  0  0
   14.7329   -3.2375    8.6760 C   0  0  0  0  0  0  0  0  0  0  0  0
   13.9465   -4.3016    9.4220 C   0  0  0  0  0  0  0  0  0  0  0  0
   14.3534   -4.2809   11.1768 S   0  0  2  0  0  0  0  0  0  0  0  0
   15.9302   -5.1593   11.1429 C   0  0  0  0  0  0  0  0  0  0  0  0
   13.2826   -5.6073   11.7792 C   0  0  0  0  0  0  0  0  0  0  0  0
   13.4145   -6.8456   10.9120 C   0  0  1  0  0  0  0  0  0  0  0  0
   13.5783   -7.9956   11.7101 O   0  0  0  0  0  0  0  0  0  0  0  0
   12.1755   -7.1150   10.0810 C   0  0  1  0  0  0  0  0  0  0  0  0
   12.3435   -6.5074    8.8250 O   0  0  0  0  0  0  0  0  0  0  0  0
   12.1528   -8.6250    9.9573 C   0  0  1  0  0  0  0  0  0  0  0  0
   12.6796   -8.9512    8.6908 O   0  0  0  0  0  0  0  0  0  0  0  0
   13.0597   -9.1495   11.0725 C   0  0  2  0  0  0  0  0  0  0  0  0
   14.4044   -5.3076    5.8640 O   0  0  0  0  0  0  0  0  0  0  0  0
    9.4649   -8.7016   14.8533 N   0  0  0  0  0  0  0  0  0  0  0  0
    9.9745   -7.7084   14.0527 C   0  0  0  0  0  0  0  0  0  0  0  0
   10.9240   -8.0267   13.1067 N   0  0  0  0  0  0  0  0  0  0  0  0
   11.3586   -9.2974   12.9523 C   0  0  0  0  0  0  0  0  0  0  0  0
   10.8431  -10.3134   13.7439 C   0  0  0  0  0  0  0  0  0  0  0  0
    9.8897  -10.0056   14.7121 C   0  0  0  0  0  0  0  0  0  0  0  0
    9.3753  -10.9530   15.4967 N   0  0  0  0  0  0  0  0  0  0  0  0
   11.4420  -11.4750   13.3747 N   0  0  0  0  0  0  0  0  0  0  0  0
   12.3013  -11.2056   12.3650 C   0  0  0  0  0  0  0  0  0  0  0  0
   12.2565   -9.8618   12.0862 N   0  0  0  0  0  0  0  0  0  0  0  0
  2  1  1  1  0  0  0
  2  3  1  0  0  0  0
  2  5  1  0  0  0  0
  3  4  1  0  0  0  0
  3 17  1  0  0  0  0
  5  6  1  0  0  0  0
  7  6  1  6  0  0  0
  7  8  1  0  0  0  0
  7  9  1  0  0  0  0
 10  9  1  1  0  0  0
 10 11  1  0  0  0  0
 10 12  1  0  0  0  0
 11 16  1  0  0  0  0
 12 13  1  6  0  0  0
 12 14  1  0  0  0  0
 14 15  1  6  0  0  0
 14 16  1  0  0  0  0
 16 27  1  1  0  0  0
 18 19  2  0  0  0  0
 18 23  1  0  0  0  0
 19 20  1  0  0  0  0
 20 21  2  0  0  0  0
 21 22  1  0  0  0  0
 21 27  1  0  0  0  0
 22 23  2  0  0  0  0
 22 25  1  0  0  0  0
 23 24  1  0  0  0  0
 25 26  2  0  0  0  0
 26 27  1  0  0  0  0
M  END
>  <CHROM.1>
178.24811906,58.47044549,178.26103873,-78.61550275,48.26752232,132.68971408
44.84347842,12.83571335,-7.06233434,10.78346885,0.01440419,1.12517362,0.74566178

>  <Name>
ligand

>  <RI>
0

>  <Rbt.Current_Directory>
/home/itssahil/PROJECTS/Mol_Feturizer/New_Systems/rnas/3GX5

>  <Rbt.Executable>
rbdock ($Id: //depot/dev/client3/rdock/2013.1/src/exe/rbdock.cxx#4 $)

>  <Rbt.Library>
libRbt.so (2013.1, Build901 2013/11/27)

>  <Rbt.Parameter_File>
/export/apps/rDock/src/rDock_2013.1_src/data/scripts/dock_solv.prm

>  <Rbt.Receptor>
prm/pocket_docking_8.prm

>  <SCORE>
-10.0629

>  <SCORE.INTER>
-13.0312

>  <SCORE.INTER.CONST>
1

>  <SCORE.INTER.POLAR>
0

>  <SCORE.INTER.ROT>
7

>  <SCORE.INTER.SOLV>
14.0598

>  <SCORE.INTER.VDW>
-21.6408

>  <SCORE.INTER.norm>
-0.482639

>  <SCORE.INTRA>
2.96837

>  <SCORE.INTRA.DIHEDRAL>
4.19768

>  <SCORE.INTRA.DIHEDRAL.0>
4.28829

>  <SCORE.INTRA.POLAR>
0

>  <SCORE.INTRA.POLAR.0>
0

>  <SCORE.INTRA.REPUL>
0

>  <SCORE.INTRA.REPUL.0>
0

>  <SCORE.INTRA.SOLV>
0.195871

>  <SCORE.INTRA.SOLV.lig_0>
-48.6018

>  <SCORE.INTRA.VDW>
0.771592

>  <SCORE.INTRA.VDW.0>
-2.1506

>  <SCORE.INTRA.norm>
0.10994

>  <SCORE.RESTR>
0

>  <SCORE.RESTR.CAVITY>
0

>  <SCORE.RESTR.norm>
0

>  <SCORE.SYSTEM>
0

>  <SCORE.SYSTEM.CONST>
0

>  <SCORE.SYSTEM.DIHEDRAL>
0

>  <SCORE.SYSTEM.SOLV>
0

>  <SCORE.SYSTEM.norm>
0

>  <SCORE.heavy>
27

>  <SCORE.norm>
-0.372699

>  <RMSD>
7.424

$$$$
ligand
 OpenBabel11021811483D
libRbt.so/2013.1/901 2013/11/27
 27 29  0  0  0  0  0  0  0  0999 V2000
   18.2965   -8.6079    4.9299 N   0  0  0  0  0  0  0  0  0  0  0  0
   17.4364   -8.6979    6.1114 C   0  0  2  0  0  0  0  0  0  0  0  0
   15.9333   -8.7785    5.8342 C   0  0  0  0  0  0  0  0  0  0  0  0
   15.5197   -8.4725    4.7166 O   0  0  0  0  0  0  0  0  0  0  0  0
   17.7392   -7.5762    7.0907 C   0  0  0  0  0  0  0  0  0  0  0  0
   19.0979   -7.7576    7.7451 C   0  0  0  0  0  0  0  0  0  0  0  0
   19.3968   -6.4626    8.9611 S   0  0  2  0  0  0  0  0  0  0  0  0
   21.0417   -6.9414    9.5305 C   0  0  0  0  0  0  0  0  0  0  0  0
   18.4086   -7.0757   10.3454 C   0  0  0  0  0  0  0  0  0  0  0  0
   17.0020   -6.5078   10.2998 C   0  0  1  0  0  0  0  0  0  0  0  0
   16.1153   -7.3179   11.0371 O   0  0  0  0  0  0  0  0  0  0  0  0
   16.9027   -5.1346   10.9346 C   0  0  1  0  0  0  0  0  0  0  0  0
   17.0702   -4.1680    9.9283 O   0  0  0  0  0  0  0  0  0  0  0  0
   15.4939   -5.1025   11.4918 C   0  0  1  0  0  0  0  0  0  0  0  0
   14.6966   -4.3829   10.5783 O   0  0  0  0  0  0  0  0  0  0  0  0
   15.0426   -6.5625   11.5715 C   0  0  2  0  0  0  0  0  0  0  0  0
   15.1121   -9.1325    6.6846 O   0  0  0  0  0  0  0  0  0  0  0  0
   16.5258   -9.9710   15.2594 N   0  0  0  0  0  0  0  0  0  0  0  0
   16.9448   -9.9074   13.9526 C   0  0  0  0  0  0  0  0  0  0  0  0
   16.4330   -8.9298   13.1281 N   0  0  0  0  0  0  0  0  0  0  0  0
   15.5300   -8.0329   13.5839 C   0  0  0  0  0  0  0  0  0  0  0  0
   15.1078   -8.0757   14.9047 C   0  0  0  0  0  0  0  0  0  0  0  0
   15.6086   -9.0651   15.7483 C   0  0  0  0  0  0  0  0  0  0  0  0
   15.2224   -9.1433   17.0220 N   0  0  0  0  0  0  0  0  0  0  0  0
   14.2181   -7.0670   15.0915 N   0  0  0  0  0  0  0  0  0  0  0  0
   14.0923   -6.3924   13.9255 C   0  0  0  0  0  0  0  0  0  0  0  0
   14.9040   -6.9738   12.9828 N   0  0  0  0  0  0  0  0  0  0  0  0
  2  1  1  6  0  0  0
  2  3  1  0  0  0  0
  2  5  1  0  0  0  0
  3  4  1  0  0  0  0
  3 17  1  0  0  0  0
  5  6  1  0  0  0  0
  7  6  1  6  0  0  0
  7  8  1  0  0  0  0
  7  9  1  0  0  0  0
 10  9  1  1  0  0  0
 10 11  1  0  0  0  0
 10 12  1  0  0  0  0
 11 16  1  0  0  0  0
 12 13  1  6  0  0  0
 12 14  1  0  0  0  0
 14 15  1  6  0  0  0
 14 16  1  0  0  0  0
 16 27  1  1  0  0  0
 18 19  2  0  0  0  0
 18 23  1  0  0  0  0
 19 20  1  0  0  0  0
 20 21  2  0  0  0  0
 21 22  1  0  0  0  0
 21 27  1  0  0  0  0
 22 23  2  0  0  0  0
 22 25  1  0  0  0  0
 23 24  1  0  0  0  0
 25 26  2  0  0  0  0
 26 27  1  0  0  0  0
M  END
>  <CHROM.1>
-15.79268799,-69.65257734,-177.13191677,-179.66619313,-91.86615548,158.54579591
-10.19858230,16.63520390,-7.40762369,10.66088113,1.16499206,-0.82898984,-1.83952626

>  <Name>
ligand

>  <RI>
0

>  <Rbt.Current_Directory>
/home/itssahil/PROJECTS/Mol_Feturizer/New_Systems/rnas/3GX5

>  <Rbt.Executable>
rbdock ($Id: //depot/dev/client3/rdock/2013.1/src/exe/rbdock.cxx#4 $)

>  <Rbt.Library>
libRbt.so (2013.1, Build901 2013/11/27)

>  <Rbt.Parameter_File>
/export/apps/rDock/src/rDock_2013.1_src/data/scripts/dock_solv.prm

>  <Rbt.Receptor>
prm/pocket_docking_7.prm

>  <SCORE>
-6.13638

>  <SCORE.INTER>
-6.63054

>  <SCORE.INTER.CONST>
1

>  <SCORE.INTER.POLAR>
0

>  <SCORE.INTER.ROT>
7

>  <SCORE.INTER.SOLV>
12.5534

>  <SCORE.INTER.VDW>
-16.8715

>  <SCORE.INTER.norm>
-0.245576

>  <SCORE.INTRA>
0.494159

>  <SCORE.INTRA.DIHEDRAL>
2.62684

>  <SCORE.INTRA.DIHEDRAL.0>
4.28829

>  <SCORE.INTRA.POLAR>
0

>  <SCORE.INTRA.POLAR.0>
0

>  <SCORE.INTRA.REPUL>
0

>  <SCORE.INTRA.REPUL.0>
0

>  <SCORE.INTRA.SOLV>
-0.487892

>  <SCORE.INTRA.SOLV.lig_0>
-48.6018

>  <SCORE.INTRA.VDW>
-0.575316

>  <SCORE.INTRA.VDW.0>
-2.1506

>  <SCORE.INTRA.norm>
0.0183022

>  <SCORE.RESTR>
0

>  <SCORE.RESTR.CAVITY>
0

>  <SCORE.RESTR.norm>
0

>  <SCORE.SYSTEM>
0

>  <SCORE.SYSTEM.CONST>
0

>  <SCORE.SYSTEM.DIHEDRAL>
0

>  <SCORE.SYSTEM.SOLV>
0

>  <SCORE.SYSTEM.norm>
0

>  <SCORE.heavy>
27

>  <SCORE.norm>
-0.227273

>  <RMSD>
7.496

$$$$
ligand
 OpenBabel11021811483D
libRbt.so/2013.1/901 2013/11/27
 27 29  0  0  0  0  0  0  0  0999 V2000
   14.0960   -2.2738    8.2357 N   0  0  0  0  0  0  0  0  0  0  0  0
   14.2889   -3.6567    7.7951 C   0  0  2  0  0  0  0  0  0  0  0  0
   13.7664   -3.9867    6.3948 C   0  0  0  0  0  0  0  0  0  0  0  0
   12.8330   -3.3267    5.9400 O   0  0  0  0  0  0  0  0  0  0  0  0
   13.7333   -4.6349    8.8165 C   0  0  0  0  0  0  0  0  0  0  0  0
   14.3538   -4.4242   10.1869 C   0  0  0  0  0  0  0  0  0  0  0  0
   14.0414   -5.8429   11.2521 S   0  0  2  0  0  0  0  0  0  0  0  0
   14.9091   -5.3117   12.7434 C   0  0  0  0  0  0  0  0  0  0  0  0
   15.2523   -7.0170   10.6011 C   0  0  0  0  0  0  0  0  0  0  0  0
   14.8245   -8.4462   10.8793 C   0  0  1  0  0  0  0  0  0  0  0  0
   14.4251   -8.5924   12.2229 O   0  0  0  0  0  0  0  0  0  0  0  0
   13.6199   -8.8680   10.0612 C   0  0  1  0  0  0  0  0  0  0  0  0
   14.0774   -9.4852    8.8844 O   0  0  0  0  0  0  0  0  0  0  0  0
   12.9124   -9.8630   10.9587 C   0  0  1  0  0  0  0  0  0  0  0  0
   13.2623  -11.1542   10.5134 O   0  0  0  0  0  0  0  0  0  0  0  0
   13.4520   -9.6116   12.3684 C   0  0  2  0  0  0  0  0  0  0  0  0
   14.2358   -4.8917    5.6995 O   0  0  0  0  0  0  0  0  0  0  0  0
    9.0226  -10.6036   14.9789 N   0  0  0  0  0  0  0  0  0  0  0  0
    9.7913  -11.4844   14.2576 C   0  0  0  0  0  0  0  0  0  0  0  0
   10.9321  -11.0287   13.6342 N   0  0  0  0  0  0  0  0  0  0  0  0
   11.3075   -9.7330   13.7233 C   0  0  0  0  0  0  0  0  0  0  0  0
   10.5490   -8.8347   14.4597 C   0  0  0  0  0  0  0  0  0  0  0  0
    9.3869   -9.2783   15.0874 C   0  0  0  0  0  0  0  0  0  0  0  0
    8.6279   -8.4441   15.7985 N   0  0  0  0  0  0  0  0  0  0  0  0
   11.1534   -7.6207   14.3877 N   0  0  0  0  0  0  0  0  0  0  0  0
   12.2737   -7.7495   13.6401 C   0  0  0  0  0  0  0  0  0  0  0  0
   12.3878   -9.0540   13.2265 N   0  0  0  0  0  0  0  0  0  0  0  0
  2  1  1  1  0  0  0
  2  3  1  0  0  0  0
  2  5  1  0  0  0  0
  3  4  1  0  0  0  0
  3 17  1  0  0  0  0
  5  6  1  0  0  0  0
  7  6  1  6  0  0  0
  7  8  1  0  0  0  0
  7  9  1  0  0  0  0
 10  9  1  1  0  0  0
 10 11  1  0  0  0  0
 10 12  1  0  0  0  0
 11 16  1  0  0  0  0
 12 13  1  6  0  0  0
 12 14  1  0  0  0  0
 14 15  1  6  0  0  0
 14 16  1  0  0  0  0
 16 27  1  1  0  0  0
 18 19  2  0  0  0  0
 18 23  1  0  0  0  0
 19 20  1  0  0  0  0
 20 21  2  0  0  0  0
 21 22  1  0  0  0  0
 21 27  1  0  0  0  0
 22 23  2  0  0  0  0
 22 25  1  0  0  0  0
 23 24  1  0  0  0  0
 25 26  2  0  0  0  0
 26 27  1  0  0  0  0
M  END
>  <CHROM.1>
-26.86365893,-56.43477264,-164.42011324,178.88543058,-155.21474361,-47.42759198
-173.83177768,12.84994043,-7.47606638,11.25418522,0.79634234,0.99615418,-0.17430357

>  <Name>
ligand

>  <RI>
0

>  <Rbt.Current_Directory>
/home/itssahil/PROJECTS/Mol_Feturizer/New_Systems/rnas/3GX5

>  <Rbt.Executable>
rbdock ($Id: //depot/dev/client3/rdock/2013.1/src/exe/rbdock.cxx#4 $)

>  <Rbt.Library>
libRbt.so (2013.1, Build901 2013/11/27)

>  <Rbt.Parameter_File>
/export/apps/rDock/src/rDock_2013.1_src/data/scripts/dock_solv.prm

>  <Rbt.Receptor>
prm/pocket_docking_8.prm

>  <SCORE>
-7.44652

>  <SCORE.INTER>
-8.18795

>  <SCORE.INTER.CONST>
1

>  <SCORE.INTER.POLAR>
0

>  <SCORE.INTER.ROT>
7

>  <SCORE.INTER.SOLV>
13.0579

>  <SCORE.INTER.VDW>
-18.0779

>  <SCORE.INTER.norm>
-0.303257

>  <SCORE.INTRA>
0.741427

>  <SCORE.INTRA.DIHEDRAL>
3.32397

>  <SCORE.INTRA.DIHEDRAL.0>
4.28829

>  <SCORE.INTRA.POLAR>
0

>  <SCORE.INTRA.POLAR.0>
0

>  <SCORE.INTRA.REPUL>
0

>  <SCORE.INTRA.REPUL.0>
0

>  <SCORE.INTRA.SOLV>
-0.337837

>  <SCORE.INTRA.SOLV.lig_0>
-48.6018

>  <SCORE.INTRA.VDW>
-0.751637

>  <SCORE.INTRA.VDW.0>
-2.1506

>  <SCORE.INTRA.norm>
0.0274603

>  <SCORE.RESTR>
0

>  <SCORE.RESTR.CAVITY>
0

>  <SCORE.RESTR.norm>
0

>  <SCORE.SYSTEM>
0

>  <SCORE.SYSTEM.CONST>
0

>  <SCORE.SYSTEM.DIHEDRAL>
0

>  <SCORE.SYSTEM.SOLV>
0

>  <SCORE.SYSTEM.norm>
0

>  <SCORE.heavy>
27

>  <SCORE.norm>
-0.275797

>  <RMSD>
7.563

$$$$
ligand
 OpenBabel11021811483D
libRbt.so/2013.1/901 2013/11/27
 27 29  0  0  0  0  0  0  0  0999 V2000
   15.9542   -8.7881    5.1978 N   0  0  0  0  0  0  0  0  0  0  0  0
   14.5863   -8.9910    4.7165 C   0  0  2  0  0  0  0  0  0  0  0  0
   14.3446   -8.6573    3.2424 C   0  0  0  0  0  0  0  0  0  0  0  0
   14.9925   -9.2567    2.3853 O   0  0  0  0  0  0  0  0  0  0  0  0
   13.5861   -8.2637    5.5994 C   0  0  0  0  0  0  0  0  0  0  0  0
   13.7756   -6.7580    5.5351 C   0  0  0  0  0  0  0  0  0  0  0  0
   13.0065   -5.9584    6.9544 S   0  0  2  0  0  0  0  0  0  0  0  0
   13.3173   -4.2278    6.5451 C   0  0  0  0  0  0  0  0  0  0  0  0
   14.2870   -6.2065    8.2064 C   0  0  0  0  0  0  0  0  0  0  0  0
   14.0701   -5.2851    9.3926 C   0  0  1  0  0  0  0  0  0  0  0  0
   13.0511   -5.7838   10.2288 O   0  0  0  0  0  0  0  0  0  0  0  0
   15.2928   -5.1760   10.2822 C   0  0  1  0  0  0  0  0  0  0  0  0
   16.0487   -4.0681    9.8626 O   0  0  0  0  0  0  0  0  0  0  0  0
   14.7085   -4.9462   11.6614 C   0  0  1  0  0  0  0  0  0  0  0  0
   14.7900   -3.5641   11.9278 O   0  0  0  0  0  0  0  0  0  0  0  0
   13.2485   -5.3964   11.5771 C   0  0  2  0  0  0  0  0  0  0  0  0
   13.5305   -7.8073    2.8715 O   0  0  0  0  0  0  0  0  0  0  0  0
   10.4881   -9.8052   12.1777 N   0  0  0  0  0  0  0  0  0  0  0  0
   10.3766   -8.8705   11.1772 C   0  0  0  0  0  0  0  0  0  0  0  0
   11.1990   -7.7654   11.1933 N   0  0  0  0  0  0  0  0  0  0  0  0
   12.1131   -7.5883   12.1734 C   0  0  0  0  0  0  0  0  0  0  0  0
   12.2470   -8.5306   13.1828 C   0  0  0  0  0  0  0  0  0  0  0  0
   11.4153   -9.6485   13.1859 C   0  0  0  0  0  0  0  0  0  0  0  0
   11.5089  -10.5727   14.1423 N   0  0  0  0  0  0  0  0  0  0  0  0
   13.2326   -8.1110   14.0174 N   0  0  0  0  0  0  0  0  0  0  0  0
   13.7220   -6.9431   13.5409 C   0  0  0  0  0  0  0  0  0  0  0  0
   13.0439   -6.6088   12.3946 N   0  0  0  0  0  0  0  0  0  0  0  0
  2  1  1  1  0  0  0
  2  3  1  0  0  0  0
  2  5  1  0  0  0  0
  3  4  1  0  0  0  0
  3 17  1  0  0  0  0
  5  6  1  0  0  0  0
  7  6  1  6  0  0  0
  7  8  1  0  0  0  0
  7  9  1  0  0  0  0
 10  9  1  6  0  0  0
 10 11  1  0  0  0  0
 10 12  1  0  0  0  0
 11 16  1  0  0  0  0
 12 13  1  6  0  0  0
 12 14  1  0  0  0  0
 14 15  1  6  0  0  0
 14 16  1  0  0  0  0
 16 27  1  1  0  0  0
 18 19  2  0  0  0  0
 18 23  1  0  0  0  0
 19 20  1  0  0  0  0
 20 21  2  0  0  0  0
 21 22  1  0  0  0  0
 21 27  1  0  0  0  0
 22 23  2  0  0  0  0
 22 25  1  0  0  0  0
 23 24  1  0  0  0  0
 25 26  2  0  0  0  0
 26 27  1  0  0  0  0
M  END
>  <CHROM.1>
59.19362596,64.67252330,-160.74984094,-177.02956814,163.62606684,78.23230132
-37.67181486,13.43338461,-7.05679868,9.16067188,1.14194506,-1.05712240,-1.96374304

>  <Name>
ligand

>  <RI>
0

>  <Rbt.Current_Directory>
/home/itssahil/PROJECTS/Mol_Feturizer/New_Systems/rnas/3GX5

>  <Rbt.Executable>
rbdock ($Id: //depot/dev/client3/rdock/2013.1/src/exe/rbdock.cxx#4 $)

>  <Rbt.Library>
libRbt.so (2013.1, Build901 2013/11/27)

>  <Rbt.Parameter_File>
/export/apps/rDock/src/rDock_2013.1_src/data/scripts/dock_solv.prm

>  <Rbt.Receptor>
prm/pocket_docking_6.prm

>  <SCORE>
-13.651

>  <SCORE.INTER>
-16.0335

>  <SCORE.INTER.CONST>
1

>  <SCORE.INTER.POLAR>
0

>  <SCORE.INTER.ROT>
7

>  <SCORE.INTER.SOLV>
9.30002

>  <SCORE.INTER.VDW>
-22.0557

>  <SCORE.INTER.norm>
-0.593833

>  <SCORE.INTRA>
2.38249

>  <SCORE.INTRA.DIHEDRAL>
2.13918

>  <SCORE.INTRA.DIHEDRAL.0>
4.28829

>  <SCORE.INTRA.POLAR>
0

>  <SCORE.INTRA.POLAR.0>
0

>  <SCORE.INTRA.REPUL>
0

>  <SCORE.INTRA.REPUL.0>
0

>  <SCORE.INTRA.SOLV>
-0.204302

>  <SCORE.INTRA.SOLV.lig_0>
-48.6018

>  <SCORE.INTRA.VDW>
1.41505

>  <SCORE.INTRA.VDW.0>
-2.1506

>  <SCORE.INTRA.norm>
0.0882402

>  <SCORE.RESTR>
0

>  <SCORE.RESTR.CAVITY>
0

>  <SCORE.RESTR.norm>
0

>  <SCORE.SYSTEM>
0

>  <SCORE.SYSTEM.CONST>
0

>  <SCORE.SYSTEM.DIHEDRAL>
0

>  <SCORE.SYSTEM.SOLV>
0

>  <SCORE.SYSTEM.norm>
0

>  <SCORE.heavy>
27

>  <SCORE.norm>
-0.505593

>  <RMSD>
7.582

$$$$
ligand
 OpenBabel11021811483D
libRbt.so/2013.1/901 2013/11/27
 27 29  0  0  0  0  0  0  0  0999 V2000
   18.5424   -9.1959    4.1797 N   0  0  0  0  0  0  0  0  0  0  0  0
   17.0911   -9.3525    4.2937 C   0  0  2  0  0  0  0  0  0  0  0  0
   16.3495   -9.6413    2.9863 C   0  0  0  0  0  0  0  0  0  0  0  0
   16.9351   -9.4575    1.9200 O   0  0  0  0  0  0  0  0  0  0  0  0
   16.4707   -8.1634    5.0078 C   0  0  0  0  0  0  0  0  0  0  0  0
   17.0278   -8.0021    6.4118 C   0  0  0  0  0  0  0  0  0  0  0  0
   16.2362   -6.6216    7.2561 S   0  0  2  0  0  0  0  0  0  0  0  0
   17.2007   -5.2504    6.5863 C   0  0  0  0  0  0  0  0  0  0  0  0
   16.9969   -6.7549    8.8907 C   0  0  0  0  0  0  0  0  0  0  0  0
   16.4097   -5.7326    9.8463 C   0  0  1  0  0  0  0  0  0  0  0  0
   15.0349   -5.9707   10.0446 O   0  0  0  0  0  0  0  0  0  0  0  0
   17.0258   -5.8006   11.2298 C   0  0  1  0  0  0  0  0  0  0  0  0
   18.0930   -4.8879   11.2850 O   0  0  0  0  0  0  0  0  0  0  0  0
   15.8949   -5.3725   12.1430 C   0  0  1  0  0  0  0  0  0  0  0  0
   16.1067   -4.0169   12.4677 O   0  0  0  0  0  0  0  0  0  0  0  0
   14.6119   -5.5398   11.3262 C   0  0  2  0  0  0  0  0  0  0  0  0
   15.1845  -10.0464    2.9511 O   0  0  0  0  0  0  0  0  0  0  0  0
   14.5376  -10.5395   12.8804 N   0  0  0  0  0  0  0  0  0  0  0  0
   15.6060   -9.8218   12.4002 C   0  0  0  0  0  0  0  0  0  0  0  0
   15.4246   -8.5051   12.0379 N   0  0  0  0  0  0  0  0  0  0  0  0
   14.2163   -7.9092   12.1500 C   0  0  0  0  0  0  0  0  0  0  0  0
   13.1313   -8.6170   12.6464 C   0  0  0  0  0  0  0  0  0  0  0  0
   13.2965   -9.9526   13.0073 C   0  0  0  0  0  0  0  0  0  0  0  0
   12.2766  -10.6681   13.4820 N   0  0  0  0  0  0  0  0  0  0  0  0
   12.0594   -7.7833   12.6590 N   0  0  0  0  0  0  0  0  0  0  0  0
   12.4579   -6.5748   12.1992 C   0  0  0  0  0  0  0  0  0  0  0  0
   13.7936   -6.6339   11.8861 N   0  0  0  0  0  0  0  0  0  0  0  0
  2  1  1  6  0  0  0
  2  3  1  0  0  0  0
  2  5  1  0  0  0  0
  3  4  1  0  0  0  0
  3 17  1  0  0  0  0
  5  6  1  0  0  0  0
  7  6  1  6  0  0  0
  7  8  1  0  0  0  0
  7  9  1  0  0  0  0
 10  9  1  6  0  0  0
 10 11  1  0  0  0  0
 10 12  1  0  0  0  0
 11 16  1  0  0  0  0
 12 13  1  6  0  0  0
 12 14  1  0  0  0  0
 14 15  1  6  0  0  0
 14 16  1  0  0  0  0
 16 27  1  1  0  0  0
 18 19  2  0  0  0  0
 18 23  1  0  0  0  0
 19 20  1  0  0  0  0
 20 21  2  0  0  0  0
 21 22  1  0  0  0  0
 21 27  1  0  0  0  0
 22 23  2  0  0  0  0
 22 25  1  0  0  0  0
 23 24  1  0  0  0  0
 25 26  2  0  0  0  0
 26 27  1  0  0  0  0
M  END
>  <CHROM.1>
-14.58647439,-59.98448523,-178.05883571,-82.03955485,-176.02834583,63.03676823
61.50058155,15.57255319,-7.56826163,9.21332725,1.04152218,-0.96175341,-2.15357496

>  <Name>
ligand

>  <RI>
0

>  <Rbt.Current_Directory>
/home/itssahil/PROJECTS/Mol_Feturizer/New_Systems/rnas/3GX5

>  <Rbt.Executable>
rbdock ($Id: //depot/dev/client3/rdock/2013.1/src/exe/rbdock.cxx#4 $)

>  <Rbt.Library>
libRbt.so (2013.1, Build901 2013/11/27)

>  <Rbt.Parameter_File>
/export/apps/rDock/src/rDock_2013.1_src/data/scripts/dock_solv.prm

>  <Rbt.Receptor>
prm/pocket_docking_7.prm

>  <SCORE>
-7.07784

>  <SCORE.INTER>
-6.2689

>  <SCORE.INTER.CONST>
1

>  <SCORE.INTER.POLAR>
0

>  <SCORE.INTER.ROT>
7

>  <SCORE.INTER.SOLV>
9.67554

>  <SCORE.INTER.VDW>
-15.6711

>  <SCORE.INTER.norm>
-0.232181

>  <SCORE.INTRA>
-0.808946

>  <SCORE.INTRA.DIHEDRAL>
0.138163

>  <SCORE.INTRA.DIHEDRAL.0>
4.28829

>  <SCORE.INTRA.POLAR>
0

>  <SCORE.INTRA.POLAR.0>
0

>  <SCORE.INTRA.REPUL>
0

>  <SCORE.INTRA.REPUL.0>
0

>  <SCORE.INTRA.SOLV>
-0.555553

>  <SCORE.INTRA.SOLV.lig_0>
-48.6018

>  <SCORE.INTRA.VDW>
-0.600251

>  <SCORE.INTRA.VDW.0>
-2.1506

>  <SCORE.INTRA.norm>
-0.029961

>  <SCORE.RESTR>
0

>  <SCORE.RESTR.CAVITY>
0

>  <SCORE.RESTR.norm>
0

>  <SCORE.SYSTEM>
0

>  <SCORE.SYSTEM.CONST>
0

>  <SCORE.SYSTEM.DIHEDRAL>
0

>  <SCORE.SYSTEM.SOLV>
0

>  <SCORE.SYSTEM.norm>
0

>  <SCORE.heavy>
27

>  <SCORE.norm>
-0.262142

>  <RMSD>
7.635

$$$$
ligand
 OpenBabel11021811483D
libRbt.so/2013.1/901 2013/11/27
 27 29  0  0  0  0  0  0  0  0999 V2000
   17.9490   -6.8389    7.6313 N   0  0  0  0  0  0  0  0  0  0  0  0
   17.3672   -5.9700    6.6064 C   0  0  2  0  0  0  0  0  0  0  0  0
   16.9814   -4.5630    7.0693 C   0  0  0  0  0  0  0  0  0  0  0  0
   17.8421   -3.6838    7.0732 O   0  0  0  0  0  0  0  0  0  0  0  0
   16.1918   -6.6480    5.9225 C   0  0  0  0  0  0  0  0  0  0  0  0
   15.1365   -7.0817    6.9253 C   0  0  0  0  0  0  0  0  0  0  0  0
   15.1793   -8.8670    7.1624 S   0  0  2  0  0  0  0  0  0  0  0  0
   14.2342   -9.3973    5.7186 C   0  0  0  0  0  0  0  0  0  0  0  0
   13.9135   -9.0605    8.4387 C   0  0  0  0  0  0  0  0  0  0  0  0
   14.5016   -8.8467    9.8213 C   0  0  1  0  0  0  0  0  0  0  0  0
   13.4800   -8.6258   10.7667 O   0  0  0  0  0  0  0  0  0  0  0  0
   15.2565  -10.0582   10.3317 C   0  0  1  0  0  0  0  0  0  0  0  0
   16.6123   -9.9111    9.9920 O   0  0  0  0  0  0  0  0  0  0  0  0
   15.0606   -9.9917   11.8328 C   0  0  1  0  0  0  0  0  0  0  0  0
   16.2308   -9.4321   12.3854 O   0  0  0  0  0  0  0  0  0  0  0  0
   13.8608   -9.0690   12.0573 C   0  0  2  0  0  0  0  0  0  0  0  0
   15.8437   -4.2689    7.4459 O   0  0  0  0  0  0  0  0  0  0  0  0
    9.7919   -9.0817   15.3531 N   0  0  0  0  0  0  0  0  0  0  0  0
   10.6797   -8.0611   15.1138 C   0  0  0  0  0  0  0  0  0  0  0  0
   11.6950   -8.2515   14.2024 N   0  0  0  0  0  0  0  0  0  0  0  0
   11.8293   -9.4222   13.5397 C   0  0  0  0  0  0  0  0  0  0  0  0
   10.9322  -10.4571   13.7605 C   0  0  0  0  0  0  0  0  0  0  0  0
    9.9061  -10.2833   14.6869 C   0  0  0  0  0  0  0  0  0  0  0  0
    9.0282  -11.2565   14.9316 N   0  0  0  0  0  0  0  0  0  0  0  0
   11.2925  -11.4983   12.9666 N   0  0  0  0  0  0  0  0  0  0  0  0
   12.3784  -11.1277   12.2496 C   0  0  0  0  0  0  0  0  0  0  0  0
   12.7196   -9.8413   12.5876 N   0  0  0  0  0  0  0  0  0  0  0  0
  2  1  1  1  0  0  0
  2  3  1  0  0  0  0
  2  5  1  0  0  0  0
  3  4  1  0  0  0  0
  3 17  1  0  0  0  0
  5  6  1  0  0  0  0
  7  6  1  6  0  0  0
  7  8  1  0  0  0  0
  7  9  1  0  0  0  0
 10  9  1  6  0  0  0
 10 11  1  0  0  0  0
 10 12  1  0  0  0  0
 11 16  1  0  0  0  0
 12 13  1  1  0  0  0
 12 14  1  0  0  0  0
 14 15  1  1  0  0  0
 14 16  1  0  0  0  0
 16 27  1  6  0  0  0
 18 19  2  0  0  0  0
 18 23  1  0  0  0  0
 19 20  1  0  0  0  0
 20 21  2  0  0  0  0
 21 22  1  0  0  0  0
 21 27  1  0  0  0  0
 22 23  2  0  0  0  0
 22 25  1  0  0  0  0
 23 24  1  0  0  0  0
 25 26  2  0  0  0  0
 26 27  1  0  0  0  0
M  END
>  <CHROM.1>
85.27173554,55.88937861,-105.64247188,-81.15521649,-85.28486257,163.57228719
-104.63868554,14.07328325,-8.54223001,10.35414512,0.03908463,0.96758895,0.42266855

>  <Name>
ligand

>  <RI>
0

>  <Rbt.Current_Directory>
/home/itssahil/PROJECTS/Mol_Feturizer/New_Systems/rnas/3GX5

>  <Rbt.Executable>
rbdock ($Id: //depot/dev/client3/rdock/2013.1/src/exe/rbdock.cxx#4 $)

>  <Rbt.Library>
libRbt.so (2013.1, Build901 2013/11/27)

>  <Rbt.Parameter_File>
/export/apps/rDock/src/rDock_2013.1_src/data/scripts/dock_solv.prm

>  <Rbt.Receptor>
prm/pocket_docking_8.prm

>  <SCORE>
-4.13235

>  <SCORE.INTER>
-7.77904

>  <SCORE.INTER.CONST>
1

>  <SCORE.INTER.POLAR>
0

>  <SCORE.INTER.ROT>
7

>  <SCORE.INTER.SOLV>
9.07857

>  <SCORE.INTER.VDW>
-16.4789

>  <SCORE.INTER.norm>
-0.288113

>  <SCORE.INTRA>
3.64669

>  <SCORE.INTRA.DIHEDRAL>
6.10954

>  <SCORE.INTRA.DIHEDRAL.0>
4.28829

>  <SCORE.INTRA.POLAR>
0

>  <SCORE.INTRA.POLAR.0>
0

>  <SCORE.INTRA.REPUL>
0.0158182

>  <SCORE.INTRA.REPUL.0>
0

>  <SCORE.INTRA.SOLV>
0.576272

>  <SCORE.INTRA.SOLV.lig_0>
-48.6018

>  <SCORE.INTRA.VDW>
0.224695

>  <SCORE.INTRA.VDW.0>
-2.1506

>  <SCORE.INTRA.norm>
0.135063

>  <SCORE.RESTR>
0

>  <SCORE.RESTR.CAVITY>
0

>  <SCORE.RESTR.norm>
0

>  <SCORE.SYSTEM>
0

>  <SCORE.SYSTEM.CONST>
0

>  <SCORE.SYSTEM.DIHEDRAL>
0

>  <SCORE.SYSTEM.SOLV>
0

>  <SCORE.SYSTEM.norm>
0

>  <SCORE.heavy>
27

>  <SCORE.norm>
-0.15305

>  <RMSD>
7.640

$$$$
ligand
 OpenBabel11021811483D
libRbt.so/2013.1/901 2013/11/27
 27 29  0  0  0  0  0  0  0  0999 V2000
   14.4852   -2.2975    8.1734 N   0  0  0  0  0  0  0  0  0  0  0  0
   14.3101   -3.4912    7.3438 C   0  0  2  0  0  0  0  0  0  0  0  0
   12.9523   -3.6247    6.6501 C   0  0  0  0  0  0  0  0  0  0  0  0
   11.9367   -3.3131    7.2707 O   0  0  0  0  0  0  0  0  0  0  0  0
   14.6344   -4.7510    8.1291 C   0  0  0  0  0  0  0  0  0  0  0  0
   13.7998   -4.8510    9.3943 C   0  0  0  0  0  0  0  0  0  0  0  0
   13.8643   -6.5199   10.0694 S   0  0  2  0  0  0  0  0  0  0  0  0
   12.7674   -7.3678    8.9132 C   0  0  0  0  0  0  0  0  0  0  0  0
   12.7438   -6.3494   11.4779 C   0  0  0  0  0  0  0  0  0  0  0  0
   12.1635   -7.6945   11.8741 C   0  0  1  0  0  0  0  0  0  0  0  0
   13.1857   -8.5767   12.2779 O   0  0  0  0  0  0  0  0  0  0  0  0
   11.2284   -7.6028   13.0638 C   0  0  1  0  0  0  0  0  0  0  0  0
    9.9165   -7.4447   12.5852 O   0  0  0  0  0  0  0  0  0  0  0  0
   11.3993   -8.9412   13.7533 C   0  0  1  0  0  0  0  0  0  0  0  0
   10.3120   -9.7533   13.3709 O   0  0  0  0  0  0  0  0  0  0  0  0
   12.7162   -9.5169   13.2279 C   0  0  2  0  0  0  0  0  0  0  0  0
   12.8272   -4.0374    5.4939 O   0  0  0  0  0  0  0  0  0  0  0  0
   14.5573   -7.1467   17.5187 N   0  0  0  0  0  0  0  0  0  0  0  0
   13.4901   -6.7703   16.7400 C   0  0  0  0  0  0  0  0  0  0  0  0
   13.1583   -7.5297   15.6396 N   0  0  0  0  0  0  0  0  0  0  0  0
   13.8624   -8.6376   15.3166 C   0  0  0  0  0  0  0  0  0  0  0  0
   14.9341   -9.0381   16.1013 C   0  0  0  0  0  0  0  0  0  0  0  0
   15.2883   -8.2747   17.2117 C   0  0  0  0  0  0  0  0  0  0  0  0
   16.3159   -8.6231   17.9865 N   0  0  0  0  0  0  0  0  0  0  0  0
   15.4476  -10.1724   15.5591 N   0  0  0  0  0  0  0  0  0  0  0  0
   14.7111  -10.4918   14.4700 C   0  0  0  0  0  0  0  0  0  0  0  0
   13.7202   -9.5548   14.3098 N   0  0  0  0  0  0  0  0  0  0  0  0
  2  1  1  1  0  0  0
  2  3  1  0  0  0  0
  2  5  1  0  0  0  0
  3  4  1  0  0  0  0
  3 17  1  0  0  0  0
  5  6  1  0  0  0  0
  7  6  1  6  0  0  0
  7  8  1  0  0  0  0
  7  9  1  0  0  0  0
 10  9  1  1  0  0  0
 10 11  1  0  0  0  0
 10 12  1  0  0  0  0
 11 16  1  0  0  0  0
 12 13  1  6  0  0  0
 12 14  1  0  0  0  0
 14 15  1  6  0  0  0
 14 16  1  0  0  0  0
 16 27  1  1  0  0  0
 18 19  2  0  0  0  0
 18 23  1  0  0  0  0
 19 20  1  0  0  0  0
 20 21  2  0  0  0  0
 21 22  1  0  0  0  0
 21 27  1  0  0  0  0
 22 23  2  0  0  0  0
 22 25  1  0  0  0  0
 23 24  1  0  0  0  0
 25 26  2  0  0  0  0
 26 27  1  0  0  0  0
M  END
>  <CHROM.1>
-40.25733339,56.12279282,164.78645742,-75.54921925,156.17202359,61.95550145
78.54276183,13.32474072,-7.05952008,12.14007447,-1.66940021,0.55886183,2.12776685

>  <Name>
ligand

>  <RI>
0

>  <Rbt.Current_Directory>
/home/itssahil/PROJECTS/Mol_Feturizer/New_Systems/rnas/3GX5

>  <Rbt.Executable>
rbdock ($Id: //depot/dev/client3/rdock/2013.1/src/exe/rbdock.cxx#4 $)

>  <Rbt.Library>
libRbt.so (2013.1, Build901 2013/11/27)

>  <Rbt.Parameter_File>
/export/apps/rDock/src/rDock_2013.1_src/data/scripts/dock_solv.prm

>  <Rbt.Receptor>
prm/pocket_docking_7.prm

>  <SCORE>
-9.95743

>  <SCORE.INTER>
-10.4549

>  <SCORE.INTER.CONST>
1

>  <SCORE.INTER.POLAR>
0

>  <SCORE.INTER.ROT>
7

>  <SCORE.INTER.SOLV>
15.7328

>  <SCORE.INTER.VDW>
-20.4808

>  <SCORE.INTER.norm>
-0.387218

>  <SCORE.INTRA>
0.497457

>  <SCORE.INTRA.DIHEDRAL>
0.754662

>  <SCORE.INTRA.DIHEDRAL.0>
4.28829

>  <SCORE.INTRA.POLAR>
0

>  <SCORE.INTRA.POLAR.0>
0

>  <SCORE.INTRA.REPUL>
0

>  <SCORE.INTRA.REPUL.0>
0

>  <SCORE.INTRA.SOLV>
-0.498936

>  <SCORE.INTRA.SOLV.lig_0>
-48.6018

>  <SCORE.INTRA.VDW>
0.369594

>  <SCORE.INTRA.VDW.0>
-2.1506

>  <SCORE.INTRA.norm>
0.0184243

>  <SCORE.RESTR>
0

>  <SCORE.RESTR.CAVITY>
0

>  <SCORE.RESTR.norm>
0

>  <SCORE.SYSTEM>
0

>  <SCORE.SYSTEM.CONST>
0

>  <SCORE.SYSTEM.DIHEDRAL>
0

>  <SCORE.SYSTEM.SOLV>
0

>  <SCORE.SYSTEM.norm>
0

>  <SCORE.heavy>
27

>  <SCORE.norm>
-0.368794

>  <RMSD>
7.984

$$$$
ligand
 OpenBabel11021811483D
libRbt.so/2013.1/901 2013/11/27
 27 29  0  0  0  0  0  0  0  0999 V2000
   15.3630   -3.4901    8.1340 N   0  0  0  0  0  0  0  0  0  0  0  0
   14.3346   -4.5308    8.0792 C   0  0  2  0  0  0  0  0  0  0  0  0
   13.0724   -4.1763    7.2892 C   0  0  0  0  0  0  0  0  0  0  0  0
   12.6063   -3.0426    7.3948 O   0  0  0  0  0  0  0  0  0  0  0  0
   13.9735   -5.0120    9.4745 C   0  0  0  0  0  0  0  0  0  0  0  0
   13.0708   -6.2329    9.4282 C   0  0  0  0  0  0  0  0  0  0  0  0
   12.7425   -6.8453   11.0902 S   0  0  2  0  0  0  0  0  0  0  0  0
   14.2694   -7.7591   11.3944 C   0  0  0  0  0  0  0  0  0  0  0  0
   11.6342   -8.2249   10.7202 C   0  0  0  0  0  0  0  0  0  0  0  0
   10.8863   -8.6673   11.9644 C   0  0  1  0  0  0  0  0  0  0  0  0
   11.6239   -9.6409   12.6673 O   0  0  0  0  0  0  0  0  0  0  0  0
   10.6767   -7.5392   12.9553 C   0  0  1  0  0  0  0  0  0  0  0  0
    9.4255   -6.9521   12.7004 O   0  0  0  0  0  0  0  0  0  0  0  0
   10.6861   -8.2406   14.2984 C   0  0  1  0  0  0  0  0  0  0  0  0
    9.3434   -8.4067   14.6955 O   0  0  0  0  0  0  0  0  0  0  0  0
   11.3512   -9.5973   14.0568 C   0  0  2  0  0  0  0  0  0  0  0  0
   12.4943   -4.9797    6.5522 O   0  0  0  0  0  0  0  0  0  0  0  0
   14.4092   -7.4635   17.7329 N   0  0  0  0  0  0  0  0  0  0  0  0
   13.1284   -7.1047   17.3893 C   0  0  0  0  0  0  0  0  0  0  0  0
   12.4831   -7.7920   16.3848 N   0  0  0  0  0  0  0  0  0  0  0  0
   13.0872   -8.8125   15.7359 C   0  0  0  0  0  0  0  0  0  0  0  0
   14.3752   -9.1954   16.0812 C   0  0  0  0  0  0  0  0  0  0  0  0
   15.0448   -8.5033   17.0882 C   0  0  0  0  0  0  0  0  0  0  0  0
   16.2857   -8.8369   17.4440 N   0  0  0  0  0  0  0  0  0  0  0  0
   14.7281  -10.2381   15.2860 N   0  0  0  0  0  0  0  0  0  0  0  0
   13.6860  -10.5197   14.4703 C   0  0  0  0  0  0  0  0  0  0  0  0
   12.6585   -9.6500   14.7412 N   0  0  0  0  0  0  0  0  0  0  0  0
  2  1  1  1  0  0  0
  2  3  1  0  0  0  0
  2  5  1  0  0  0  0
  3  4  1  0  0  0  0
  3 17  1  0  0  0  0
  5  6  1  0  0  0  0
  7  6  1  6  0  0  0
  7  8  1  0  0  0  0
  7  9  1  0  0  0  0
 10  9  1  6  0  0  0
 10 11  1  0  0  0  0
 10 12  1  0  0  0  0
 11 16  1  0  0  0  0
 12 13  1  6  0  0  0
 12 14  1  0  0  0  0
 14 15  1  6  0  0  0
 14 16  1  0  0  0  0
 16 27  1  1  0  0  0
 18 19  2  0  0  0  0
 18 23  1  0  0  0  0
 19 20  1  0  0  0  0
 20 21  2  0  0  0  0
 21 22  1  0  0  0  0
 21 27  1  0  0  0  0
 22 23  2  0  0  0  0
 22 25  1  0  0  0  0
 23 24  1  0  0  0  0
 25 26  2  0  0  0  0
 26 27  1  0  0  0  0
M  END
>  <CHROM.1>
-40.43307654,-171.23713726,176.42088737,-79.86419639,-163.40119910,-88.59705665
130.65061007,12.81057501,-7.39020143,12.60232908,-1.58968793,0.31175686,2.05626867

>  <Name>
ligand

>  <RI>
0

>  <Rbt.Current_Directory>
/home/itssahil/PROJECTS/Mol_Feturizer/New_Systems/rnas/3GX5

>  <Rbt.Executable>
rbdock ($Id: //depot/dev/client3/rdock/2013.1/src/exe/rbdock.cxx#4 $)

>  <Rbt.Library>
libRbt.so (2013.1, Build901 2013/11/27)

>  <Rbt.Parameter_File>
/export/apps/rDock/src/rDock_2013.1_src/data/scripts/dock_solv.prm

>  <Rbt.Receptor>
prm/pocket_docking_7.prm

>  <SCORE>
-6.32069

>  <SCORE.INTER>
-8.95529

>  <SCORE.INTER.CONST>
1

>  <SCORE.INTER.POLAR>
0

>  <SCORE.INTER.ROT>
7

>  <SCORE.INTER.SOLV>
11.7866

>  <SCORE.INTER.VDW>
-18.1657

>  <SCORE.INTER.norm>
-0.331677

>  <SCORE.INTRA>
2.6346

>  <SCORE.INTRA.DIHEDRAL>
3.86835

>  <SCORE.INTRA.DIHEDRAL.0>
4.28829

>  <SCORE.INTRA.POLAR>
0

>  <SCORE.INTRA.POLAR.0>
0

>  <SCORE.INTRA.REPUL>
0

>  <SCORE.INTRA.REPUL.0>
0

>  <SCORE.INTRA.SOLV>
-0.99146

>  <SCORE.INTRA.SOLV.lig_0>
-48.6018

>  <SCORE.INTRA.VDW>
1.19615

>  <SCORE.INTRA.VDW.0>
-2.1506

>  <SCORE.INTRA.norm>
0.0975777

>  <SCORE.RESTR>
0

>  <SCORE.RESTR.CAVITY>
0

>  <SCORE.RESTR.norm>
0

>  <SCORE.SYSTEM>
0

>  <SCORE.SYSTEM.CONST>
0

>  <SCORE.SYSTEM.DIHEDRAL>
0

>  <SCORE.SYSTEM.SOLV>
0

>  <SCORE.SYSTEM.norm>
0

>  <SCORE.heavy>
27

>  <SCORE.norm>
-0.2341

>  <RMSD>
8.152

$$$$
ligand
 OpenBabel11021811483D
libRbt.so/2013.1/901 2013/11/27
 27 29  0  0  0  0  0  0  0  0999 V2000
   16.0818   -8.1970    4.5678 N   0  0  0  0  0  0  0  0  0  0  0  0
   14.7380   -8.7429    4.3670 C   0  0  2  0  0  0  0  0  0  0  0  0
   14.0665   -8.3832    3.0394 C   0  0  0  0  0  0  0  0  0  0  0  0
   13.4002   -7.3511    2.9731 O   0  0  0  0  0  0  0  0  0  0  0  0
   13.8305   -8.3961    5.5354 C   0  0  0  0  0  0  0  0  0  0  0  0
   14.3212   -9.0231    6.8290 C   0  0  0  0  0  0  0  0  0  0  0  0
   13.1997   -8.6424    8.1864 S   0  0  2  0  0  0  0  0  0  0  0  0
   13.7075   -6.9478    8.5461 C   0  0  0  0  0  0  0  0  0  0  0  0
   14.0259   -9.4997    9.5470 C   0  0  0  0  0  0  0  0  0  0  0  0
   13.0123  -10.1028   10.5019 C   0  0  1  0  0  0  0  0  0  0  0  0
   13.6581  -10.8720   11.4906 O   0  0  0  0  0  0  0  0  0  0  0  0
   12.2297   -9.0535   11.2666 C   0  0  1  0  0  0  0  0  0  0  0  0
   11.0465   -8.7802   10.5593 O   0  0  0  0  0  0  0  0  0  0  0  0
   11.9301   -9.7287   12.5896 C   0  0  1  0  0  0  0  0  0  0  0  0
   10.6051  -10.2069   12.5273 O   0  0  0  0  0  0  0  0  0  0  0  0
   12.9203  -10.8901   12.6999 C   0  0  2  0  0  0  0  0  0  0  0  0
   14.1579   -9.0859    2.0292 O   0  0  0  0  0  0  0  0  0  0  0  0
   17.9607  -10.1959   13.9371 N   0  0  0  0  0  0  0  0  0  0  0  0
   17.4196  -10.4068   12.6922 C   0  0  0  0  0  0  0  0  0  0  0  0
   16.0573  -10.5702   12.5689 N   0  0  0  0  0  0  0  0  0  0  0  0
   15.2468  -10.5236   13.6499 C   0  0  0  0  0  0  0  0  0  0  0  0
   15.7771  -10.2975   14.9117 C   0  0  0  0  0  0  0  0  0  0  0  0
   17.1542  -10.1406   15.0540 C   0  0  0  0  0  0  0  0  0  0  0  0
   17.7023   -9.9283   16.2507 N   0  0  0  0  0  0  0  0  0  0  0  0
   14.7506  -10.2912   15.8009 N   0  0  0  0  0  0  0  0  0  0  0  0
   13.5991  -10.4908   15.1192 C   0  0  0  0  0  0  0  0  0  0  0  0
   13.8883  -10.6296   13.7840 N   0  0  0  0  0  0  0  0  0  0  0  0
  2  1  1  1  0  0  0
  2  3  1  0  0  0  0
  2  5  1  0  0  0  0
  3  4  1  0  0  0  0
  3 17  1  0  0  0  0
  5  6  1  0  0  0  0
  7  6  1  6  0  0  0
  7  8  1  0  0  0  0
  7  9  1  0  0  0  0
 10  9  1  6  0  0  0
 10 11  1  0  0  0  0
 10 12  1  0  0  0  0
 11 16  1  0  0  0  0
 12 13  1  6  0  0  0
 12 14  1  0  0  0  0
 14 15  1  6  0  0  0
 14 16  1  0  0  0  0
 16 27  1  1  0  0  0
 18 19  2  0  0  0  0
 18 23  1  0  0  0  0
 19 20  1  0  0  0  0
 20 21  2  0  0  0  0
 21 22  1  0  0  0  0
 21 27  1  0  0  0  0
 22 23  2  0  0  0  0
 22 25  1  0  0  0  0
 23 24  1  0  0  0  0
 25 26  2  0  0  0  0
 26 27  1  0  0  0  0
M  END
>  <CHROM.1>
-88.74965902,-63.25074715,-178.13067515,-78.21622957,-143.76879329,174.62196580
-5.76105984,14.19607241,-9.45973980,10.17667509,-1.68692392,-0.02926349,1.76321362

>  <Name>
ligand

>  <RI>
0

>  <Rbt.Current_Directory>
/home/itssahil/PROJECTS/Mol_Feturizer/New_Systems/rnas/3GX5

>  <Rbt.Executable>
rbdock ($Id: //depot/dev/client3/rdock/2013.1/src/exe/rbdock.cxx#4 $)

>  <Rbt.Library>
libRbt.so (2013.1, Build901 2013/11/27)

>  <Rbt.Parameter_File>
/export/apps/rDock/src/rDock_2013.1_src/data/scripts/dock_solv.prm

>  <Rbt.Receptor>
prm/pocket_docking_8.prm

>  <SCORE>
-12.6662

>  <SCORE.INTER>
-14.3696

>  <SCORE.INTER.CONST>
1

>  <SCORE.INTER.POLAR>
0

>  <SCORE.INTER.ROT>
7

>  <SCORE.INTER.SOLV>
18.1516

>  <SCORE.INTER.VDW>
-23.8969

>  <SCORE.INTER.norm>
-0.532209

>  <SCORE.INTRA>
1.70346

>  <SCORE.INTRA.DIHEDRAL>
3.23255

>  <SCORE.INTRA.DIHEDRAL.0>
4.28829

>  <SCORE.INTRA.POLAR>
0

>  <SCORE.INTRA.POLAR.0>
0

>  <SCORE.INTRA.REPUL>
0

>  <SCORE.INTRA.REPUL.0>
0

>  <SCORE.INTRA.SOLV>
-0.383932

>  <SCORE.INTRA.SOLV.lig_0>
-48.6018

>  <SCORE.INTRA.VDW>
0.279154

>  <SCORE.INTRA.VDW.0>
-2.1506

>  <SCORE.INTRA.norm>
0.0630912

>  <SCORE.RESTR>
0

>  <SCORE.RESTR.CAVITY>
0

>  <SCORE.RESTR.norm>
0

>  <SCORE.SYSTEM>
0

>  <SCORE.SYSTEM.CONST>
0

>  <SCORE.SYSTEM.DIHEDRAL>
0

>  <SCORE.SYSTEM.SOLV>
0

>  <SCORE.SYSTEM.norm>
0

>  <SCORE.heavy>
27

>  <SCORE.norm>
-0.469118

>  <RMSD>
8.179

$$$$
ligand
 OpenBabel11021811483D
libRbt.so/2013.1/901 2013/11/27
 27 29  0  0  0  0  0  0  0  0999 V2000
   13.4759   -2.7055    7.8263 N   0  0  0  0  0  0  0  0  0  0  0  0
   13.8220   -4.0288    7.3038 C   0  0  2  0  0  0  0  0  0  0  0  0
   13.2688   -4.3602    5.9157 C   0  0  0  0  0  0  0  0  0  0  0  0
   12.5465   -3.5378    5.3539 O   0  0  0  0  0  0  0  0  0  0  0  0
   13.4569   -5.1182    8.2981 C   0  0  0  0  0  0  0  0  0  0  0  0
   13.9780   -4.8021    9.6894 C   0  0  0  0  0  0  0  0  0  0  0  0
   14.1651   -6.3101   10.6570 S   0  0  2  0  0  0  0  0  0  0  0  0
   12.4409   -6.8366   10.7525 C   0  0  0  0  0  0  0  0  0  0  0  0
   14.3604   -5.6160   12.3149 C   0  0  0  0  0  0  0  0  0  0  0  0
   15.0366   -6.6094   13.2416 C   0  0  1  0  0  0  0  0  0  0  0  0
   14.6870   -6.3547   14.5829 O   0  0  0  0  0  0  0  0  0  0  0  0
   14.6036   -8.0395   12.9855 C   0  0  1  0  0  0  0  0  0  0  0  0
   15.5113   -8.6230   12.0851 O   0  0  0  0  0  0  0  0  0  0  0  0
   14.6977   -8.6886   14.3515 C   0  0  1  0  0  0  0  0  0  0  0  0
   15.9116   -9.4047   14.3942 O   0  0  0  0  0  0  0  0  0  0  0  0
   14.7116   -7.5385   15.3607 C   0  0  2  0  0  0  0  0  0  0  0  0
   13.5097   -5.4210    5.3331 O   0  0  0  0  0  0  0  0  0  0  0  0
    9.4779   -7.5961   15.2083 N   0  0  0  0  0  0  0  0  0  0  0  0
   10.3525   -7.6273   14.1494 C   0  0  0  0  0  0  0  0  0  0  0  0
   11.7079   -7.6030   14.3945 N   0  0  0  0  0  0  0  0  0  0  0  0
   12.1894   -7.5520   15.6567 C   0  0  0  0  0  0  0  0  0  0  0  0
   11.3188   -7.5341   16.7366 C   0  0  0  0  0  0  0  0  0  0  0  0
    9.9450   -7.5478   16.5046 C   0  0  0  0  0  0  0  0  0  0  0  0
    9.0763   -7.5248   17.5158 N   0  0  0  0  0  0  0  0  0  0  0  0
   12.0627   -7.4917   17.8719 N   0  0  0  0  0  0  0  0  0  0  0  0
   13.3697   -7.4996   17.5219 C   0  0  0  0  0  0  0  0  0  0  0  0
   13.4656   -7.5441   16.1528 N   0  0  0  0  0  0  0  0  0  0  0  0
  2  1  1  1  0  0  0
  2  3  1  0  0  0  0
  2  5  1  0  0  0  0
  3  4  1  0  0  0  0
  3 17  1  0  0  0  0
  5  6  1  0  0  0  0
  7  6  1  6  0  0  0
  7  8  1  0  0  0  0
  7  9  1  0  0  0  0
 10  9  1  6  0  0  0
 10 11  1  0  0  0  0
 10 12  1  0  0  0  0
 11 16  1  0  0  0  0
 12 13  1  6  0  0  0
 12 14  1  0  0  0  0
 14 15  1  6  0  0  0
 14 16  1  0  0  0  0
 16 27  1  1  0  0  0
 18 19  2  0  0  0  0
 18 23  1  0  0  0  0
 19 20  1  0  0  0  0
 20 21  2  0  0  0  0
 21 22  1  0  0  0  0
 21 27  1  0  0  0  0
 22 23  2  0  0  0  0
 22 25  1  0  0  0  0
 23 24  1  0  0  0  0
 25 26  2  0  0  0  0
 26 27  1  0  0  0  0
M  END
>  <CHROM.1>
-2.44535595,-49.37977300,-156.32960658,-64.18730307,-158.94229925,-154.58142064
60.72324506,13.18496457,-6.61822400,12.46146797,1.42587448,0.27010048,-1.19334405

>  <Name>
ligand

>  <RI>
0

>  <Rbt.Current_Directory>
/home/itssahil/PROJECTS/Mol_Feturizer/New_Systems/rnas/3GX5

>  <Rbt.Executable>
rbdock ($Id: //depot/dev/client3/rdock/2013.1/src/exe/rbdock.cxx#4 $)

>  <Rbt.Library>
libRbt.so (2013.1, Build901 2013/11/27)

>  <Rbt.Parameter_File>
/export/apps/rDock/src/rDock_2013.1_src/data/scripts/dock_solv.prm

>  <Rbt.Receptor>
prm/pocket_docking_8.prm

>  <SCORE>
-7.71172

>  <SCORE.INTER>
-11.2335

>  <SCORE.INTER.CONST>
1

>  <SCORE.INTER.POLAR>
0

>  <SCORE.INTER.ROT>
7

>  <SCORE.INTER.SOLV>
14.1269

>  <SCORE.INTER.VDW>
-20.4646

>  <SCORE.INTER.norm>
-0.416056

>  <SCORE.INTRA>
3.52178

>  <SCORE.INTRA.DIHEDRAL>
5.59941

>  <SCORE.INTRA.DIHEDRAL.0>
4.28829

>  <SCORE.INTRA.POLAR>
0

>  <SCORE.INTRA.POLAR.0>
0

>  <SCORE.INTRA.REPUL>
0

>  <SCORE.INTRA.REPUL.0>
0

>  <SCORE.INTRA.SOLV>
-0.137493

>  <SCORE.INTRA.SOLV.lig_0>
-48.6018

>  <SCORE.INTRA.VDW>
0.790825

>  <SCORE.INTRA.VDW.0>
-2.1506

>  <SCORE.INTRA.norm>
0.130436

>  <SCORE.RESTR>
0

>  <SCORE.RESTR.CAVITY>
0

>  <SCORE.RESTR.norm>
0

>  <SCORE.SYSTEM>
0

>  <SCORE.SYSTEM.CONST>
0

>  <SCORE.SYSTEM.DIHEDRAL>
0

>  <SCORE.SYSTEM.SOLV>
0

>  <SCORE.SYSTEM.norm>
0

>  <SCORE.heavy>
27

>  <SCORE.norm>
-0.285619

>  <RMSD>
8.371

$$$$
ligand
 OpenBabel11021811483D
libRbt.so/2013.1/901 2013/11/27
 27 29  0  0  0  0  0  0  0  0999 V2000
   16.0671   -4.1736    8.8124 N   0  0  0  0  0  0  0  0  0  0  0  0
   14.6264   -4.4340    8.8251 C   0  0  2  0  0  0  0  0  0  0  0  0
   13.8286   -3.8109    7.6770 C   0  0  0  0  0  0  0  0  0  0  0  0
   14.4401   -3.2996    6.7398 O   0  0  0  0  0  0  0  0  0  0  0  0
   14.0176   -4.0558   10.1650 C   0  0  0  0  0  0  0  0  0  0  0  0
   14.7441   -4.7267   11.3179 C   0  0  0  0  0  0  0  0  0  0  0  0
   14.4064   -6.4961   11.3398 S   0  0  2  0  0  0  0  0  0  0  0  0
   12.7059   -6.4827   11.9457 C   0  0  0  0  0  0  0  0  0  0  0  0
   15.2633   -6.9765   12.8576 C   0  0  0  0  0  0  0  0  0  0  0  0
   15.0645   -8.4529   13.1474 C   0  0  1  0  0  0  0  0  0  0  0  0
   16.2775   -9.0477   13.5486 O   0  0  0  0  0  0  0  0  0  0  0  0
   14.1044   -8.7018   14.2939 C   0  0  1  0  0  0  0  0  0  0  0  0
   12.8151   -8.8758   13.7625 O   0  0  0  0  0  0  0  0  0  0  0  0
   14.6167   -9.9866   14.9128 C   0  0  1  0  0  0  0  0  0  0  0  0
   13.8076  -11.0367   14.4324 O   0  0  0  0  0  0  0  0  0  0  0  0
   16.0566  -10.1432   14.4193 C   0  0  2  0  0  0  0  0  0  0  0  0
   12.5950   -3.7923    7.6497 O   0  0  0  0  0  0  0  0  0  0  0  0
   16.6442   -8.6220   19.3952 N   0  0  0  0  0  0  0  0  0  0  0  0
   15.4895   -8.6445   18.6513 C   0  0  0  0  0  0  0  0  0  0  0  0
   15.5380   -9.0809   17.3455 N   0  0  0  0  0  0  0  0  0  0  0  0
   16.6997   -9.4888   16.7873 C   0  0  0  0  0  0  0  0  0  0  0  0
   17.8713   -9.4849   17.5302 C   0  0  0  0  0  0  0  0  0  0  0  0
   17.8403   -9.0366   18.8491 C   0  0  0  0  0  0  0  0  0  0  0  0
   18.9463   -9.0116   19.5933 N   0  0  0  0  0  0  0  0  0  0  0  0
   18.8712   -9.9463   16.7354 N   0  0  0  0  0  0  0  0  0  0  0  0
   18.3447  -10.2504   15.5267 C   0  0  0  0  0  0  0  0  0  0  0  0
   16.9986   -9.9794   15.5444 N   0  0  0  0  0  0  0  0  0  0  0  0
  2  1  1  1  0  0  0
  2  3  1  0  0  0  0
  2  5  1  0  0  0  0
  3  4  1  0  0  0  0
  3 17  1  0  0  0  0
  5  6  1  0  0  0  0
  7  6  1  1  0  0  0
  7  8  1  0  0  0  0
  7  9  1  0  0  0  0
 10  9  1  1  0  0  0
 10 11  1  0  0  0  0
 10 12  1  0  0  0  0
 11 16  1  0  0  0  0
 12 13  1  6  0  0  0
 12 14  1  0  0  0  0
 14 15  1  6  0  0  0
 14 16  1  0  0  0  0
 16 27  1  1  0  0  0
 18 19  2  0  0  0  0
 18 23  1  0  0  0  0
 19 20  1  0  0  0  0
 20 21  2  0  0  0  0
 21 22  1  0  0  0  0
 21 27  1  0  0  0  0
 22 23  2  0  0  0  0
 22 25  1  0  0  0  0
 23 24  1  0  0  0  0
 25 26  2  0  0  0  0
 26 27  1  0  0  0  0
M  END
>  <CHROM.1>
9.59885737,-53.46539077,-70.62339839,-73.58685641,177.05188454,136.42607878
100.98110778,15.38130657,-7.60197346,13.53289552,-1.89881250,0.49315496,2.26775395

>  <Name>
ligand

>  <RI>
0

>  <Rbt.Current_Directory>
/home/itssahil/PROJECTS/Mol_Feturizer/New_Systems/rnas/3GX5

>  <Rbt.Executable>
rbdock ($Id: //depot/dev/client3/rdock/2013.1/src/exe/rbdock.cxx#4 $)

>  <Rbt.Library>
libRbt.so (2013.1, Build901 2013/11/27)

>  <Rbt.Parameter_File>
/export/apps/rDock/src/rDock_2013.1_src/data/scripts/dock_solv.prm

>  <Rbt.Receptor>
prm/pocket_docking_8.prm

>  <SCORE>
-10.6339

>  <SCORE.INTER>
-13.8809

>  <SCORE.INTER.CONST>
1

>  <SCORE.INTER.POLAR>
0

>  <SCORE.INTER.ROT>
7

>  <SCORE.INTER.SOLV>
11.3799

>  <SCORE.INTER.VDW>
-21.3139

>  <SCORE.INTER.norm>
-0.514108

>  <SCORE.INTRA>
3.24699

>  <SCORE.INTRA.DIHEDRAL>
4.14016

>  <SCORE.INTRA.DIHEDRAL.0>
4.28829

>  <SCORE.INTRA.POLAR>
0

>  <SCORE.INTRA.POLAR.0>
0

>  <SCORE.INTRA.REPUL>
0

>  <SCORE.INTRA.REPUL.0>
0

>  <SCORE.INTRA.SOLV>
0.358681

>  <SCORE.INTRA.SOLV.lig_0>
-48.6018

>  <SCORE.INTRA.VDW>
0.997571

>  <SCORE.INTRA.VDW.0>
-2.1506

>  <SCORE.INTRA.norm>
0.120259

>  <SCORE.RESTR>
0

>  <SCORE.RESTR.CAVITY>
0

>  <SCORE.RESTR.norm>
0

>  <SCORE.SYSTEM>
0

>  <SCORE.SYSTEM.CONST>
0

>  <SCORE.SYSTEM.DIHEDRAL>
0

>  <SCORE.SYSTEM.SOLV>
0

>  <SCORE.SYSTEM.norm>
0

>  <SCORE.heavy>
27

>  <SCORE.norm>
-0.393849

>  <RMSD>
8.951

$$$$
ligand
 OpenBabel11021811483D
libRbt.so/2013.1/901 2013/11/27
 27 29  0  0  0  0  0  0  0  0999 V2000
    5.3994  -10.5250   16.8582 N   0  0  0  0  0  0  0  0  0  0  0  0
    6.8317  -10.8252   16.9046 C   0  0  2  0  0  0  0  0  0  0  0  0
    7.4692  -10.8078   18.2960 C   0  0  0  0  0  0  0  0  0  0  0  0
    8.3974  -11.5801   18.5321 O   0  0  0  0  0  0  0  0  0  0  0  0
    7.6057   -9.9299   15.9516 C   0  0  0  0  0  0  0  0  0  0  0  0
    9.0581  -10.3597   15.8368 C   0  0  0  0  0  0  0  0  0  0  0  0
    9.2362  -11.6859   14.6308 S   0  0  2  0  0  0  0  0  0  0  0  0
    8.7986  -13.1043   15.6583 C   0  0  0  0  0  0  0  0  0  0  0  0
   11.0344  -11.8727   14.6093 C   0  0  0  0  0  0  0  0  0  0  0  0
   11.6943  -10.6831   13.9368 C   0  0  1  0  0  0  0  0  0  0  0  0
   11.5299   -9.5191   14.7141 O   0  0  0  0  0  0  0  0  0  0  0  0
   13.1938  -10.8501   13.7883 C   0  0  1  0  0  0  0  0  0  0  0  0
   13.4547  -11.4073   12.5248 O   0  0  0  0  0  0  0  0  0  0  0  0
   13.7192   -9.4317   13.8773 C   0  0  1  0  0  0  0  0  0  0  0  0
   13.9631   -8.9900   12.5607 O   0  0  0  0  0  0  0  0  0  0  0  0
   12.6014   -8.6117   14.5252 C   0  0  2  0  0  0  0  0  0  0  0  0
    7.0906  -10.0559   19.1982 O   0  0  0  0  0  0  0  0  0  0  0  0
   16.3016   -8.8434   18.2229 N   0  0  0  0  0  0  0  0  0  0  0  0
   16.3101   -9.4359   16.9835 C   0  0  0  0  0  0  0  0  0  0  0  0
   15.2323   -9.2575   16.1444 N   0  0  0  0  0  0  0  0  0  0  0  0
   14.1709   -8.5086   16.5190 C   0  0  0  0  0  0  0  0  0  0  0  0
   14.1540   -7.8927   17.7620 C   0  0  0  0  0  0  0  0  0  0  0  0
   15.2323   -8.0721   18.6260 C   0  0  0  0  0  0  0  0  0  0  0  0
   15.2503   -7.5021   19.8312 N   0  0  0  0  0  0  0  0  0  0  0  0
   12.9879   -7.2055   17.8715 N   0  0  0  0  0  0  0  0  0  0  0  0
   12.2918   -7.3674   16.7227 C   0  0  0  0  0  0  0  0  0  0  0  0
   13.0142   -8.1665   15.8711 N   0  0  0  0  0  0  0  0  0  0  0  0
  2  1  1  1  0  0  0
  2  3  1  0  0  0  0
  2  5  1  0  0  0  0
  3  4  1  0  0  0  0
  3 17  1  0  0  0  0
  5  6  1  0  0  0  0
  7  6  1  1  0  0  0
  7  8  1  0  0  0  0
  7  9  1  0  0  0  0
 10  9  1  1  0  0  0
 10 11  1  0  0  0  0
 10 12  1  0  0  0  0
 11 16  1  0  0  0  0
 12 13  1  6  0  0  0
 12 14  1  0  0  0  0
 14 15  1  6  0  0  0
 14 16  1  0  0  0  0
 16 27  1  1  0  0  0
 18 19  2  0  0  0  0
 18 23  1  0  0  0  0
 19 20  1  0  0  0  0
 20 21  2  0  0  0  0
 21 22  1  0  0  0  0
 21 27  1  0  0  0  0
 22 23  2  0  0  0  0
 22 25  1  0  0  0  0
 23 24  1  0  0  0  0
 25 26  2  0  0  0  0
 26 27  1  0  0  0  0
M  END
>  <CHROM.1>
147.21485192,-171.75974547,83.83419268,-82.90900566,-70.77399545,67.57110608
108.73026036,11.51467302,-9.86422041,16.07304454,3.03289703,-0.31387817,-1.96658026

>  <Name>
ligand

>  <RI>
0

>  <Rbt.Current_Directory>
/home/itssahil/PROJECTS/Mol_Feturizer/New_Systems/rnas/3GX5

>  <Rbt.Executable>
rbdock ($Id: //depot/dev/client3/rdock/2013.1/src/exe/rbdock.cxx#4 $)

>  <Rbt.Library>
libRbt.so (2013.1, Build901 2013/11/27)

>  <Rbt.Parameter_File>
/export/apps/rDock/src/rDock_2013.1_src/data/scripts/dock_solv.prm

>  <Rbt.Receptor>
prm/blind_docking_100.prm

>  <SCORE>
-9.48196

>  <SCORE.INTER>
-10.7514

>  <SCORE.INTER.CONST>
1

>  <SCORE.INTER.POLAR>
0

>  <SCORE.INTER.ROT>
7

>  <SCORE.INTER.SOLV>
11.8113

>  <SCORE.INTER.VDW>
-19.3713

>  <SCORE.INTER.norm>
-0.398199

>  <SCORE.INTRA>
1.2694

>  <SCORE.INTRA.DIHEDRAL>
1.98628

>  <SCORE.INTRA.DIHEDRAL.0>
4.28829

>  <SCORE.INTRA.POLAR>
0

>  <SCORE.INTRA.POLAR.0>
0

>  <SCORE.INTRA.REPUL>
0

>  <SCORE.INTRA.REPUL.0>
0

>  <SCORE.INTRA.SOLV>
-0.830886

>  <SCORE.INTRA.SOLV.lig_0>
-48.6018

>  <SCORE.INTRA.VDW>
0.691707

>  <SCORE.INTRA.VDW.0>
-2.1506

>  <SCORE.INTRA.norm>
0.0470149

>  <SCORE.RESTR>
0

>  <SCORE.RESTR.CAVITY>
0

>  <SCORE.RESTR.norm>
0

>  <SCORE.SYSTEM>
0

>  <SCORE.SYSTEM.CONST>
0

>  <SCORE.SYSTEM.DIHEDRAL>
0

>  <SCORE.SYSTEM.SOLV>
0

>  <SCORE.SYSTEM.norm>
0

>  <SCORE.heavy>
27

>  <SCORE.norm>
-0.351184

>  <RMSD>
9.862

$$$$
ligand
 OpenBabel11021811483D
libRbt.so/2013.1/901 2013/11/27
 27 29  0  0  0  0  0  0  0  0999 V2000
    7.2909   -8.8668   17.3257 N   0  0  0  0  0  0  0  0  0  0  0  0
    6.8084  -10.2475   17.2562 C   0  0  2  0  0  0  0  0  0  0  0  0
    5.4657  -10.5171   17.9396 C   0  0  0  0  0  0  0  0  0  0  0  0
    5.1855   -9.8929   18.9622 O   0  0  0  0  0  0  0  0  0  0  0  0
    7.8657  -11.2183   17.7548 C   0  0  0  0  0  0  0  0  0  0  0  0
    9.0848  -11.2303   16.8487 C   0  0  0  0  0  0  0  0  0  0  0  0
    8.6512  -11.8290   15.2059 S   0  0  2  0  0  0  0  0  0  0  0  0
    8.3909  -13.5782   15.5689 C   0  0  0  0  0  0  0  0  0  0  0  0
   10.2889  -11.9196   14.4452 C   0  0  0  0  0  0  0  0  0  0  0  0
   10.6514  -10.6035   13.7822 C   0  0  1  0  0  0  0  0  0  0  0  0
   10.6276   -9.5519   14.7201 O   0  0  0  0  0  0  0  0  0  0  0  0
   12.0588  -10.5983   13.2188 C   0  0  1  0  0  0  0  0  0  0  0  0
   11.9977  -10.9882   11.8700 O   0  0  0  0  0  0  0  0  0  0  0  0
   12.4875   -9.1508   13.3487 C   0  0  1  0  0  0  0  0  0  0  0  0
   12.3253   -8.5490   12.0840 O   0  0  0  0  0  0  0  0  0  0  0  0
   11.5384   -8.5240   14.3724 C   0  0  2  0  0  0  0  0  0  0  0  0
    4.6494  -11.3390   17.5144 O   0  0  0  0  0  0  0  0  0  0  0  0
   15.8368   -9.3953   17.2329 N   0  0  0  0  0  0  0  0  0  0  0  0
   15.5075   -9.9442   16.0174 C   0  0  0  0  0  0  0  0  0  0  0  0
   14.3198   -9.5881   15.4173 N   0  0  0  0  0  0  0  0  0  0  0  0
   13.4772   -8.7076   16.0023 C   0  0  0  0  0  0  0  0  0  0  0  0
   13.8025   -8.1343   17.2230 C   0  0  0  0  0  0  0  0  0  0  0  0
   14.9955   -8.4923   17.8475 C   0  0  0  0  0  0  0  0  0  0  0  0
   15.3402   -7.9684   19.0240 N   0  0  0  0  0  0  0  0  0  0  0  0
   12.7957   -7.2917   17.5701 N   0  0  0  0  0  0  0  0  0  0  0  0
   11.8653   -7.3170   16.5880 C   0  0  0  0  0  0  0  0  0  0  0  0
   12.2758   -8.1841   15.6056 N   0  0  0  0  0  0  0  0  0  0  0  0
  2  1  1  1  0  0  0
  2  3  1  0  0  0  0
  2  5  1  0  0  0  0
  3  4  1  0  0  0  0
  3 17  1  0  0  0  0
  5  6  1  0  0  0  0
  7  6  1  1  0  0  0
  7  8  1  0  0  0  0
  7  9  1  0  0  0  0
 10  9  1  1  0  0  0
 10 11  1  0  0  0  0
 10 12  1  0  0  0  0
 11 16  1  0  0  0  0
 12 13  1  6  0  0  0
 12 14  1  0  0  0  0
 14 15  1  6  0  0  0
 14 16  1  0  0  0  0
 16 27  1  1  0  0  0
 18 19  2  0  0  0  0
 18 23  1  0  0  0  0
 19 20  1  0  0  0  0
 20 21  2  0  0  0  0
 21 22  1  0  0  0  0
 21 27  1  0  0  0  0
 22 23  2  0  0  0  0
 22 25  1  0  0  0  0
 23 24  1  0  0  0  0
 25 26  2  0  0  0  0
 26 27  1  0  0  0  0
M  END
>  <CHROM.1>
-34.36563195,-65.49702377,-63.78337232,-71.70104434,-89.23000054,58.38192398
93.55726708,10.73836478,-9.90464744,15.88402414,-3.10238199,-0.32165142,-1.96207748

>  <Name>
ligand

>  <RI>
0

>  <Rbt.Current_Directory>
/home/itssahil/PROJECTS/Mol_Feturizer/New_Systems/rnas/3GX5

>  <Rbt.Executable>
rbdock ($Id: //depot/dev/client3/rdock/2013.1/src/exe/rbdock.cxx#4 $)

>  <Rbt.Library>
libRbt.so (2013.1, Build901 2013/11/27)

>  <Rbt.Parameter_File>
/export/apps/rDock/src/rDock_2013.1_src/data/scripts/dock_solv.prm

>  <Rbt.Receptor>
prm/blind_docking_100.prm

>  <SCORE>
-13.1049

>  <SCORE.INTER>
-13.2284

>  <SCORE.INTER.CONST>
1

>  <SCORE.INTER.POLAR>
0

>  <SCORE.INTER.ROT>
7

>  <SCORE.INTER.SOLV>
8.64914

>  <SCORE.INTER.VDW>
-19.9686

>  <SCORE.INTER.norm>
-0.489941

>  <SCORE.INTRA>
0.123494

>  <SCORE.INTRA.DIHEDRAL>
0.404155

>  <SCORE.INTRA.DIHEDRAL.0>
4.28829

>  <SCORE.INTRA.POLAR>
0

>  <SCORE.INTRA.POLAR.0>
0

>  <SCORE.INTRA.REPUL>
0

>  <SCORE.INTRA.REPUL.0>
0

>  <SCORE.INTRA.SOLV>
0.0725017

>  <SCORE.INTRA.SOLV.lig_0>
-48.6018

>  <SCORE.INTRA.VDW>
-0.114835

>  <SCORE.INTRA.VDW.0>
-2.1506

>  <SCORE.INTRA.norm>
0.00457383

>  <SCORE.RESTR>
0

>  <SCORE.RESTR.CAVITY>
0

>  <SCORE.RESTR.norm>
0

>  <SCORE.SYSTEM>
0

>  <SCORE.SYSTEM.CONST>
0

>  <SCORE.SYSTEM.DIHEDRAL>
0

>  <SCORE.SYSTEM.SOLV>
0

>  <SCORE.SYSTEM.norm>
0

>  <SCORE.heavy>
27

>  <SCORE.norm>
-0.485367

>  <RMSD>
9.968

$$$$
ligand
 OpenBabel11021811483D
libRbt.so/2013.1/901 2013/11/27
 27 29  0  0  0  0  0  0  0  0999 V2000
   12.5069   -8.0927   22.4445 N   0  0  0  0  0  0  0  0  0  0  0  0
   11.4975   -8.3966   21.4284 C   0  0  2  0  0  0  0  0  0  0  0  0
   10.6192   -9.6184   21.7091 C   0  0  0  0  0  0  0  0  0  0  0  0
   11.0199  -10.4654   22.5065 O   0  0  0  0  0  0  0  0  0  0  0  0
   12.1277   -8.4978   20.0495 C   0  0  0  0  0  0  0  0  0  0  0  0
   11.0917   -8.3452   18.9492 C   0  0  0  0  0  0  0  0  0  0  0  0
   11.8888   -8.0580   17.3595 S   0  0  2  0  0  0  0  0  0  0  0  0
   10.4464   -7.6429   16.3564 C   0  0  0  0  0  0  0  0  0  0  0  0
   12.1564   -9.7603   16.8125 C   0  0  0  0  0  0  0  0  0  0  0  0
   12.7578   -9.7933   15.4196 C   0  0  1  0  0  0  0  0  0  0  0  0
   14.0052   -9.1377   15.4017 O   0  0  0  0  0  0  0  0  0  0  0  0
   13.0451  -11.2016   14.9375 C   0  0  1  0  0  0  0  0  0  0  0  0
   11.9322  -11.6567   14.2100 O   0  0  0  0  0  0  0  0  0  0  0  0
   14.2514  -11.0290   14.0369 C   0  0  1  0  0  0  0  0  0  0  0  0
   13.7845  -11.0151   12.7065 O   0  0  0  0  0  0  0  0  0  0  0  0
   14.8621   -9.6768   14.4107 C   0  0  2  0  0  0  0  0  0  0  0  0
    9.5255   -9.7975   21.1666 O   0  0  0  0  0  0  0  0  0  0  0  0
   17.6519   -9.1565   18.8112 N   0  0  0  0  0  0  0  0  0  0  0  0
   16.3279   -8.8497   18.6113 C   0  0  0  0  0  0  0  0  0  0  0  0
   15.7685   -9.0576   17.3696 N   0  0  0  0  0  0  0  0  0  0  0  0
   16.4989   -9.5598   16.3489 C   0  0  0  0  0  0  0  0  0  0  0  0
   17.8334   -9.8875   16.5394 C   0  0  0  0  0  0  0  0  0  0  0  0
   18.4162   -9.6733   17.7867 C   0  0  0  0  0  0  0  0  0  0  0  0
   19.6974   -9.9692   18.0073 N   0  0  0  0  0  0  0  0  0  0  0  0
   18.3157  -10.3728   15.3663 N   0  0  0  0  0  0  0  0  0  0  0  0
   17.3099  -10.3689   14.4614 C   0  0  0  0  0  0  0  0  0  0  0  0
   16.1752   -9.8747   15.0563 N   0  0  0  0  0  0  0  0  0  0  0  0
  2  1  1  1  0  0  0
  2  3  1  0  0  0  0
  2  5  1  0  0  0  0
  3  4  1  0  0  0  0
  3 17  1  0  0  0  0
  5  6  1  0  0  0  0
  7  6  1  1  0  0  0
  7  8  1  0  0  0  0
  7  9  1  0  0  0  0
 10  9  1  1  0  0  0
 10 11  1  0  0  0  0
 10 12  1  0  0  0  0
 11 16  1  0  0  0  0
 12 13  1  6  0  0  0
 12 14  1  0  0  0  0
 14 15  1  6  0  0  0
 14 16  1  0  0  0  0
 16 27  1  1  0  0  0
 18 19  2  0  0  0  0
 18 23  1  0  0  0  0
 19 20  1  0  0  0  0
 20 21  2  0  0  0  0
 21 22  1  0  0  0  0
 21 27  1  0  0  0  0
 22 23  2  0  0  0  0
 22 25  1  0  0  0  0
 23 24  1  0  0  0  0
 25 26  2  0  0  0  0
 26 27  1  0  0  0  0
M  END
>  <CHROM.1>
-20.34390115,-160.89197185,165.92370938,-170.72731417,176.52795968,60.62233446
-1.66616713,13.91162582,-9.52828072,17.34700319,-2.37629010,0.02801357,-1.76039225

>  <Name>
ligand

>  <RI>
0

>  <Rbt.Current_Directory>
/home/itssahil/PROJECTS/Mol_Feturizer/New_Systems/rnas/3GX5

>  <Rbt.Executable>
rbdock ($Id: //depot/dev/client3/rdock/2013.1/src/exe/rbdock.cxx#4 $)

>  <Rbt.Library>
libRbt.so (2013.1, Build901 2013/11/27)

>  <Rbt.Parameter_File>
/export/apps/rDock/src/rDock_2013.1_src/data/scripts/dock_solv.prm

>  <Rbt.Receptor>
prm/blind_docking_80.prm

>  <SCORE>
-12.2686

>  <SCORE.INTER>
-12.2326

>  <SCORE.INTER.CONST>
1

>  <SCORE.INTER.POLAR>
0

>  <SCORE.INTER.ROT>
7

>  <SCORE.INTER.SOLV>
20.372

>  <SCORE.INTER.VDW>
-23.2124

>  <SCORE.INTER.norm>
-0.453061

>  <SCORE.INTRA>
-0.0359308

>  <SCORE.INTRA.DIHEDRAL>
2.02323

>  <SCORE.INTRA.DIHEDRAL.0>
4.28829

>  <SCORE.INTRA.POLAR>
0

>  <SCORE.INTRA.POLAR.0>
0

>  <SCORE.INTRA.REPUL>
0

>  <SCORE.INTRA.REPUL.0>
0

>  <SCORE.INTRA.SOLV>
-1.22604

>  <SCORE.INTRA.SOLV.lig_0>
-48.6018

>  <SCORE.INTRA.VDW>
-0.434524

>  <SCORE.INTRA.VDW.0>
-2.1506

>  <SCORE.INTRA.norm>
-0.00133077

>  <SCORE.RESTR>
0

>  <SCORE.RESTR.CAVITY>
0

>  <SCORE.RESTR.norm>
0

>  <SCORE.SYSTEM>
0

>  <SCORE.SYSTEM.CONST>
0

>  <SCORE.SYSTEM.DIHEDRAL>
0

>  <SCORE.SYSTEM.SOLV>
0

>  <SCORE.SYSTEM.norm>
0

>  <SCORE.heavy>
27

>  <SCORE.norm>
-0.454392

>  <RMSD>
10.422

$$$$
ligand
 OpenBabel11021811483D
libRbt.so/2013.1/901 2013/11/27
 27 29  0  0  0  0  0  0  0  0999 V2000
    5.0977   -9.3992   16.1811 N   0  0  0  0  0  0  0  0  0  0  0  0
    6.4615   -8.8731   16.0960 C   0  0  2  0  0  0  0  0  0  0  0  0
    6.6152   -7.5433   15.3537 C   0  0  0  0  0  0  0  0  0  0  0  0
    5.7336   -7.1980   14.5681 O   0  0  0  0  0  0  0  0  0  0  0  0
    7.4112   -9.9143   15.5280 C   0  0  0  0  0  0  0  0  0  0  0  0
    7.4066  -11.1865   16.3581 C   0  0  0  0  0  0  0  0  0  0  0  0
    8.7082  -12.3065   15.8138 S   0  0  2  0  0  0  0  0  0  0  0  0
    8.3501  -13.7342   16.8591 C   0  0  0  0  0  0  0  0  0  0  0  0
   10.1243  -11.6258   16.7082 C   0  0  0  0  0  0  0  0  0  0  0  0
   10.4930  -10.2538   16.1747 C   0  0  1  0  0  0  0  0  0  0  0  0
   11.4097   -9.6165   17.0347 O   0  0  0  0  0  0  0  0  0  0  0  0
   11.1902  -10.3149   14.8299 C   0  0  1  0  0  0  0  0  0  0  0  0
   10.2201  -10.1847   13.8214 O   0  0  0  0  0  0  0  0  0  0  0  0
   12.1148   -9.1147   14.8549 C   0  0  1  0  0  0  0  0  0  0  0  0
   11.4888   -8.0862   14.1211 O   0  0  0  0  0  0  0  0  0  0  0  0
   12.2516   -8.7230   16.3277 C   0  0  2  0  0  0  0  0  0  0  0  0
    7.5892   -6.8004   15.5028 O   0  0  0  0  0  0  0  0  0  0  0  0
   15.8346   -7.7455   20.0189 N   0  0  0  0  0  0  0  0  0  0  0  0
   14.5422   -7.2841   19.9554 C   0  0  0  0  0  0  0  0  0  0  0  0
   13.7464   -7.6544   18.8937 N   0  0  0  0  0  0  0  0  0  0  0  0
   14.2147   -8.4645   17.9179 C   0  0  0  0  0  0  0  0  0  0  0  0
   15.5131   -8.9497   17.9756 C   0  0  0  0  0  0  0  0  0  0  0  0
   16.3336   -8.5757   19.0378 C   0  0  0  0  0  0  0  0  0  0  0  0
   17.5892   -9.0157   19.1251 N   0  0  0  0  0  0  0  0  0  0  0  0
   15.7136   -9.7362   16.8869 N   0  0  0  0  0  0  0  0  0  0  0  0
   14.5681   -9.7627   16.1673 C   0  0  0  0  0  0  0  0  0  0  0  0
   13.6270   -8.9854   16.7963 N   0  0  0  0  0  0  0  0  0  0  0  0
  2  1  1  6  0  0  0
  2  3  1  0  0  0  0
  2  5  1  0  0  0  0
  3  4  1  0  0  0  0
  3 17  1  0  0  0  0
  5  6  1  0  0  0  0
  7  6  1  1  0  0  0
  7  8  1  0  0  0  0
  7  9  1  0  0  0  0
 10  9  1  1  0  0  0
 10 11  1  0  0  0  0
 10 12  1  0  0  0  0
 11 16  1  0  0  0  0
 12 13  1  6  0  0  0
 12 14  1  0  0  0  0
 14 15  1  6  0  0  0
 14 16  1  0  0  0  0
 16 27  1  1  0  0  0
 18 19  2  0  0  0  0
 18 23  1  0  0  0  0
 19 20  1  0  0  0  0
 20 21  2  0  0  0  0
 21 22  1  0  0  0  0
 21 27  1  0  0  0  0
 22 23  2  0  0  0  0
 22 25  1  0  0  0  0
 23 24  1  0  0  0  0
 25 26  2  0  0  0  0
 26 27  1  0  0  0  0
M  END
>  <CHROM.1>
-20.75687245,-57.46623133,-171.64838760,-175.16582159,-67.91158442,168.24574951
-83.95578694,11.03217787,-9.45029165,16.52620560,2.99853491,0.32320068,-3.09496896

>  <Name>
ligand

>  <RI>
0

>  <Rbt.Current_Directory>
/home/itssahil/PROJECTS/Mol_Feturizer/New_Systems/rnas/3GX5

>  <Rbt.Executable>
rbdock ($Id: //depot/dev/client3/rdock/2013.1/src/exe/rbdock.cxx#4 $)

>  <Rbt.Library>
libRbt.so (2013.1, Build901 2013/11/27)

>  <Rbt.Parameter_File>
/export/apps/rDock/src/rDock_2013.1_src/data/scripts/dock_solv.prm

>  <Rbt.Receptor>
prm/blind_docking_60.prm

>  <SCORE>
-11.3868

>  <SCORE.INTER>
-11.3065

>  <SCORE.INTER.CONST>
1

>  <SCORE.INTER.POLAR>
0

>  <SCORE.INTER.ROT>
7

>  <SCORE.INTER.SOLV>
10.2472

>  <SCORE.INTER.VDW>
-19.2201

>  <SCORE.INTER.norm>
-0.418761

>  <SCORE.INTRA>
-0.0802618

>  <SCORE.INTRA.DIHEDRAL>
0.504396

>  <SCORE.INTRA.DIHEDRAL.0>
4.28829

>  <SCORE.INTRA.POLAR>
0

>  <SCORE.INTRA.POLAR.0>
0

>  <SCORE.INTRA.REPUL>
0

>  <SCORE.INTRA.REPUL.0>
0

>  <SCORE.INTRA.SOLV>
-0.133614

>  <SCORE.INTRA.SOLV.lig_0>
-48.6018

>  <SCORE.INTRA.VDW>
-0.265653

>  <SCORE.INTRA.VDW.0>
-2.1506

>  <SCORE.INTRA.norm>
-0.00297266

>  <SCORE.RESTR>
0

>  <SCORE.RESTR.CAVITY>
0

>  <SCORE.RESTR.norm>
0

>  <SCORE.SYSTEM>
0

>  <SCORE.SYSTEM.CONST>
0

>  <SCORE.SYSTEM.DIHEDRAL>
0

>  <SCORE.SYSTEM.SOLV>
0

>  <SCORE.SYSTEM.norm>
0

>  <SCORE.heavy>
27

>  <SCORE.norm>
-0.421733

>  <RMSD>
10.607

$$$$
ligand
 OpenBabel11021811483D
libRbt.so/2013.1/901 2013/11/27
 27 29  0  0  0  0  0  0  0  0999 V2000
    7.3921   -9.9334   19.3971 N   0  0  0  0  0  0  0  0  0  0  0  0
    7.6693  -10.4825   18.0684 C   0  0  2  0  0  0  0  0  0  0  0  0
    6.4424  -10.8876   17.2479 C   0  0  0  0  0  0  0  0  0  0  0  0
    6.2284  -10.3152   16.1801 O   0  0  0  0  0  0  0  0  0  0  0  0
    8.6595  -11.6320   18.1512 C   0  0  0  0  0  0  0  0  0  0  0  0
    9.6731  -11.5788   17.0211 C   0  0  0  0  0  0  0  0  0  0  0  0
    8.8612  -11.7918   15.4271 S   0  0  2  0  0  0  0  0  0  0  0  0
    8.4616  -13.5502   15.5119 C   0  0  0  0  0  0  0  0  0  0  0  0
   10.2980  -11.8618   14.3320 C   0  0  0  0  0  0  0  0  0  0  0  0
   10.8225  -10.4685   14.0373 C   0  0  1  0  0  0  0  0  0  0  0  0
   11.2381   -9.8330   15.2245 O   0  0  0  0  0  0  0  0  0  0  0  0
   12.0483  -10.4794   13.1453 C   0  0  1  0  0  0  0  0  0  0  0  0
   11.6270  -10.3453   11.8114 O   0  0  0  0  0  0  0  0  0  0  0  0
   12.8260   -9.2596   13.5964 C   0  0  1  0  0  0  0  0  0  0  0  0
   12.5613   -8.2271   12.6735 O   0  0  0  0  0  0  0  0  0  0  0  0
   12.2784   -8.9029   14.9800 C   0  0  2  0  0  0  0  0  0  0  0  0
    5.6509  -11.7618   17.6114 O   0  0  0  0  0  0  0  0  0  0  0  0
   13.2677   -9.3194   20.1050 N   0  0  0  0  0  0  0  0  0  0  0  0
   12.0578   -9.0908   19.4959 C   0  0  0  0  0  0  0  0  0  0  0  0
   12.0000   -9.0114   18.1218 N   0  0  0  0  0  0  0  0  0  0  0  0
   13.1110   -9.1575   17.3656 C   0  0  0  0  0  0  0  0  0  0  0  0
   14.3376   -9.4027   17.9657 C   0  0  0  0  0  0  0  0  0  0  0  0
   14.4139   -9.4754   19.3550 C   0  0  0  0  0  0  0  0  0  0  0  0
   15.5753   -9.7029   19.9691 N   0  0  0  0  0  0  0  0  0  0  0  0
   15.2682   -9.5143   16.9830 N   0  0  0  0  0  0  0  0  0  0  0  0
   14.6458   -9.3610   15.7915 C   0  0  0  0  0  0  0  0  0  0  0  0
   13.3073   -9.1462   16.0106 N   0  0  0  0  0  0  0  0  0  0  0  0
  2  1  1  1  0  0  0
  2  3  1  0  0  0  0
  2  5  1  0  0  0  0
  3  4  1  0  0  0  0
  3 17  1  0  0  0  0
  5  6  1  0  0  0  0
  7  6  1  1  0  0  0
  7  8  1  0  0  0  0
  7  9  1  0  0  0  0
 10  9  1  1  0  0  0
 10 11  1  0  0  0  0
 10 12  1  0  0  0  0
 11 16  1  0  0  0  0
 12 13  1  6  0  0  0
 12 14  1  0  0  0  0
 14 15  1  6  0  0  0
 14 16  1  0  0  0  0
 16 27  1  1  0  0  0
 18 19  2  0  0  0  0
 18 23  1  0  0  0  0
 19 20  1  0  0  0  0
 20 21  2  0  0  0  0
 21 22  1  0  0  0  0
 21 27  1  0  0  0  0
 22 23  2  0  0  0  0
 22 25  1  0  0  0  0
 23 24  1  0  0  0  0
 25 26  2  0  0  0  0
 26 27  1  0  0  0  0
M  END
>  <CHROM.1>
118.04584457,-139.14565600,-63.92201552,-72.43188450,-80.12506147,61.36056436
-54.46861403,10.94078412,-10.27057248,16.38461874,3.08063275,-0.30737086
-1.62365590

>  <Name>
ligand

>  <RI>
0

>  <Rbt.Current_Directory>
/home/itssahil/PROJECTS/Mol_Feturizer/New_Systems/rnas/3GX5

>  <Rbt.Executable>
rbdock ($Id: //depot/dev/client3/rdock/2013.1/src/exe/rbdock.cxx#4 $)

>  <Rbt.Library>
libRbt.so (2013.1, Build901 2013/11/27)

>  <Rbt.Parameter_File>
/export/apps/rDock/src/rDock_2013.1_src/data/scripts/dock_solv.prm

>  <Rbt.Receptor>
prm/blind_docking_100.prm

>  <SCORE>
-9.94068

>  <SCORE.INTER>
-10.403

>  <SCORE.INTER.CONST>
1

>  <SCORE.INTER.POLAR>
0

>  <SCORE.INTER.ROT>
7

>  <SCORE.INTER.SOLV>
14.0864

>  <SCORE.INTER.VDW>
-19.8975

>  <SCORE.INTER.norm>
-0.385298

>  <SCORE.INTRA>
0.462363

>  <SCORE.INTRA.DIHEDRAL>
3.62715

>  <SCORE.INTRA.DIHEDRAL.0>
4.28829

>  <SCORE.INTRA.POLAR>
0

>  <SCORE.INTRA.POLAR.0>
0

>  <SCORE.INTRA.REPUL>
0

>  <SCORE.INTRA.REPUL.0>
0

>  <SCORE.INTRA.SOLV>
-0.990569

>  <SCORE.INTRA.SOLV.lig_0>
-48.6018

>  <SCORE.INTRA.VDW>
-0.855928

>  <SCORE.INTRA.VDW.0>
-2.1506

>  <SCORE.INTRA.norm>
0.0171246

>  <SCORE.RESTR>
0

>  <SCORE.RESTR.CAVITY>
0

>  <SCORE.RESTR.norm>
0

>  <SCORE.SYSTEM>
0

>  <SCORE.SYSTEM.CONST>
0

>  <SCORE.SYSTEM.DIHEDRAL>
0

>  <SCORE.SYSTEM.SOLV>
0

>  <SCORE.SYSTEM.norm>
0

>  <SCORE.heavy>
27

>  <SCORE.norm>
-0.368173

>  <RMSD>
10.653

$$$$
ligand
 OpenBabel11021811483D
libRbt.so/2013.1/901 2013/11/27
 27 29  0  0  0  0  0  0  0  0999 V2000
    5.9942  -12.7910   16.3605 N   0  0  0  0  0  0  0  0  0  0  0  0
    5.9738  -11.4456   16.9378 C   0  0  2  0  0  0  0  0  0  0  0  0
    4.5857  -10.8500   17.1852 C   0  0  0  0  0  0  0  0  0  0  0  0
    4.3885  -10.2178   18.2221 O   0  0  0  0  0  0  0  0  0  0  0  0
    6.8266  -10.4903   16.1199 C   0  0  0  0  0  0  0  0  0  0  0  0
    8.2935  -10.8834   16.1524 C   0  0  0  0  0  0  0  0  0  0  0  0
    8.6321  -12.1796   14.9482 S   0  0  2  0  0  0  0  0  0  0  0  0
    8.7399  -13.6077   16.0474 C   0  0  0  0  0  0  0  0  0  0  0  0
   10.3924  -11.8979   14.6468 C   0  0  0  0  0  0  0  0  0  0  0  0
   10.6193  -10.5528   13.9819 C   0  0  1  0  0  0  0  0  0  0  0  0
   10.5351   -9.5111   14.9274 O   0  0  0  0  0  0  0  0  0  0  0  0
   12.0026  -10.4242   13.3748 C   0  0  1  0  0  0  0  0  0  0  0  0
   11.9324  -10.8122   12.0259 O   0  0  0  0  0  0  0  0  0  0  0  0
   12.3092   -8.9456   13.5013 C   0  0  1  0  0  0  0  0  0  0  0  0
   12.0560   -8.3547   12.2465 O   0  0  0  0  0  0  0  0  0  0  0  0
   11.3428   -8.4072   14.5584 C   0  0  2  0  0  0  0  0  0  0  0  0
    3.6490  -10.9793   16.3924 O   0  0  0  0  0  0  0  0  0  0  0  0
   12.0554   -9.2466   19.6776 N   0  0  0  0  0  0  0  0  0  0  0  0
   11.2053   -9.9083   18.8251 C   0  0  0  0  0  0  0  0  0  0  0  0
   11.1582   -9.5377   17.4992 N   0  0  0  0  0  0  0  0  0  0  0  0
   11.9350   -8.5383   17.0245 C   0  0  0  0  0  0  0  0  0  0  0  0
   12.8085   -7.8702   17.8702 C   0  0  0  0  0  0  0  0  0  0  0  0
   12.8601   -8.2266   19.2161 C   0  0  0  0  0  0  0  0  0  0  0  0
   13.6816   -7.6038   20.0616 N   0  0  0  0  0  0  0  0  0  0  0  0
   13.4633   -6.9326   17.1379 N   0  0  0  0  0  0  0  0  0  0  0  0
   13.0292   -7.0153   15.8591 C   0  0  0  0  0  0  0  0  0  0  0  0
   12.0870   -8.0103   15.7703 N   0  0  0  0  0  0  0  0  0  0  0  0
  2  1  1  6  0  0  0
  2  3  1  0  0  0  0
  2  5  1  0  0  0  0
  3  4  1  0  0  0  0
  3 17  1  0  0  0  0
  5  6  1  0  0  0  0
  7  6  1  1  0  0  0
  7  8  1  0  0  0  0
  7  9  1  0  0  0  0
 10  9  1  1  0  0  0
 10 11  1  0  0  0  0
 10 12  1  0  0  0  0
 11 16  1  0  0  0  0
 12 13  1  6  0  0  0
 12 14  1  0  0  0  0
 14 15  1  6  0  0  0
 14 16  1  0  0  0  0
 16 27  1  1  0  0  0
 18 19  2  0  0  0  0
 18 23  1  0  0  0  0
 19 20  1  0  0  0  0
 20 21  2  0  0  0  0
 21 22  1  0  0  0  0
 21 27  1  0  0  0  0
 22 23  2  0  0  0  0
 22 25  1  0  0  0  0
 23 24  1  0  0  0  0
 25 26  2  0  0  0  0
 26 27  1  0  0  0  0
M  END
>  <CHROM.1>
139.19887170,-64.47224385,82.27038193,-103.43738094,-65.43444489,78.08383115
-4.98036255,9.94842636,-9.97841727,16.05216543,3.01743678,-0.42432946,-1.88954227

>  <Name>
ligand

>  <RI>
0

>  <Rbt.Current_Directory>
/home/itssahil/PROJECTS/Mol_Feturizer/New_Systems/rnas/3GX5

>  <Rbt.Executable>
rbdock ($Id: //depot/dev/client3/rdock/2013.1/src/exe/rbdock.cxx#4 $)

>  <Rbt.Library>
libRbt.so (2013.1, Build901 2013/11/27)

>  <Rbt.Parameter_File>
/export/apps/rDock/src/rDock_2013.1_src/data/scripts/dock_solv.prm

>  <Rbt.Receptor>
prm/blind_docking_100.prm

>  <SCORE>
-10.9764

>  <SCORE.INTER>
-14.1189

>  <SCORE.INTER.CONST>
1

>  <SCORE.INTER.POLAR>
0

>  <SCORE.INTER.ROT>
7

>  <SCORE.INTER.SOLV>
12.4413

>  <SCORE.INTER.VDW>
-21.8264

>  <SCORE.INTER.norm>
-0.522923

>  <SCORE.INTRA>
3.1425

>  <SCORE.INTRA.DIHEDRAL>
4.6794

>  <SCORE.INTRA.DIHEDRAL.0>
4.28829

>  <SCORE.INTRA.POLAR>
0

>  <SCORE.INTRA.POLAR.0>
0

>  <SCORE.INTRA.REPUL>
0

>  <SCORE.INTRA.REPUL.0>
0

>  <SCORE.INTRA.SOLV>
2.0368

>  <SCORE.INTRA.SOLV.lig_0>
-48.6018

>  <SCORE.INTRA.VDW>
-0.215599

>  <SCORE.INTRA.VDW.0>
-2.1506

>  <SCORE.INTRA.norm>
0.116389

>  <SCORE.RESTR>
0

>  <SCORE.RESTR.CAVITY>
0

>  <SCORE.RESTR.norm>
0

>  <SCORE.SYSTEM>
0

>  <SCORE.SYSTEM.CONST>
0

>  <SCORE.SYSTEM.DIHEDRAL>
0

>  <SCORE.SYSTEM.SOLV>
0

>  <SCORE.SYSTEM.norm>
0

>  <SCORE.heavy>
27

>  <SCORE.norm>
-0.406534

>  <RMSD>
10.690

$$$$
ligand
 OpenBabel11021811483D
libRbt.so/2013.1/901 2013/11/27
 27 29  0  0  0  0  0  0  0  0999 V2000
    8.5167  -11.9336   16.6927 N   0  0  0  0  0  0  0  0  0  0  0  0
    8.7807  -10.9600   15.6315 C   0  0  2  0  0  0  0  0  0  0  0  0
    9.8366  -11.3697   14.6019 C   0  0  0  0  0  0  0  0  0  0  0  0
   10.5166  -12.3721   14.8174 O   0  0  0  0  0  0  0  0  0  0  0  0
    9.1054   -9.5950   16.2149 C   0  0  0  0  0  0  0  0  0  0  0  0
    8.0015   -9.1041   17.1356 C   0  0  0  0  0  0  0  0  0  0  0  0
    8.1649   -9.8375   18.7729 S   0  0  2  0  0  0  0  0  0  0  0  0
    6.6596   -9.2111   19.5481 C   0  0  0  0  0  0  0  0  0  0  0  0
    9.3748   -8.7184   19.5162 C   0  0  0  0  0  0  0  0  0  0  0  0
   10.7746   -9.2974   19.4263 C   0  0  1  0  0  0  0  0  0  0  0  0
   11.0171   -9.8123   18.1370 O   0  0  0  0  0  0  0  0  0  0  0  0
   11.8553   -8.2570   19.6455 C   0  0  1  0  0  0  0  0  0  0  0  0
   12.1997   -8.2560   21.0080 O   0  0  0  0  0  0  0  0  0  0  0  0
   13.0050   -8.7548   18.7932 C   0  0  1  0  0  0  0  0  0  0  0  0
   13.9122   -9.4094   19.6514 O   0  0  0  0  0  0  0  0  0  0  0  0
   12.3911   -9.7427   17.7989 C   0  0  2  0  0  0  0  0  0  0  0  0
   10.0427  -10.7357   13.5635 O   0  0  0  0  0  0  0  0  0  0  0  0
   13.3225  -10.7747   12.7506 N   0  0  0  0  0  0  0  0  0  0  0  0
   13.3411  -11.6518   13.8077 C   0  0  0  0  0  0  0  0  0  0  0  0
   13.0685  -11.1851   15.0748 N   0  0  0  0  0  0  0  0  0  0  0  0
   12.7809   -9.8824   15.2934 C   0  0  0  0  0  0  0  0  0  0  0  0
   12.7446   -8.9875   14.2339 C   0  0  0  0  0  0  0  0  0  0  0  0
   13.0282   -9.4422   12.9479 C   0  0  0  0  0  0  0  0  0  0  0  0
   13.0100   -8.6118   11.9050 N   0  0  0  0  0  0  0  0  0  0  0  0
   12.4258   -7.7646   14.7312 N   0  0  0  0  0  0  0  0  0  0  0  0
   12.2481   -7.8843   16.0671 C   0  0  0  0  0  0  0  0  0  0  0  0
   12.4575   -9.1919   16.4306 N   0  0  0  0  0  0  0  0  0  0  0  0
  2  1  1  1  0  0  0
  2  3  1  0  0  0  0
  2  5  1  0  0  0  0
  3  4  1  0  0  0  0
  3 17  1  0  0  0  0
  5  6  1  0  0  0  0
  7  6  1  6  0  0  0
  7  8  1  0  0  0  0
  7  9  1  0  0  0  0
 10  9  1  6  0  0  0
 10 11  1  0  0  0  0
 10 12  1  0  0  0  0
 11 16  1  0  0  0  0
 12 13  1  1  0  0  0
 12 14  1  0  0  0  0
 14 15  1  1  0  0  0
 14 16  1  0  0  0  0
 16 27  1  6  0  0  0
 18 19  2  0  0  0  0
 18 23  1  0  0  0  0
 19 20  1  0  0  0  0
 20 21  2  0  0  0  0
 21 22  1  0  0  0  0
 21 27  1  0  0  0  0
 22 23  2  0  0  0  0
 22 25  1  0  0  0  0
 23 24  1  0  0  0  0
 25 26  2  0  0  0  0
 26 27  1  0  0  0  0
M  END
>  <CHROM.1>
-9.82717634,-55.89415480,81.58061904,-174.52060354,-97.51283334,45.49688220
-107.69263653,11.02575669,-9.74444344,16.62978062,2.05884612,0.26936479,1.27546015

>  <Name>
ligand

>  <RI>
0

>  <Rbt.Current_Directory>
/home/itssahil/PROJECTS/Mol_Feturizer/New_Systems/rnas/3GX5

>  <Rbt.Executable>
rbdock ($Id: //depot/dev/client3/rdock/2013.1/src/exe/rbdock.cxx#4 $)

>  <Rbt.Library>
libRbt.so (2013.1, Build901 2013/11/27)

>  <Rbt.Parameter_File>
/export/apps/rDock/src/rDock_2013.1_src/data/scripts/dock_solv.prm

>  <Rbt.Receptor>
prm/blind_docking_40.prm

>  <SCORE>
-7.20511

>  <SCORE.INTER>
-7.69204

>  <SCORE.INTER.CONST>
1

>  <SCORE.INTER.POLAR>
0

>  <SCORE.INTER.ROT>
7

>  <SCORE.INTER.SOLV>
4.44392

>  <SCORE.INTER.VDW>
-14.876

>  <SCORE.INTER.norm>
-0.28489

>  <SCORE.INTRA>
0.486931

>  <SCORE.INTRA.DIHEDRAL>
4.10926

>  <SCORE.INTRA.DIHEDRAL.0>
4.28829

>  <SCORE.INTRA.POLAR>
0

>  <SCORE.INTRA.POLAR.0>
0

>  <SCORE.INTRA.REPUL>
0

>  <SCORE.INTRA.REPUL.0>
0

>  <SCORE.INTRA.SOLV>
2.10475

>  <SCORE.INTRA.SOLV.lig_0>
-48.6018

>  <SCORE.INTRA.VDW>
-2.62007

>  <SCORE.INTRA.VDW.0>
-2.1506

>  <SCORE.INTRA.norm>
0.0180345

>  <SCORE.RESTR>
0

>  <SCORE.RESTR.CAVITY>
0

>  <SCORE.RESTR.norm>
0

>  <SCORE.SYSTEM>
0

>  <SCORE.SYSTEM.CONST>
0

>  <SCORE.SYSTEM.DIHEDRAL>
0

>  <SCORE.SYSTEM.SOLV>
0

>  <SCORE.SYSTEM.norm>
0

>  <SCORE.heavy>
27

>  <SCORE.norm>
-0.266856

>  <RMSD>
10.787

$$$$
ligand
 OpenBabel11021811483D
libRbt.so/2013.1/901 2013/11/27
 27 29  0  0  0  0  0  0  0  0999 V2000
   10.3142   -7.4283   15.5660 N   0  0  0  0  0  0  0  0  0  0  0  0
    8.8769   -7.5384   15.8226 C   0  0  2  0  0  0  0  0  0  0  0  0
    8.1781   -6.2463   16.2526 C   0  0  0  0  0  0  0  0  0  0  0  0
    8.8294   -5.3917   16.8520 O   0  0  0  0  0  0  0  0  0  0  0  0
    8.5852   -8.6567   16.8091 C   0  0  0  0  0  0  0  0  0  0  0  0
    9.2212   -8.3880   18.1622 C   0  0  0  0  0  0  0  0  0  0  0  0
   11.0026   -8.6464   18.0908 S   0  0  2  0  0  0  0  0  0  0  0  0
   11.0476  -10.3983   17.6571 C   0  0  0  0  0  0  0  0  0  0  0  0
   11.3897   -8.7623   19.8530 C   0  0  0  0  0  0  0  0  0  0  0  0
   12.8877   -8.6877   20.0843 C   0  0  1  0  0  0  0  0  0  0  0  0
   13.5643   -9.6049   19.2554 O   0  0  0  0  0  0  0  0  0  0  0  0
   13.4693   -7.3329   19.7312 C   0  0  1  0  0  0  0  0  0  0  0  0
   13.4903   -6.5430   20.8934 O   0  0  0  0  0  0  0  0  0  0  0  0
   14.8749   -7.6599   19.2692 C   0  0  1  0  0  0  0  0  0  0  0  0
   15.7446   -7.3927   20.3464 O   0  0  0  0  0  0  0  0  0  0  0  0
   14.8686   -9.1534   18.9359 C   0  0  2  0  0  0  0  0  0  0  0  0
    6.9851   -6.0226   16.0300 O   0  0  0  0  0  0  0  0  0  0  0  0
   18.2533  -10.0168   15.0351 N   0  0  0  0  0  0  0  0  0  0  0  0
   18.5230   -9.9155   16.3783 C   0  0  0  0  0  0  0  0  0  0  0  0
   17.4882   -9.6821   17.2572 N   0  0  0  0  0  0  0  0  0  0  0  0
   16.2152   -9.5545   16.8205 C   0  0  0  0  0  0  0  0  0  0  0  0
   15.9254   -9.6682   15.4686 C   0  0  0  0  0  0  0  0  0  0  0  0
   16.9627   -9.8939   14.5661 C   0  0  0  0  0  0  0  0  0  0  0  0
   16.7254  -10.0026   13.2586 N   0  0  0  0  0  0  0  0  0  0  0  0
   14.5857   -9.5089   15.3140 N   0  0  0  0  0  0  0  0  0  0  0  0
   14.0387   -9.3163   16.5364 C   0  0  0  0  0  0  0  0  0  0  0  0
   15.0340   -9.3489   17.4818 N   0  0  0  0  0  0  0  0  0  0  0  0
  2  1  1  1  0  0  0
  2  3  1  0  0  0  0
  2  5  1  0  0  0  0
  3  4  1  0  0  0  0
  3 17  1  0  0  0  0
  5  6  1  0  0  0  0
  7  6  1  1  0  0  0
  7  8  1  0  0  0  0
  7  9  1  0  0  0  0
 10  9  1  6  0  0  0
 10 11  1  0  0  0  0
 10 12  1  0  0  0  0
 11 16  1  0  0  0  0
 12 13  1  1  0  0  0
 12 14  1  0  0  0  0
 14 15  1  1  0  0  0
 14 16  1  0  0  0  0
 16 27  1  6  0  0  0
 18 19  2  0  0  0  0
 18 23  1  0  0  0  0
 19 20  1  0  0  0  0
 20 21  2  0  0  0  0
 21 22  1  0  0  0  0
 21 27  1  0  0  0  0
 22 23  2  0  0  0  0
 22 25  1  0  0  0  0
 23 24  1  0  0  0  0
 25 26  2  0  0  0  0
 26 27  1  0  0  0  0
M  END
>  <CHROM.1>
-28.28049400,62.59905318,-73.98836396,-61.72344787,-167.85351686,-50.64105824
-152.84068316,13.02708765,-8.50553409,17.41648694,2.99988726,-0.26752015
1.37620466

>  <Name>
ligand

>  <RI>
0

>  <Rbt.Current_Directory>
/home/itssahil/PROJECTS/Mol_Feturizer/New_Systems/rnas/3GX5

>  <Rbt.Executable>
rbdock ($Id: //depot/dev/client3/rdock/2013.1/src/exe/rbdock.cxx#4 $)

>  <Rbt.Library>
libRbt.so (2013.1, Build901 2013/11/27)

>  <Rbt.Parameter_File>
/export/apps/rDock/src/rDock_2013.1_src/data/scripts/dock_solv.prm

>  <Rbt.Receptor>
prm/blind_docking_80.prm

>  <SCORE>
-11.2952

>  <SCORE.INTER>
-12.865

>  <SCORE.INTER.CONST>
1

>  <SCORE.INTER.POLAR>
0

>  <SCORE.INTER.ROT>
7

>  <SCORE.INTER.SOLV>
15.5624

>  <SCORE.INTER.VDW>
-22.0308

>  <SCORE.INTER.norm>
-0.47648

>  <SCORE.INTRA>
1.56976

>  <SCORE.INTRA.DIHEDRAL>
1.45661

>  <SCORE.INTRA.DIHEDRAL.0>
4.28829

>  <SCORE.INTRA.POLAR>
0

>  <SCORE.INTRA.POLAR.0>
0

>  <SCORE.INTRA.REPUL>
0

>  <SCORE.INTRA.REPUL.0>
0

>  <SCORE.INTRA.SOLV>
1.72866

>  <SCORE.INTRA.SOLV.lig_0>
-48.6018

>  <SCORE.INTRA.VDW>
-0.0228761

>  <SCORE.INTRA.VDW.0>
-2.1506

>  <SCORE.INTRA.norm>
0.0581392

>  <SCORE.RESTR>
0

>  <SCORE.RESTR.CAVITY>
0

>  <SCORE.RESTR.norm>
0

>  <SCORE.SYSTEM>
0

>  <SCORE.SYSTEM.CONST>
0

>  <SCORE.SYSTEM.DIHEDRAL>
0

>  <SCORE.SYSTEM.SOLV>
0

>  <SCORE.SYSTEM.norm>
0

>  <SCORE.heavy>
27

>  <SCORE.norm>
-0.418341

>  <RMSD>
10.873

$$$$
ligand
 OpenBabel11021811483D
libRbt.so/2013.1/901 2013/11/27
 27 29  0  0  0  0  0  0  0  0999 V2000
   11.2790   -8.4125   22.2518 N   0  0  0  0  0  0  0  0  0  0  0  0
   12.4596   -8.1017   21.4435 C   0  0  2  0  0  0  0  0  0  0  0  0
   12.9304   -6.6459   21.4879 C   0  0  0  0  0  0  0  0  0  0  0  0
   12.0961   -5.7584   21.6608 O   0  0  0  0  0  0  0  0  0  0  0  0
   12.2698   -8.5577   20.0066 C   0  0  0  0  0  0  0  0  0  0  0  0
   13.5301   -8.3517   19.1841 C   0  0  0  0  0  0  0  0  0  0  0  0
   13.4679   -9.3247   17.6693 S   0  0  2  0  0  0  0  0  0  0  0  0
   15.0455   -8.8528   16.9291 C   0  0  0  0  0  0  0  0  0  0  0  0
   12.3518   -8.3108   16.6718 C   0  0  0  0  0  0  0  0  0  0  0  0
   12.1346   -8.9305   15.3036 C   0  0  1  0  0  0  0  0  0  0  0  0
   11.4642  -10.1648   15.4184 O   0  0  0  0  0  0  0  0  0  0  0  0
   11.2515   -8.0832   14.4090 C   0  0  1  0  0  0  0  0  0  0  0  0
   12.0754   -7.2466   13.6369 O   0  0  0  0  0  0  0  0  0  0  0  0
   10.5438   -9.1033   13.5404 C   0  0  1  0  0  0  0  0  0  0  0  0
   11.2145   -9.1378   12.3007 O   0  0  0  0  0  0  0  0  0  0  0  0
   10.6835  -10.4416   14.2691 C   0  0  2  0  0  0  0  0  0  0  0  0
   14.1125   -6.3186   21.3523 O   0  0  0  0  0  0  0  0  0  0  0  0
    6.1041   -8.9908   16.3530 N   0  0  0  0  0  0  0  0  0  0  0  0
    7.1561   -8.1868   15.9867 C   0  0  0  0  0  0  0  0  0  0  0  0
    8.2883   -8.7611   15.4520 N   0  0  0  0  0  0  0  0  0  0  0  0
    8.3791  -10.0989   15.2798 C   0  0  0  0  0  0  0  0  0  0  0  0
    7.3196  -10.9224   15.6319 C   0  0  0  0  0  0  0  0  0  0  0  0
    6.1717  -10.3574   16.1836 C   0  0  0  0  0  0  0  0  0  0  0  0
    5.1351  -11.1160   16.5408 N   0  0  0  0  0  0  0  0  0  0  0  0
    7.6731  -12.2023   15.3472 N   0  0  0  0  0  0  0  0  0  0  0  0
    8.9162  -12.1891   14.8133 C   0  0  0  0  0  0  0  0  0  0  0  0
    9.3653  -10.8926   14.7579 N   0  0  0  0  0  0  0  0  0  0  0  0
  2  1  1  1  0  0  0
  2  3  1  0  0  0  0
  2  5  1  0  0  0  0
  3  4  1  0  0  0  0
  3 17  1  0  0  0  0
  5  6  1  0  0  0  0
  7  6  1  1  0  0  0
  7  8  1  0  0  0  0
  7  9  1  0  0  0  0
 10  9  1  1  0  0  0
 10 11  1  0  0  0  0
 10 12  1  0  0  0  0
 11 16  1  0  0  0  0
 12 13  1  6  0  0  0
 12 14  1  0  0  0  0
 14 15  1  6  0  0  0
 14 16  1  0  0  0  0
 16 27  1  1  0  0  0
 18 19  2  0  0  0  0
 18 23  1  0  0  0  0
 19 20  1  0  0  0  0
 20 21  2  0  0  0  0
 21 22  1  0  0  0  0
 21 27  1  0  0  0  0
 22 23  2  0  0  0  0
 22 25  1  0  0  0  0
 23 24  1  0  0  0  0
 25 26  2  0  0  0  0
 26 27  1  0  0  0  0
M  END
>  <CHROM.1>
-30.52276462,-175.07484206,162.94314832,179.14114119,179.76605190,65.10317356
75.52391120,10.74027818,-9.04862296,16.87279168,0.85963311,0.27290522,1.33279577

>  <Name>
ligand

>  <RI>
0

>  <Rbt.Current_Directory>
/home/itssahil/PROJECTS/Mol_Feturizer/New_Systems/rnas/3GX5

>  <Rbt.Executable>
rbdock ($Id: //depot/dev/client3/rdock/2013.1/src/exe/rbdock.cxx#4 $)

>  <Rbt.Library>
libRbt.so (2013.1, Build901 2013/11/27)

>  <Rbt.Parameter_File>
/export/apps/rDock/src/rDock_2013.1_src/data/scripts/dock_solv.prm

>  <Rbt.Receptor>
prm/blind_docking_100.prm

>  <SCORE>
-12.4326

>  <SCORE.INTER>
-12.0241

>  <SCORE.INTER.CONST>
1

>  <SCORE.INTER.POLAR>
0

>  <SCORE.INTER.ROT>
7

>  <SCORE.INTER.SOLV>
9.80038

>  <SCORE.INTER.VDW>
-19.5496

>  <SCORE.INTER.norm>
-0.445338

>  <SCORE.INTRA>
-0.408475

>  <SCORE.INTRA.DIHEDRAL>
0.707014

>  <SCORE.INTRA.DIHEDRAL.0>
4.28829

>  <SCORE.INTRA.POLAR>
0

>  <SCORE.INTRA.POLAR.0>
0

>  <SCORE.INTRA.REPUL>
0

>  <SCORE.INTRA.REPUL.0>
0

>  <SCORE.INTRA.SOLV>
-1.27265

>  <SCORE.INTRA.SOLV.lig_0>
-48.6018

>  <SCORE.INTRA.VDW>
-0.125658

>  <SCORE.INTRA.VDW.0>
-2.1506

>  <SCORE.INTRA.norm>
-0.0151287

>  <SCORE.RESTR>
0

>  <SCORE.RESTR.CAVITY>
0

>  <SCORE.RESTR.norm>
0

>  <SCORE.SYSTEM>
0

>  <SCORE.SYSTEM.CONST>
0

>  <SCORE.SYSTEM.DIHEDRAL>
0

>  <SCORE.SYSTEM.SOLV>
0

>  <SCORE.SYSTEM.norm>
0

>  <SCORE.heavy>
27

>  <SCORE.norm>
-0.460467

>  <RMSD>
10.964

$$$$
ligand
 OpenBabel11021811483D
libRbt.so/2013.1/901 2013/11/27
 27 29  0  0  0  0  0  0  0  0999 V2000
   13.2031   -7.2532   21.5459 N   0  0  0  0  0  0  0  0  0  0  0  0
   12.0516   -8.1574   21.5309 C   0  0  2  0  0  0  0  0  0  0  0  0
   12.0137   -9.2032   22.6480 C   0  0  0  0  0  0  0  0  0  0  0  0
   12.7593  -10.1789   22.5716 O   0  0  0  0  0  0  0  0  0  0  0  0
   11.8997   -8.8215   20.1727 C   0  0  0  0  0  0  0  0  0  0  0  0
   10.5155   -9.4216   19.9960 C   0  0  0  0  0  0  0  0  0  0  0  0
   10.3992  -10.3035   18.4295 S   0  0  2  0  0  0  0  0  0  0  0  0
   10.3880   -8.9078   17.2846 C   0  0  0  0  0  0  0  0  0  0  0  0
    8.6397  -10.7192   18.4150 C   0  0  0  0  0  0  0  0  0  0  0  0
    8.2982  -11.5868   17.2177 C   0  0  1  0  0  0  0  0  0  0  0  0
    8.6850  -10.9537   16.0194 O   0  0  0  0  0  0  0  0  0  0  0  0
    9.0379  -12.9101   17.2217 C   0  0  1  0  0  0  0  0  0  0  0  0
    8.2256  -13.8700   17.8491 O   0  0  0  0  0  0  0  0  0  0  0  0
    9.2132  -13.2228   15.7494 C   0  0  1  0  0  0  0  0  0  0  0  0
    8.2132  -14.1513   15.3947 O   0  0  0  0  0  0  0  0  0  0  0  0
    9.0073  -11.8974   15.0131 C   0  0  2  0  0  0  0  0  0  0  0  0
   11.2630   -9.1162   23.6235 O   0  0  0  0  0  0  0  0  0  0  0  0
   11.6801   -7.8502   13.0396 N   0  0  0  0  0  0  0  0  0  0  0  0
   10.4126   -7.8455   13.5693 C   0  0  0  0  0  0  0  0  0  0  0  0
    9.8754   -9.0231   14.0409 N   0  0  0  0  0  0  0  0  0  0  0  0
   10.5749  -10.1790   13.9936 C   0  0  0  0  0  0  0  0  0  0  0  0
   11.8612  -10.1968   13.4744 C   0  0  0  0  0  0  0  0  0  0  0  0
   12.4143   -9.0158   12.9839 C   0  0  0  0  0  0  0  0  0  0  0  0
   13.6449   -8.9935   12.4712 N   0  0  0  0  0  0  0  0  0  0  0  0
   12.3270  -11.4697   13.5565 N   0  0  0  0  0  0  0  0  0  0  0  0
   11.3686  -12.2349   14.1279 C   0  0  0  0  0  0  0  0  0  0  0  0
   10.2789  -11.4489   14.4115 N   0  0  0  0  0  0  0  0  0  0  0  0
  2  1  1  6  0  0  0
  2  3  1  0  0  0  0
  2  5  1  0  0  0  0
  3  4  1  0  0  0  0
  3 17  1  0  0  0  0
  5  6  1  0  0  0  0
  7  6  1  1  0  0  0
  7  8  1  0  0  0  0
  7  9  1  0  0  0  0
 10  9  1  1  0  0  0
 10 11  1  0  0  0  0
 10 12  1  0  0  0  0
 11 16  1  0  0  0  0
 12 13  1  6  0  0  0
 12 14  1  0  0  0  0
 14 15  1  6  0  0  0
 14 16  1  0  0  0  0
 16 27  1  1  0  0  0
 18 19  2  0  0  0  0
 18 23  1  0  0  0  0
 19 20  1  0  0  0  0
 20 21  2  0  0  0  0
 21 22  1  0  0  0  0
 21 27  1  0  0  0  0
 22 23  2  0  0  0  0
 22 25  1  0  0  0  0
 23 24  1  0  0  0  0
 25 26  2  0  0  0  0
 26 27  1  0  0  0  0
M  END
>  <CHROM.1>
-75.69106759,-162.96405402,-175.93803511,-71.82844304,-175.30380300,-55.97536229
-47.76907528,10.63188125,-10.36091557,17.07850231,-1.37840423,-0.88466579
-1.61201991

>  <Name>
ligand

>  <RI>
0

>  <Rbt.Current_Directory>
/home/itssahil/PROJECTS/Mol_Feturizer/New_Systems/rnas/3GX5

>  <Rbt.Executable>
rbdock ($Id: //depot/dev/client3/rdock/2013.1/src/exe/rbdock.cxx#4 $)

>  <Rbt.Library>
libRbt.so (2013.1, Build901 2013/11/27)

>  <Rbt.Parameter_File>
/export/apps/rDock/src/rDock_2013.1_src/data/scripts/dock_solv.prm

>  <Rbt.Receptor>
prm/blind_docking_80.prm

>  <SCORE>
-14.4605

>  <SCORE.INTER>
-14.3227

>  <SCORE.INTER.CONST>
1

>  <SCORE.INTER.POLAR>
0

>  <SCORE.INTER.ROT>
7

>  <SCORE.INTER.SOLV>
10.7483

>  <SCORE.INTER.VDW>
-21.3979

>  <SCORE.INTER.norm>
-0.530469

>  <SCORE.INTRA>
-0.13781

>  <SCORE.INTRA.DIHEDRAL>
0.721899

>  <SCORE.INTRA.DIHEDRAL.0>
4.28829

>  <SCORE.INTRA.POLAR>
0

>  <SCORE.INTRA.POLAR.0>
0

>  <SCORE.INTRA.REPUL>
0

>  <SCORE.INTRA.REPUL.0>
0

>  <SCORE.INTRA.SOLV>
-1.05628

>  <SCORE.INTRA.SOLV.lig_0>
-48.6018

>  <SCORE.INTRA.VDW>
0.0293793

>  <SCORE.INTRA.VDW.0>
-2.1506

>  <SCORE.INTRA.norm>
-0.00510408

>  <SCORE.RESTR>
0

>  <SCORE.RESTR.CAVITY>
0

>  <SCORE.RESTR.norm>
0

>  <SCORE.SYSTEM>
0

>  <SCORE.SYSTEM.CONST>
0

>  <SCORE.SYSTEM.DIHEDRAL>
0

>  <SCORE.SYSTEM.SOLV>
0

>  <SCORE.SYSTEM.norm>
0

>  <SCORE.heavy>
27

>  <SCORE.norm>
-0.535573

>  <RMSD>
10.967

$$$$
ligand
 OpenBabel11021811483D
libRbt.so/2013.1/901 2013/11/27
 27 29  0  0  0  0  0  0  0  0999 V2000
   11.7212   -7.6999   21.2453 N   0  0  0  0  0  0  0  0  0  0  0  0
   10.8038   -8.8396   21.3023 C   0  0  2  0  0  0  0  0  0  0  0  0
   11.2287   -9.9891   22.2194 C   0  0  0  0  0  0  0  0  0  0  0  0
   12.4233  -10.2719   22.3002 O   0  0  0  0  0  0  0  0  0  0  0  0
   10.4921   -9.3565   19.9079 C   0  0  0  0  0  0  0  0  0  0  0  0
    9.8401   -8.2871   19.0485 C   0  0  0  0  0  0  0  0  0  0  0  0
    9.6635   -8.8565   17.3485 S   0  0  2  0  0  0  0  0  0  0  0  0
    9.1271   -7.3241   16.5592 C   0  0  0  0  0  0  0  0  0  0  0  0
    8.0754   -9.7143   17.4515 C   0  0  0  0  0  0  0  0  0  0  0  0
    8.0933  -10.9878   16.6264 C   0  0  1  0  0  0  0  0  0  0  0  0
    8.6446  -10.7460   15.3521 O   0  0  0  0  0  0  0  0  0  0  0  0
    8.9646  -12.0691   17.2348 C   0  0  1  0  0  0  0  0  0  0  0  0
    8.1566  -12.8865   18.0435 O   0  0  0  0  0  0  0  0  0  0  0  0
    9.4772  -12.8313   16.0297 C   0  0  1  0  0  0  0  0  0  0  0  0
    8.6875  -13.9920   15.8990 O   0  0  0  0  0  0  0  0  0  0  0  0
    9.2765  -11.9019   14.8308 C   0  0  2  0  0  0  0  0  0  0  0  0
   10.4249  -10.6524   22.8803 O   0  0  0  0  0  0  0  0  0  0  0  0
   13.8420   -9.5933   15.9464 N   0  0  0  0  0  0  0  0  0  0  0  0
   12.8017   -9.8618   16.8025 C   0  0  0  0  0  0  0  0  0  0  0  0
   11.6713  -10.4804   16.3155 N   0  0  0  0  0  0  0  0  0  0  0  0
   11.5710  -10.8290   15.0132 C   0  0  0  0  0  0  0  0  0  0  0  0
   12.6188  -10.5770   14.1396 C   0  0  0  0  0  0  0  0  0  0  0  0
   13.7646   -9.9426   14.6149 C   0  0  0  0  0  0  0  0  0  0  0  0
   14.7901   -9.6773   13.8052 N   0  0  0  0  0  0  0  0  0  0  0  0
   12.2578  -11.0324   12.9122 N   0  0  0  0  0  0  0  0  0  0  0  0
   11.0215  -11.5738   13.0086 C   0  0  0  0  0  0  0  0  0  0  0  0
   10.5845  -11.4623   14.3056 N   0  0  0  0  0  0  0  0  0  0  0  0
  2  1  1  6  0  0  0
  2  3  1  0  0  0  0
  2  5  1  0  0  0  0
  3  4  1  0  0  0  0
  3 17  1  0  0  0  0
  5  6  1  0  0  0  0
  7  6  1  1  0  0  0
  7  8  1  0  0  0  0
  7  9  1  0  0  0  0
 10  9  1  1  0  0  0
 10 11  1  0  0  0  0
 10 12  1  0  0  0  0
 11 16  1  0  0  0  0
 12 13  1  1  0  0  0
 12 14  1  0  0  0  0
 14 15  1  6  0  0  0
 14 16  1  0  0  0  0
 16 27  1  1  0  0  0
 18 19  2  0  0  0  0
 18 23  1  0  0  0  0
 19 20  1  0  0  0  0
 20 21  2  0  0  0  0
 21 22  1  0  0  0  0
 21 27  1  0  0  0  0
 22 23  2  0  0  0  0
 22 25  1  0  0  0  0
 23 24  1  0  0  0  0
 25 26  2  0  0  0  0
 26 27  1  0  0  0  0
M  END
>  <CHROM.1>
-36.35604523,-60.12122896,173.13182075,-171.53217834,-140.83438794,-46.46363350
57.62750638,10.63410203,-10.36294337,17.16962097,-1.66472867,-0.49320788
-1.84604505

>  <Name>
ligand

>  <RI>
0

>  <Rbt.Current_Directory>
/home/itssahil/PROJECTS/Mol_Feturizer/New_Systems/rnas/3GX5

>  <Rbt.Executable>
rbdock ($Id: //depot/dev/client3/rdock/2013.1/src/exe/rbdock.cxx#4 $)

>  <Rbt.Library>
libRbt.so (2013.1, Build901 2013/11/27)

>  <Rbt.Parameter_File>
/export/apps/rDock/src/rDock_2013.1_src/data/scripts/dock_solv.prm

>  <Rbt.Receptor>
prm/blind_docking_40.prm

>  <SCORE>
-9.51128

>  <SCORE.INTER>
-9.8735

>  <SCORE.INTER.CONST>
1

>  <SCORE.INTER.POLAR>
0

>  <SCORE.INTER.ROT>
7

>  <SCORE.INTER.SOLV>
9.66941

>  <SCORE.INTER.VDW>
-18.0721

>  <SCORE.INTER.norm>
-0.365685

>  <SCORE.INTRA>
0.358259

>  <SCORE.INTRA.DIHEDRAL>
4.69863

>  <SCORE.INTRA.DIHEDRAL.0>
4.28829

>  <SCORE.INTRA.POLAR>
0

>  <SCORE.INTRA.POLAR.0>
0

>  <SCORE.INTRA.REPUL>
0

>  <SCORE.INTRA.REPUL.0>
0

>  <SCORE.INTRA.SOLV>
-0.24987

>  <SCORE.INTRA.SOLV.lig_0>
-48.6018

>  <SCORE.INTRA.VDW>
-1.86612

>  <SCORE.INTRA.VDW.0>
-2.1506

>  <SCORE.INTRA.norm>
0.0132688

>  <SCORE.RESTR>
0.00395891

>  <SCORE.RESTR.CAVITY>
0.00395891

>  <SCORE.RESTR.norm>
0.000146626

>  <SCORE.SYSTEM>
0

>  <SCORE.SYSTEM.CONST>
0

>  <SCORE.SYSTEM.DIHEDRAL>
0

>  <SCORE.SYSTEM.SOLV>
0

>  <SCORE.SYSTEM.norm>
0

>  <SCORE.heavy>
27

>  <SCORE.norm>
-0.35227

>  <RMSD>
11.087

$$$$
ligand
 OpenBabel11021811483D
libRbt.so/2013.1/901 2013/11/27
 27 29  0  0  0  0  0  0  0  0999 V2000
    7.4688   -5.9109   19.1211 N   0  0  0  0  0  0  0  0  0  0  0  0
    7.9776   -5.4177   17.8398 C   0  0  2  0  0  0  0  0  0  0  0  0
    7.4745   -4.0367   17.4126 C   0  0  0  0  0  0  0  0  0  0  0  0
    6.5231   -3.5405   18.0146 O   0  0  0  0  0  0  0  0  0  0  0  0
    7.7463   -6.4353   16.7353 C   0  0  0  0  0  0  0  0  0  0  0  0
    6.2719   -6.7657   16.5800 C   0  0  0  0  0  0  0  0  0  0  0  0
    6.0232   -7.9595   15.2540 S   0  0  2  0  0  0  0  0  0  0  0  0
    4.2195   -8.0307   15.2311 C   0  0  0  0  0  0  0  0  0  0  0  0
    6.3745   -9.5021   16.1291 C   0  0  0  0  0  0  0  0  0  0  0  0
    7.5413  -10.2330   15.4908 C   0  0  1  0  0  0  0  0  0  0  0  0
    8.7385   -9.5121   15.6733 O   0  0  0  0  0  0  0  0  0  0  0  0
    7.7978  -11.5894   16.1175 C   0  0  1  0  0  0  0  0  0  0  0  0
    7.0955  -12.5581   15.3804 O   0  0  0  0  0  0  0  0  0  0  0  0
    9.2948  -11.7713   15.9691 C   0  0  1  0  0  0  0  0  0  0  0  0
    9.5085  -12.6059   14.8530 O   0  0  0  0  0  0  0  0  0  0  0  0
    9.8628  -10.3730   15.7164 C   0  0  2  0  0  0  0  0  0  0  0  0
    7.9770   -3.3970   16.4847 O   0  0  0  0  0  0  0  0  0  0  0  0
   13.5797   -7.0997   17.4156 N   0  0  0  0  0  0  0  0  0  0  0  0
   13.0309   -7.1723   16.1583 C   0  0  0  0  0  0  0  0  0  0  0  0
   12.0557   -8.1111   15.9025 N   0  0  0  0  0  0  0  0  0  0  0  0
   11.6296   -8.9574   16.8667 C   0  0  0  0  0  0  0  0  0  0  0  0
   12.1645   -8.8868   18.1448 C   0  0  0  0  0  0  0  0  0  0  0  0
   13.1590   -7.9495   18.4164 C   0  0  0  0  0  0  0  0  0  0  0  0
   13.7023   -7.8552   19.6303 N   0  0  0  0  0  0  0  0  0  0  0  0
   11.5566   -9.8341   18.9047 N   0  0  0  0  0  0  0  0  0  0  0  0
   10.6489  -10.4764   18.1339 C   0  0  0  0  0  0  0  0  0  0  0  0
   10.6765   -9.9404   16.8699 N   0  0  0  0  0  0  0  0  0  0  0  0
  2  1  1  1  0  0  0
  2  3  1  0  0  0  0
  2  5  1  0  0  0  0
  3  4  1  0  0  0  0
  3 17  1  0  0  0  0
  5  6  1  0  0  0  0
  7  6  1  1  0  0  0
  7  8  1  0  0  0  0
  7  9  1  0  0  0  0
 10  9  1  1  0  0  0
 10 11  1  0  0  0  0
 10 12  1  0  0  0  0
 11 16  1  0  0  0  0
 12 13  1  6  0  0  0
 12 14  1  0  0  0  0
 14 15  1  6  0  0  0
 14 16  1  0  0  0  0
 16 27  1  1  0  0  0
 18 19  2  0  0  0  0
 18 23  1  0  0  0  0
 19 20  1  0  0  0  0
 20 21  2  0  0  0  0
 21 22  1  0  0  0  0
 21 27  1  0  0  0  0
 22 23  2  0  0  0  0
 22 25  1  0  0  0  0
 23 24  1  0  0  0  0
 25 26  2  0  0  0  0
 26 27  1  0  0  0  0
M  END
>  <CHROM.1>
-12.80960158,58.58639222,179.39275078,-175.48920122,-119.87816426,67.51322901
-86.17389238,9.01206927,-8.34128225,16.72143039,-2.68114140,0.29276642,-2.85371129

>  <Name>
ligand

>  <RI>
0

>  <Rbt.Current_Directory>
/home/itssahil/PROJECTS/Mol_Feturizer/New_Systems/rnas/3GX5

>  <Rbt.Executable>
rbdock ($Id: //depot/dev/client3/rdock/2013.1/src/exe/rbdock.cxx#4 $)

>  <Rbt.Library>
libRbt.so (2013.1, Build901 2013/11/27)

>  <Rbt.Parameter_File>
/export/apps/rDock/src/rDock_2013.1_src/data/scripts/dock_solv.prm

>  <Rbt.Receptor>
prm/blind_docking_60.prm

>  <SCORE>
-9.67382

>  <SCORE.INTER>
-11.1469

>  <SCORE.INTER.CONST>
1

>  <SCORE.INTER.POLAR>
0

>  <SCORE.INTER.ROT>
7

>  <SCORE.INTER.SOLV>
10.4223

>  <SCORE.INTER.VDW>
-19.172

>  <SCORE.INTER.norm>
-0.412849

>  <SCORE.INTRA>
1.47311

>  <SCORE.INTRA.DIHEDRAL>
4.00936

>  <SCORE.INTRA.DIHEDRAL.0>
4.28829

>  <SCORE.INTRA.POLAR>
0

>  <SCORE.INTRA.POLAR.0>
0

>  <SCORE.INTRA.REPUL>
0

>  <SCORE.INTRA.REPUL.0>
0

>  <SCORE.INTRA.SOLV>
-0.51647

>  <SCORE.INTRA.SOLV.lig_0>
-48.6018

>  <SCORE.INTRA.VDW>
-0.273331

>  <SCORE.INTRA.VDW.0>
-2.1506

>  <SCORE.INTRA.norm>
0.0545598

>  <SCORE.RESTR>
0

>  <SCORE.RESTR.CAVITY>
0

>  <SCORE.RESTR.norm>
0

>  <SCORE.SYSTEM>
0

>  <SCORE.SYSTEM.CONST>
0

>  <SCORE.SYSTEM.DIHEDRAL>
0

>  <SCORE.SYSTEM.SOLV>
0

>  <SCORE.SYSTEM.norm>
0

>  <SCORE.heavy>
27

>  <SCORE.norm>
-0.35829

>  <RMSD>
11.088

$$$$
ligand
 OpenBabel11021811483D
libRbt.so/2013.1/901 2013/11/27
 27 29  0  0  0  0  0  0  0  0999 V2000
   10.8753   -7.2890   21.7011 N   0  0  0  0  0  0  0  0  0  0  0  0
   11.3612   -8.6701   21.7183 C   0  0  2  0  0  0  0  0  0  0  0  0
   11.3252   -9.3700   23.0790 C   0  0  0  0  0  0  0  0  0  0  0  0
   10.6726  -10.4065   23.1951 O   0  0  0  0  0  0  0  0  0  0  0  0
   12.7482   -8.7658   21.1053 C   0  0  0  0  0  0  0  0  0  0  0  0
   12.7696   -8.2279   19.6849 C   0  0  0  0  0  0  0  0  0  0  0  0
   14.4500   -8.2098   19.0361 S   0  0  2  0  0  0  0  0  0  0  0  0
   15.2103   -7.0276   20.1691 C   0  0  0  0  0  0  0  0  0  0  0  0
   14.2340   -7.1457   17.5906 C   0  0  0  0  0  0  0  0  0  0  0  0
   13.6895   -7.9346   16.4141 C   0  0  1  0  0  0  0  0  0  0  0  0
   12.4050   -8.4365   16.7046 O   0  0  0  0  0  0  0  0  0  0  0  0
   13.5098   -7.0856   15.1710 C   0  0  1  0  0  0  0  0  0  0  0  0
   14.6761   -7.1860   14.3933 O   0  0  0  0  0  0  0  0  0  0  0  0
   12.3304   -7.7287   14.4698 C   0  0  1  0  0  0  0  0  0  0  0  0
   12.8460   -8.5472   13.4441 O   0  0  0  0  0  0  0  0  0  0  0  0
   11.6221   -8.5726   15.5317 C   0  0  2  0  0  0  0  0  0  0  0  0
   11.9183   -8.9385   24.0714 O   0  0  0  0  0  0  0  0  0  0  0  0
    6.4624   -9.4284   15.7822 N   0  0  0  0  0  0  0  0  0  0  0  0
    7.4494  -10.3210   15.4411 C   0  0  0  0  0  0  0  0  0  0  0  0
    8.7618   -9.9025   15.4314 N   0  0  0  0  0  0  0  0  0  0  0  0
    9.0931   -8.6321   15.7540 C   0  0  0  0  0  0  0  0  0  0  0  0
    8.1088   -7.7232   16.1140 C   0  0  0  0  0  0  0  0  0  0  0  0
    6.7758   -8.1286   16.1186 C   0  0  0  0  0  0  0  0  0  0  0  0
    5.8007   -7.2827   16.4523 N   0  0  0  0  0  0  0  0  0  0  0  0
    8.7148   -6.5403   16.3930 N   0  0  0  0  0  0  0  0  0  0  0  0
   10.0485   -6.6996   16.2307 C   0  0  0  0  0  0  0  0  0  0  0  0
   10.3004   -7.9922   15.8418 N   0  0  0  0  0  0  0  0  0  0  0  0
  2  1  1  1  0  0  0
  2  3  1  0  0  0  0
  2  5  1  0  0  0  0
  3  4  1  0  0  0  0
  3 17  1  0  0  0  0
  5  6  1  0  0  0  0
  7  6  1  1  0  0  0
  7  8  1  0  0  0  0
  7  9  1  0  0  0  0
 10  9  1  1  0  0  0
 10 11  1  0  0  0  0
 10 12  1  0  0  0  0
 11 16  1  0  0  0  0
 12 13  1  6  0  0  0
 12 14  1  0  0  0  0
 14 15  1  6  0  0  0
 14 16  1  0  0  0  0
 16 27  1  1  0  0  0
 18 19  2  0  0  0  0
 18 23  1  0  0  0  0
 19 20  1  0  0  0  0
 20 21  2  0  0  0  0
 21 22  1  0  0  0  0
 21 27  1  0  0  0  0
 22 23  2  0  0  0  0
 22 25  1  0  0  0  0
 23 24  1  0  0  0  0
 25 26  2  0  0  0  0
 26 27  1  0  0  0  0
M  END
>  <CHROM.1>
121.34942893,-57.08911612,174.72443620,-63.55643813,-82.13140622,63.42046430
-122.70891770,11.29942147,-8.23260424,17.78541132,1.07009800,0.14351907,1.69808161

>  <Name>
ligand

>  <RI>
0

>  <Rbt.Current_Directory>
/home/itssahil/PROJECTS/Mol_Feturizer/New_Systems/rnas/3GX5

>  <Rbt.Executable>
rbdock ($Id: //depot/dev/client3/rdock/2013.1/src/exe/rbdock.cxx#4 $)

>  <Rbt.Library>
libRbt.so (2013.1, Build901 2013/11/27)

>  <Rbt.Parameter_File>
/export/apps/rDock/src/rDock_2013.1_src/data/scripts/dock_solv.prm

>  <Rbt.Receptor>
prm/blind_docking_80.prm

>  <SCORE>
-12.5227

>  <SCORE.INTER>
-12.5435

>  <SCORE.INTER.CONST>
1

>  <SCORE.INTER.POLAR>
0

>  <SCORE.INTER.ROT>
7

>  <SCORE.INTER.SOLV>
6.45025

>  <SCORE.INTER.VDW>
-18.7791

>  <SCORE.INTER.norm>
-0.464573

>  <SCORE.INTRA>
0.0207465

>  <SCORE.INTRA.DIHEDRAL>
-0.0946605

>  <SCORE.INTRA.DIHEDRAL.0>
4.28829

>  <SCORE.INTRA.POLAR>
0

>  <SCORE.INTRA.POLAR.0>
0

>  <SCORE.INTRA.REPUL>
0

>  <SCORE.INTRA.REPUL.0>
0

>  <SCORE.INTRA.SOLV>
-0.371479

>  <SCORE.INTRA.SOLV.lig_0>
-48.6018

>  <SCORE.INTRA.VDW>
0.253816

>  <SCORE.INTRA.VDW.0>
-2.1506

>  <SCORE.INTRA.norm>
0.00076839

>  <SCORE.RESTR>
0

>  <SCORE.RESTR.CAVITY>
0

>  <SCORE.RESTR.norm>
0

>  <SCORE.SYSTEM>
0

>  <SCORE.SYSTEM.CONST>
0

>  <SCORE.SYSTEM.DIHEDRAL>
0

>  <SCORE.SYSTEM.SOLV>
0

>  <SCORE.SYSTEM.norm>
0

>  <SCORE.heavy>
27

>  <SCORE.norm>
-0.463805

>  <RMSD>
11.088

$$$$
ligand
 OpenBabel11021811483D
libRbt.so/2013.1/901 2013/11/27
 27 29  0  0  0  0  0  0  0  0999 V2000
   11.1839   -8.3798   22.3727 N   0  0  0  0  0  0  0  0  0  0  0  0
   12.4389   -8.0825   21.6797 C   0  0  2  0  0  0  0  0  0  0  0  0
   12.8358   -6.6051   21.6290 C   0  0  0  0  0  0  0  0  0  0  0  0
   11.9623   -5.7515   21.7782 O   0  0  0  0  0  0  0  0  0  0  0  0
   12.4455   -8.6851   20.2849 C   0  0  0  0  0  0  0  0  0  0  0  0
   13.7870   -8.4916   19.5990 C   0  0  0  0  0  0  0  0  0  0  0  0
   13.7995   -9.2950   17.9867 S   0  0  2  0  0  0  0  0  0  0  0  0
   15.4767   -8.8958   17.4511 C   0  0  0  0  0  0  0  0  0  0  0  0
   12.8755   -8.0869   17.0093 C   0  0  0  0  0  0  0  0  0  0  0  0
   12.5431   -8.6417   15.6364 C   0  0  1  0  0  0  0  0  0  0  0  0
   11.6251   -9.7060   15.7398 O   0  0  0  0  0  0  0  0  0  0  0  0
   11.8673   -7.6231   14.7397 C   0  0  1  0  0  0  0  0  0  0  0  0
   12.8564   -6.9778   13.9779 O   0  0  0  0  0  0  0  0  0  0  0  0
   10.9665   -8.4668   13.8606 C   0  0  1  0  0  0  0  0  0  0  0  0
   11.6249   -8.6385   12.6257 O   0  0  0  0  0  0  0  0  0  0  0  0
   10.8130   -9.8068   14.5834 C   0  0  2  0  0  0  0  0  0  0  0  0
   13.9953   -6.2279   21.4391 O   0  0  0  0  0  0  0  0  0  0  0  0
    6.8965  -13.1698   15.4605 N   0  0  0  0  0  0  0  0  0  0  0  0
    8.1573  -13.4479   14.9912 C   0  0  0  0  0  0  0  0  0  0  0  0
    9.0560  -12.4174   14.8237 N   0  0  0  0  0  0  0  0  0  0  0  0
    8.7189  -11.1412   15.1157 C   0  0  0  0  0  0  0  0  0  0  0  0
    7.4541  -10.8466   15.6036 C   0  0  0  0  0  0  0  0  0  0  0  0
    6.5306  -11.8768   15.7687 C   0  0  0  0  0  0  0  0  0  0  0  0
    5.3032  -11.6330   16.2288 N   0  0  0  0  0  0  0  0  0  0  0  0
    7.3908   -9.5071   15.8175 N   0  0  0  0  0  0  0  0  0  0  0  0
    8.5883   -8.9692   15.4902 C   0  0  0  0  0  0  0  0  0  0  0  0
    9.4251   -9.9695   15.0601 N   0  0  0  0  0  0  0  0  0  0  0  0
  2  1  1  6  0  0  0
  2  3  1  0  0  0  0
  2  5  1  0  0  0  0
  3  4  1  0  0  0  0
  3 17  1  0  0  0  0
  5  6  1  0  0  0  0
  7  6  1  1  0  0  0
  7  8  1  0  0  0  0
  7  9  1  0  0  0  0
 10  9  1  1  0  0  0
 10 11  1  0  0  0  0
 10 12  1  0  0  0  0
 11 16  1  0  0  0  0
 12 13  1  6  0  0  0
 12 14  1  0  0  0  0
 14 15  1  6  0  0  0
 14 16  1  0  0  0  0
 16 27  1  1  0  0  0
 18 19  2  0  0  0  0
 18 23  1  0  0  0  0
 19 20  1  0  0  0  0
 20 21  2  0  0  0  0
 21 22  1  0  0  0  0
 21 27  1  0  0  0  0
 22 23  2  0  0  0  0
 22 25  1  0  0  0  0
 23 24  1  0  0  0  0
 25 26  2  0  0  0  0
 26 27  1  0  0  0  0
M  END
>  <CHROM.1>
-21.62954299,-174.94569842,176.78665616,-179.88826982,-170.57775124,67.32330719
-101.63026623,11.00956189,-9.23381579,16.99814344,0.77604487,0.51295948,1.42763391

>  <Name>
ligand

>  <RI>
0

>  <Rbt.Current_Directory>
/home/itssahil/PROJECTS/Mol_Feturizer/New_Systems/rnas/3GX5

>  <Rbt.Executable>
rbdock ($Id: //depot/dev/client3/rdock/2013.1/src/exe/rbdock.cxx#4 $)

>  <Rbt.Library>
libRbt.so (2013.1, Build901 2013/11/27)

>  <Rbt.Parameter_File>
/export/apps/rDock/src/rDock_2013.1_src/data/scripts/dock_solv.prm

>  <Rbt.Receptor>
prm/blind_docking_100.prm

>  <SCORE>
-13.5605

>  <SCORE.INTER>
-13.6458

>  <SCORE.INTER.CONST>
1

>  <SCORE.INTER.POLAR>
0

>  <SCORE.INTER.ROT>
7

>  <SCORE.INTER.SOLV>
11.6364

>  <SCORE.INTER.VDW>
-21.2427

>  <SCORE.INTER.norm>
-0.505401

>  <SCORE.INTRA>
0.0853449

>  <SCORE.INTRA.DIHEDRAL>
0.674077

>  <SCORE.INTRA.DIHEDRAL.0>
4.28829

>  <SCORE.INTRA.POLAR>
0

>  <SCORE.INTRA.POLAR.0>
0

>  <SCORE.INTRA.REPUL>
0

>  <SCORE.INTRA.REPUL.0>
0

>  <SCORE.INTRA.SOLV>
-1.34156

>  <SCORE.INTRA.SOLV.lig_0>
-48.6018

>  <SCORE.INTRA.VDW>
0.419087

>  <SCORE.INTRA.VDW.0>
-2.1506

>  <SCORE.INTRA.norm>
0.00316092

>  <SCORE.RESTR>
0

>  <SCORE.RESTR.CAVITY>
0

>  <SCORE.RESTR.norm>
0

>  <SCORE.SYSTEM>
0

>  <SCORE.SYSTEM.CONST>
0

>  <SCORE.SYSTEM.DIHEDRAL>
0

>  <SCORE.SYSTEM.SOLV>
0

>  <SCORE.SYSTEM.norm>
0

>  <SCORE.heavy>
27

>  <SCORE.norm>
-0.50224

>  <RMSD>
11.109

$$$$
ligand
 OpenBabel11021811483D
libRbt.so/2013.1/901 2013/11/27
 27 29  0  0  0  0  0  0  0  0999 V2000
    8.9441   -8.7055   22.0910 N   0  0  0  0  0  0  0  0  0  0  0  0
    8.7062   -7.5321   21.2481 C   0  0  2  0  0  0  0  0  0  0  0  0
    8.0953   -6.3195   21.9547 C   0  0  0  0  0  0  0  0  0  0  0  0
    8.2979   -5.1987   21.4896 O   0  0  0  0  0  0  0  0  0  0  0  0
    7.8907   -7.9014   20.0203 C   0  0  0  0  0  0  0  0  0  0  0  0
    8.6362   -8.8784   19.1277 C   0  0  0  0  0  0  0  0  0  0  0  0
    7.7110   -9.1911   17.6139 S   0  0  2  0  0  0  0  0  0  0  0  0
    6.5650  -10.4555   18.2030 C   0  0  0  0  0  0  0  0  0  0  0  0
    8.8832  -10.2391   16.7216 C   0  0  0  0  0  0  0  0  0  0  0  0
    9.5570   -9.4666   15.6025 C   0  0  1  0  0  0  0  0  0  0  0  0
   10.1429   -8.2845   16.0980 O   0  0  0  0  0  0  0  0  0  0  0  0
   10.6972  -10.2344   14.9631 C   0  0  1  0  0  0  0  0  0  0  0  0
   10.1927  -10.9356   13.8546 O   0  0  0  0  0  0  0  0  0  0  0  0
   11.6578   -9.1461   14.5285 C   0  0  1  0  0  0  0  0  0  0  0  0
   11.4557   -8.9328   13.1495 O   0  0  0  0  0  0  0  0  0  0  0  0
   11.2712   -7.9022   15.3313 C   0  0  2  0  0  0  0  0  0  0  0  0
    7.4105   -6.4132   22.9769 O   0  0  0  0  0  0  0  0  0  0  0  0
   12.9578   -8.3768   20.2657 N   0  0  0  0  0  0  0  0  0  0  0  0
   11.8189   -8.9067   19.7094 C   0  0  0  0  0  0  0  0  0  0  0  0
   11.5439   -8.6668   18.3810 N   0  0  0  0  0  0  0  0  0  0  0  0
   12.3758   -7.9231   17.6179 C   0  0  0  0  0  0  0  0  0  0  0  0
   13.5366   -7.3930   18.1620 C   0  0  0  0  0  0  0  0  0  0  0  0
   13.8234   -7.6182   19.5067 C   0  0  0  0  0  0  0  0  0  0  0  0
   14.9257   -7.1202   20.0677 N   0  0  0  0  0  0  0  0  0  0  0  0
   14.1807   -6.7065   17.1832 N   0  0  0  0  0  0  0  0  0  0  0  0
   13.4566   -6.8125   16.0452 C   0  0  0  0  0  0  0  0  0  0  0  0
   12.3385   -7.5693   16.2957 N   0  0  0  0  0  0  0  0  0  0  0  0
  2  1  1  1  0  0  0
  2  3  1  0  0  0  0
  2  5  1  0  0  0  0
  3  4  1  0  0  0  0
  3 17  1  0  0  0  0
  5  6  1  0  0  0  0
  7  6  1  1  0  0  0
  7  8  1  0  0  0  0
  7  9  1  0  0  0  0
 10  9  1  1  0  0  0
 10 11  1  0  0  0  0
 10 12  1  0  0  0  0
 11 16  1  0  0  0  0
 12 13  1  6  0  0  0
 12 14  1  0  0  0  0
 14 15  1  6  0  0  0
 14 16  1  0  0  0  0
 16 27  1  1  0  0  0
 18 19  2  0  0  0  0
 18 23  1  0  0  0  0
 19 20  1  0  0  0  0
 20 21  2  0  0  0  0
 21 22  1  0  0  0  0
 21 27  1  0  0  0  0
 22 23  2  0  0  0  0
 22 25  1  0  0  0  0
 23 24  1  0  0  0  0
 25 26  2  0  0  0  0
 26 27  1  0  0  0  0
M  END
>  <CHROM.1>
154.38106367,-63.43438836,-175.17657392,-82.88735014,-105.03077453,53.83953571
17.20433573,10.41286648,-8.31020846,18.04514067,2.05656438,0.27060338,1.17763316

>  <Name>
ligand

>  <RI>
0

>  <Rbt.Current_Directory>
/home/itssahil/PROJECTS/Mol_Feturizer/New_Systems/rnas/3GX5

>  <Rbt.Executable>
rbdock ($Id: //depot/dev/client3/rdock/2013.1/src/exe/rbdock.cxx#4 $)

>  <Rbt.Library>
libRbt.so (2013.1, Build901 2013/11/27)

>  <Rbt.Parameter_File>
/export/apps/rDock/src/rDock_2013.1_src/data/scripts/dock_solv.prm

>  <Rbt.Receptor>
prm/blind_docking_40.prm

>  <SCORE>
-5.97585

>  <SCORE.INTER>
-5.76782

>  <SCORE.INTER.CONST>
1

>  <SCORE.INTER.POLAR>
0

>  <SCORE.INTER.ROT>
7

>  <SCORE.INTER.SOLV>
10.7813

>  <SCORE.INTER.VDW>
-15.7056

>  <SCORE.INTER.norm>
-0.213623

>  <SCORE.INTRA>
-0.208021

>  <SCORE.INTRA.DIHEDRAL>
2.85296

>  <SCORE.INTRA.DIHEDRAL.0>
4.28829

>  <SCORE.INTRA.POLAR>
0

>  <SCORE.INTRA.POLAR.0>
0

>  <SCORE.INTRA.REPUL>
0

>  <SCORE.INTRA.REPUL.0>
0

>  <SCORE.INTRA.SOLV>
-0.382702

>  <SCORE.INTRA.SOLV.lig_0>
-48.6018

>  <SCORE.INTRA.VDW>
-1.44315

>  <SCORE.INTRA.VDW.0>
-2.1506

>  <SCORE.INTRA.norm>
-0.00770448

>  <SCORE.RESTR>
0

>  <SCORE.RESTR.CAVITY>
0

>  <SCORE.RESTR.norm>
0

>  <SCORE.SYSTEM>
0

>  <SCORE.SYSTEM.CONST>
0

>  <SCORE.SYSTEM.DIHEDRAL>
0

>  <SCORE.SYSTEM.SOLV>
0

>  <SCORE.SYSTEM.norm>
0

>  <SCORE.heavy>
27

>  <SCORE.norm>
-0.221328

>  <RMSD>
11.114

$$$$
ligand
 OpenBabel11021811483D
libRbt.so/2013.1/901 2013/11/27
 27 29  0  0  0  0  0  0  0  0999 V2000
    9.3824   -7.8339   23.0088 N   0  0  0  0  0  0  0  0  0  0  0  0
    9.3765   -6.9398   21.8494 C   0  0  2  0  0  0  0  0  0  0  0  0
    8.9691   -5.4913   22.1298 C   0  0  0  0  0  0  0  0  0  0  0  0
    9.6333   -4.5823   21.6335 O   0  0  0  0  0  0  0  0  0  0  0  0
    8.5418   -7.5199   20.7199 C   0  0  0  0  0  0  0  0  0  0  0  0
    9.1427   -8.8091   20.1866 C   0  0  0  0  0  0  0  0  0  0  0  0
    8.4574   -9.2095   18.5694 S   0  0  2  0  0  0  0  0  0  0  0  0
    6.7724   -9.6505   19.0440 C   0  0  0  0  0  0  0  0  0  0  0  0
    9.1433  -10.8638   18.3212 C   0  0  0  0  0  0  0  0  0  0  0  0
    8.5889  -11.4957   17.0577 C   0  0  1  0  0  0  0  0  0  0  0  0
    9.0871  -10.8392   15.9144 O   0  0  0  0  0  0  0  0  0  0  0  0
    9.0059  -12.9441   16.8943 C   0  0  1  0  0  0  0  0  0  0  0  0
    8.0076  -13.7587   17.4555 O   0  0  0  0  0  0  0  0  0  0  0  0
    9.0763  -13.1255   15.3915 C   0  0  1  0  0  0  0  0  0  0  0  0
    7.8835  -13.7599   14.9881 O   0  0  0  0  0  0  0  0  0  0  0  0
    9.1652  -11.7154   14.8040 C   0  0  2  0  0  0  0  0  0  0  0  0
    8.0044   -5.1907   22.8382 O   0  0  0  0  0  0  0  0  0  0  0  0
   11.9442   -8.9871   11.3038 N   0  0  0  0  0  0  0  0  0  0  0  0
   10.6130   -8.8506   11.6144 C   0  0  0  0  0  0  0  0  0  0  0  0
   10.0573   -9.6707   12.5717 N   0  0  0  0  0  0  0  0  0  0  0  0
   10.7996  -10.6027   13.2104 C   0  0  0  0  0  0  0  0  0  0  0  0
   12.1484  -10.7429   12.9174 C   0  0  0  0  0  0  0  0  0  0  0  0
   12.7225   -9.9278   11.9442 C   0  0  0  0  0  0  0  0  0  0  0  0
   14.0136  -10.0368   11.6299 N   0  0  0  0  0  0  0  0  0  0  0  0
   12.6451  -11.7338   13.7020 N   0  0  0  0  0  0  0  0  0  0  0  0
   11.6425  -12.1977   14.4832 C   0  0  0  0  0  0  0  0  0  0  0  0
   10.4937  -11.5024   14.1961 N   0  0  0  0  0  0  0  0  0  0  0  0
  2  1  1  1  0  0  0
  2  3  1  0  0  0  0
  2  5  1  0  0  0  0
  3  4  1  0  0  0  0
  3 17  1  0  0  0  0
  5  6  1  0  0  0  0
  7  6  1  1  0  0  0
  7  8  1  0  0  0  0
  7  9  1  0  0  0  0
 10  9  1  1  0  0  0
 10 11  1  0  0  0  0
 10 12  1  0  0  0  0
 11 16  1  0  0  0  0
 12 13  1  6  0  0  0
 12 14  1  0  0  0  0
 14 15  1  6  0  0  0
 14 16  1  0  0  0  0
 16 27  1  1  0  0  0
 18 19  2  0  0  0  0
 18 23  1  0  0  0  0
 19 20  1  0  0  0  0
 20 21  2  0  0  0  0
 21 22  1  0  0  0  0
 21 27  1  0  0  0  0
 22 23  2  0  0  0  0
 22 25  1  0  0  0  0
 23 24  1  0  0  0  0
 25 26  2  0  0  0  0
 26 27  1  0  0  0  0
M  END
>  <CHROM.1>
135.11472272,-64.53849423,-162.82561453,-69.97517182,174.22481537,69.47820354
-90.18850999,9.69115577,-9.87586601,16.81501916,-2.02766836,-0.94928299,-2.40155336

>  <Name>
ligand

>  <RI>
0

>  <Rbt.Current_Directory>
/home/itssahil/PROJECTS/Mol_Feturizer/New_Systems/rnas/3GX5

>  <Rbt.Executable>
rbdock ($Id: //depot/dev/client3/rdock/2013.1/src/exe/rbdock.cxx#4 $)

>  <Rbt.Library>
libRbt.so (2013.1, Build901 2013/11/27)

>  <Rbt.Parameter_File>
/export/apps/rDock/src/rDock_2013.1_src/data/scripts/dock_solv.prm

>  <Rbt.Receptor>
prm/blind_docking_80.prm

>  <SCORE>
-10.9121

>  <SCORE.INTER>
-11.4688

>  <SCORE.INTER.CONST>
1

>  <SCORE.INTER.POLAR>
0

>  <SCORE.INTER.ROT>
7

>  <SCORE.INTER.SOLV>
9.19778

>  <SCORE.INTER.VDW>
-18.9785

>  <SCORE.INTER.norm>
-0.424771

>  <SCORE.INTRA>
0.47547

>  <SCORE.INTRA.DIHEDRAL>
0.732194

>  <SCORE.INTRA.DIHEDRAL.0>
4.28829

>  <SCORE.INTRA.POLAR>
0

>  <SCORE.INTRA.POLAR.0>
0

>  <SCORE.INTRA.REPUL>
0

>  <SCORE.INTRA.REPUL.0>
0

>  <SCORE.INTRA.SOLV>
-0.674832

>  <SCORE.INTRA.SOLV.lig_0>
-48.6018

>  <SCORE.INTRA.VDW>
0.446789

>  <SCORE.INTRA.VDW.0>
-2.1506

>  <SCORE.INTRA.norm>
0.01761

>  <SCORE.RESTR>
0.0812858

>  <SCORE.RESTR.CAVITY>
0.0812858

>  <SCORE.RESTR.norm>
0.00301058

>  <SCORE.SYSTEM>
0

>  <SCORE.SYSTEM.CONST>
0

>  <SCORE.SYSTEM.DIHEDRAL>
0

>  <SCORE.SYSTEM.SOLV>
0

>  <SCORE.SYSTEM.norm>
0

>  <SCORE.heavy>
27

>  <SCORE.norm>
-0.40415

>  <RMSD>
11.140

$$$$
ligand
 OpenBabel11021811483D
libRbt.so/2013.1/901 2013/11/27
 27 29  0  0  0  0  0  0  0  0999 V2000
   11.0022   -8.5395   20.1115 N   0  0  0  0  0  0  0  0  0  0  0  0
   10.1823   -9.6123   19.5453 C   0  0  2  0  0  0  0  0  0  0  0  0
   10.8174  -10.3971   18.3949 C   0  0  0  0  0  0  0  0  0  0  0  0
   11.8353   -9.9528   17.8656 O   0  0  0  0  0  0  0  0  0  0  0  0
    8.8109   -9.0946   19.1451 C   0  0  0  0  0  0  0  0  0  0  0  0
    7.8389  -10.2321   18.8832 C   0  0  0  0  0  0  0  0  0  0  0  0
    6.3890   -9.6386   17.9940 S   0  0  2  0  0  0  0  0  0  0  0  0
    5.4120   -9.0072   19.3746 C   0  0  0  0  0  0  0  0  0  0  0  0
    5.5220  -11.1975   17.6994 C   0  0  0  0  0  0  0  0  0  0  0  0
    6.2871  -12.0654   16.7174 C   0  0  1  0  0  0  0  0  0  0  0  0
    6.8328  -11.2807   15.6817 O   0  0  0  0  0  0  0  0  0  0  0  0
    7.4744  -12.7627   17.3518 C   0  0  1  0  0  0  0  0  0  0  0  0
    7.0613  -14.0334   17.7873 O   0  0  0  0  0  0  0  0  0  0  0  0
    8.4698  -12.8734   16.2147 C   0  0  1  0  0  0  0  0  0  0  0  0
    8.3822  -14.1851   15.7052 O   0  0  0  0  0  0  0  0  0  0  0  0
    8.0211  -11.8538   15.1656 C   0  0  2  0  0  0  0  0  0  0  0  0
   10.3512  -11.4567   17.9675 O   0  0  0  0  0  0  0  0  0  0  0  0
   12.4808  -10.2137   12.9657 N   0  0  0  0  0  0  0  0  0  0  0  0
   11.8205  -11.3989   12.7501 C   0  0  0  0  0  0  0  0  0  0  0  0
   10.6503  -11.6516   13.4316 N   0  0  0  0  0  0  0  0  0  0  0  0
   10.1415  -10.7532   14.3044 C   0  0  0  0  0  0  0  0  0  0  0  0
   10.7896   -9.5461   14.5221 C   0  0  0  0  0  0  0  0  0  0  0  0
   11.9796   -9.2803   13.8480 C   0  0  0  0  0  0  0  0  0  0  0  0
   12.6353   -8.1346   14.0354 N   0  0  0  0  0  0  0  0  0  0  0  0
   10.0645   -8.8404   15.4280 N   0  0  0  0  0  0  0  0  0  0  0  0
    8.9773   -9.5730   15.7626 C   0  0  0  0  0  0  0  0  0  0  0  0
    9.0062  -10.7582   15.0698 N   0  0  0  0  0  0  0  0  0  0  0  0
  2  1  1  6  0  0  0
  2  3  1  0  0  0  0
  2  5  1  0  0  0  0
  3  4  1  0  0  0  0
  3 17  1  0  0  0  0
  5  6  1  0  0  0  0
  7  6  1  1  0  0  0
  7  8  1  0  0  0  0
  7  9  1  0  0  0  0
 10  9  1  1  0  0  0
 10 11  1  0  0  0  0
 10 12  1  0  0  0  0
 11 16  1  0  0  0  0
 12 13  1  6  0  0  0
 12 14  1  0  0  0  0
 14 15  1  6  0  0  0
 14 16  1  0  0  0  0
 16 27  1  1  0  0  0
 18 19  2  0  0  0  0
 18 23  1  0  0  0  0
 19 20  1  0  0  0  0
 20 21  2  0  0  0  0
 21 22  1  0  0  0  0
 21 27  1  0  0  0  0
 22 23  2  0  0  0  0
 22 25  1  0  0  0  0
 23 24  1  0  0  0  0
 25 26  2  0  0  0  0
 26 27  1  0  0  0  0
M  END
>  <CHROM.1>
-12.63572449,-165.88487558,-164.60485623,-83.21919673,-68.28323568,-39.79690549
-160.84604946,9.04828536,-10.66614305,16.56784477,-2.65499562,-0.55263587
-2.16325757

>  <Name>
ligand

>  <RI>
0

>  <Rbt.Current_Directory>
/home/itssahil/PROJECTS/Mol_Feturizer/New_Systems/rnas/3GX5

>  <Rbt.Executable>
rbdock ($Id: //depot/dev/client3/rdock/2013.1/src/exe/rbdock.cxx#4 $)

>  <Rbt.Library>
libRbt.so (2013.1, Build901 2013/11/27)

>  <Rbt.Parameter_File>
/export/apps/rDock/src/rDock_2013.1_src/data/scripts/dock_solv.prm

>  <Rbt.Receptor>
prm/blind_docking_40.prm

>  <SCORE>
-13.7735

>  <SCORE.INTER>
-12.3308

>  <SCORE.INTER.CONST>
1

>  <SCORE.INTER.POLAR>
0

>  <SCORE.INTER.ROT>
7

>  <SCORE.INTER.SOLV>
10.3729

>  <SCORE.INTER.VDW>
-19.9448

>  <SCORE.INTER.norm>
-0.456696

>  <SCORE.INTRA>
-1.44273

>  <SCORE.INTRA.DIHEDRAL>
2.49233

>  <SCORE.INTRA.DIHEDRAL.0>
4.28829

>  <SCORE.INTRA.POLAR>
0

>  <SCORE.INTRA.POLAR.0>
0

>  <SCORE.INTRA.REPUL>
0

>  <SCORE.INTRA.REPUL.0>
0

>  <SCORE.INTRA.SOLV>
-0.898606

>  <SCORE.INTRA.SOLV.lig_0>
-48.6018

>  <SCORE.INTRA.VDW>
-2.23959

>  <SCORE.INTRA.VDW.0>
-2.1506

>  <SCORE.INTRA.norm>
-0.0534344

>  <SCORE.RESTR>
0

>  <SCORE.RESTR.CAVITY>
0

>  <SCORE.RESTR.norm>
0

>  <SCORE.SYSTEM>
0

>  <SCORE.SYSTEM.CONST>
0

>  <SCORE.SYSTEM.DIHEDRAL>
0

>  <SCORE.SYSTEM.SOLV>
0

>  <SCORE.SYSTEM.norm>
0

>  <SCORE.heavy>
27

>  <SCORE.norm>
-0.51013

>  <RMSD>
11.246

$$$$
ligand
 OpenBabel11021811483D
libRbt.so/2013.1/901 2013/11/27
 27 29  0  0  0  0  0  0  0  0999 V2000
   10.1365   -8.6713   22.3842 N   0  0  0  0  0  0  0  0  0  0  0  0
    9.6936   -8.7889   20.9936 C   0  0  2  0  0  0  0  0  0  0  0  0
    8.3700   -9.5268   20.7783 C   0  0  0  0  0  0  0  0  0  0  0  0
    7.4197   -8.9108   20.2974 O   0  0  0  0  0  0  0  0  0  0  0  0
   10.7862   -9.3880   20.1241 C   0  0  0  0  0  0  0  0  0  0  0  0
   12.0380   -8.5275   20.1281 C   0  0  0  0  0  0  0  0  0  0  0  0
   13.3482   -9.3052   19.1670 S   0  0  2  0  0  0  0  0  0  0  0  0
   14.6566   -8.0782   19.3711 C   0  0  0  0  0  0  0  0  0  0  0  0
   12.8124   -8.8980   17.4890 C   0  0  0  0  0  0  0  0  0  0  0  0
   12.1654  -10.0973   16.8212 C   0  0  1  0  0  0  0  0  0  0  0  0
   10.7959  -10.1677   17.1460 O   0  0  0  0  0  0  0  0  0  0  0  0
   12.2088  -10.0206   15.3077 C   0  0  1  0  0  0  0  0  0  0  0  0
   13.3598  -10.6930   14.8626 O   0  0  0  0  0  0  0  0  0  0  0  0
   10.9516  -10.7501   14.8794 C   0  0  1  0  0  0  0  0  0  0  0  0
   11.3303  -12.0548   14.5020 O   0  0  0  0  0  0  0  0  0  0  0  0
   10.0473  -10.7843   16.1133 C   0  0  2  0  0  0  0  0  0  0  0  0
    8.2086  -10.7147   21.0709 O   0  0  0  0  0  0  0  0  0  0  0  0
    8.1203   -5.9165   16.2048 N   0  0  0  0  0  0  0  0  0  0  0  0
    9.4053   -6.3196   16.4756 C   0  0  0  0  0  0  0  0  0  0  0  0
    9.7213   -7.6583   16.3993 N   0  0  0  0  0  0  0  0  0  0  0  0
    8.7905   -8.5782   16.0603 C   0  0  0  0  0  0  0  0  0  0  0  0
    7.4921   -8.1847   15.7704 C   0  0  0  0  0  0  0  0  0  0  0  0
    7.1545   -6.8355   15.8533 C   0  0  0  0  0  0  0  0  0  0  0  0
    5.9159   -6.4188   15.5889 N   0  0  0  0  0  0  0  0  0  0  0  0
    6.7791   -9.2970   15.4563 N   0  0  0  0  0  0  0  0  0  0  0  0
    7.6070  -10.3647   15.5284 C   0  0  0  0  0  0  0  0  0  0  0  0
    8.8590   -9.9357   15.8945 N   0  0  0  0  0  0  0  0  0  0  0  0
  2  1  1  1  0  0  0
  2  3  1  0  0  0  0
  2  5  1  0  0  0  0
  3  4  1  0  0  0  0
  3 17  1  0  0  0  0
  5  6  1  0  0  0  0
  7  6  1  1  0  0  0
  7  8  1  0  0  0  0
  7  9  1  0  0  0  0
 10  9  1  1  0  0  0
 10 11  1  0  0  0  0
 10 12  1  0  0  0  0
 11 16  1  0  0  0  0
 12 13  1  6  0  0  0
 12 14  1  0  0  0  0
 14 15  1  1  0  0  0
 14 16  1  0  0  0  0
 16 27  1  6  0  0  0
 18 19  2  0  0  0  0
 18 23  1  0  0  0  0
 19 20  1  0  0  0  0
 20 21  2  0  0  0  0
 21 22  1  0  0  0  0
 21 27  1  0  0  0  0
 22 23  2  0  0  0  0
 22 25  1  0  0  0  0
 23 24  1  0  0  0  0
 25 26  2  0  0  0  0
 26 27  1  0  0  0  0
M  END
>  <CHROM.1>
116.77525128,-60.41149108,176.78734346,-179.69389933,-102.63155139,85.87941641
31.21848947,10.15190557,-9.12551129,17.55022234,0.56551758,-0.31474007,1.43565424

>  <Name>
ligand

>  <RI>
0

>  <Rbt.Current_Directory>
/home/itssahil/PROJECTS/Mol_Feturizer/New_Systems/rnas/3GX5

>  <Rbt.Executable>
rbdock ($Id: //depot/dev/client3/rdock/2013.1/src/exe/rbdock.cxx#4 $)

>  <Rbt.Library>
libRbt.so (2013.1, Build901 2013/11/27)

>  <Rbt.Parameter_File>
/export/apps/rDock/src/rDock_2013.1_src/data/scripts/dock_solv.prm

>  <Rbt.Receptor>
prm/blind_docking_80.prm

>  <SCORE>
-10.8046

>  <SCORE.INTER>
-11.048

>  <SCORE.INTER.CONST>
1

>  <SCORE.INTER.POLAR>
0

>  <SCORE.INTER.ROT>
7

>  <SCORE.INTER.SOLV>
8.02739

>  <SCORE.INTER.VDW>
-18.3078

>  <SCORE.INTER.norm>
-0.409187

>  <SCORE.INTRA>
0.243397

>  <SCORE.INTRA.DIHEDRAL>
4.15401

>  <SCORE.INTRA.DIHEDRAL.0>
4.28829

>  <SCORE.INTRA.POLAR>
0

>  <SCORE.INTRA.POLAR.0>
0

>  <SCORE.INTRA.REPUL>
0

>  <SCORE.INTRA.REPUL.0>
0

>  <SCORE.INTRA.SOLV>
-0.453927

>  <SCORE.INTRA.SOLV.lig_0>
-48.6018

>  <SCORE.INTRA.VDW>
-1.60664

>  <SCORE.INTRA.VDW.0>
-2.1506

>  <SCORE.INTRA.norm>
0.0090147

>  <SCORE.RESTR>
0

>  <SCORE.RESTR.CAVITY>
0

>  <SCORE.RESTR.norm>
0

>  <SCORE.SYSTEM>
0

>  <SCORE.SYSTEM.CONST>
0

>  <SCORE.SYSTEM.DIHEDRAL>
0

>  <SCORE.SYSTEM.SOLV>
0

>  <SCORE.SYSTEM.norm>
0

>  <SCORE.heavy>
27

>  <SCORE.norm>
-0.400172

>  <RMSD>
11.247

$$$$
ligand
 OpenBabel11021811483D
libRbt.so/2013.1/901 2013/11/27
 27 29  0  0  0  0  0  0  0  0999 V2000
    9.5934   -8.3804   23.2664 N   0  0  0  0  0  0  0  0  0  0  0  0
   10.3113   -9.4548   22.5779 C   0  0  2  0  0  0  0  0  0  0  0  0
   11.8201   -9.5125   22.8287 C   0  0  0  0  0  0  0  0  0  0  0  0
   12.4660  -10.4413   22.3450 O   0  0  0  0  0  0  0  0  0  0  0  0
   10.0183   -9.4357   21.0871 C   0  0  0  0  0  0  0  0  0  0  0  0
    8.5338   -9.5949   20.8074 C   0  0  0  0  0  0  0  0  0  0  0  0
    8.2102   -9.5398   19.0361 S   0  0  2  0  0  0  0  0  0  0  0  0
    6.4084   -9.6529   19.0434 C   0  0  0  0  0  0  0  0  0  0  0  0
    8.6169  -11.2396   18.5737 C   0  0  0  0  0  0  0  0  0  0  0  0
    8.1962  -11.5273   17.1443 C   0  0  1  0  0  0  0  0  0  0  0  0
    8.8653  -10.6702   16.2477 O   0  0  0  0  0  0  0  0  0  0  0  0
    8.5599  -12.9292   16.6962 C   0  0  1  0  0  0  0  0  0  0  0  0
    7.4608  -13.7709   16.9380 O   0  0  0  0  0  0  0  0  0  0  0  0
    8.8100  -12.7728   15.2099 C   0  0  1  0  0  0  0  0  0  0  0  0
    7.6483  -13.2078   14.5399 O   0  0  0  0  0  0  0  0  0  0  0  0
    9.0401  -11.2776   14.9798 C   0  0  2  0  0  0  0  0  0  0  0  0
   12.4212   -8.6703   23.5011 O   0  0  0  0  0  0  0  0  0  0  0  0
   12.2476   -9.1836   11.4097 N   0  0  0  0  0  0  0  0  0  0  0  0
   10.8740   -9.1723   11.4187 C   0  0  0  0  0  0  0  0  0  0  0  0
   10.2022   -9.7845   12.4538 N   0  0  0  0  0  0  0  0  0  0  0  0
   10.8712  -10.3918   13.4594 C   0  0  0  0  0  0  0  0  0  0  0  0
   12.2585  -10.3994   13.4713 C   0  0  0  0  0  0  0  0  0  0  0  0
   12.9522   -9.7933   12.4260 C   0  0  0  0  0  0  0  0  0  0  0  0
   14.2851   -9.7854   12.3983 N   0  0  0  0  0  0  0  0  0  0  0  0
   12.6627  -11.0614   14.5861 N   0  0  0  0  0  0  0  0  0  0  0  0
   11.5619  -11.4482   15.2710 C   0  0  0  0  0  0  0  0  0  0  0  0
   10.4434  -11.0349   14.5900 N   0  0  0  0  0  0  0  0  0  0  0  0
  2  1  1  1  0  0  0
  2  3  1  0  0  0  0
  2  5  1  0  0  0  0
  3  4  1  0  0  0  0
  3 17  1  0  0  0  0
  5  6  1  0  0  0  0
  7  6  1  1  0  0  0
  7  8  1  0  0  0  0
  7  9  1  0  0  0  0
 10  9  1  1  0  0  0
 10 11  1  0  0  0  0
 10 12  1  0  0  0  0
 11 16  1  0  0  0  0
 12 13  1  6  0  0  0
 12 14  1  0  0  0  0
 14 15  1  6  0  0  0
 14 16  1  0  0  0  0
 16 27  1  1  0  0  0
 18 19  2  0  0  0  0
 18 23  1  0  0  0  0
 19 20  1  0  0  0  0
 20 21  2  0  0  0  0
 21 22  1  0  0  0  0
 21 27  1  0  0  0  0
 22 23  2  0  0  0  0
 22 25  1  0  0  0  0
 23 24  1  0  0  0  0
 25 26  2  0  0  0  0
 26 27  1  0  0  0  0
M  END
>  <CHROM.1>
175.56840097,-59.00274396,179.00117994,-176.85980593,170.19011189,60.69678839
-121.91478097,10.05338335,-10.49561193,17.11019496,-1.70430558,-0.43644406
-1.74440825

>  <Name>
ligand

>  <RI>
0

>  <Rbt.Current_Directory>
/home/itssahil/PROJECTS/Mol_Feturizer/New_Systems/rnas/3GX5

>  <Rbt.Executable>
rbdock ($Id: //depot/dev/client3/rdock/2013.1/src/exe/rbdock.cxx#4 $)

>  <Rbt.Library>
libRbt.so (2013.1, Build901 2013/11/27)

>  <Rbt.Parameter_File>
/export/apps/rDock/src/rDock_2013.1_src/data/scripts/dock_solv.prm

>  <Rbt.Receptor>
prm/blind_docking_40.prm

>  <SCORE>
-15.1144

>  <SCORE.INTER>
-14.8129

>  <SCORE.INTER.CONST>
1

>  <SCORE.INTER.POLAR>
0

>  <SCORE.INTER.ROT>
7

>  <SCORE.INTER.SOLV>
10.357

>  <SCORE.INTER.VDW>
-21.5943

>  <SCORE.INTER.norm>
-0.548626

>  <SCORE.INTRA>
-0.303161

>  <SCORE.INTRA.DIHEDRAL>
-0.406156

>  <SCORE.INTRA.DIHEDRAL.0>
4.28829

>  <SCORE.INTRA.POLAR>
0

>  <SCORE.INTRA.POLAR.0>
0

>  <SCORE.INTRA.REPUL>
0

>  <SCORE.INTRA.REPUL.0>
0

>  <SCORE.INTRA.SOLV>
-0.615972

>  <SCORE.INTRA.SOLV.lig_0>
-48.6018

>  <SCORE.INTRA.VDW>
0.207903

>  <SCORE.INTRA.VDW.0>
-2.1506

>  <SCORE.INTRA.norm>
-0.0112282

>  <SCORE.RESTR>
0.00168388

>  <SCORE.RESTR.CAVITY>
0.00168388

>  <SCORE.RESTR.norm>
6.23659e-05

>  <SCORE.SYSTEM>
0

>  <SCORE.SYSTEM.CONST>
0

>  <SCORE.SYSTEM.DIHEDRAL>
0

>  <SCORE.SYSTEM.SOLV>
0

>  <SCORE.SYSTEM.norm>
0

>  <SCORE.heavy>
27

>  <SCORE.norm>
-0.559792

>  <RMSD>
11.254

$$$$
ligand
 OpenBabel11021811483D
libRbt.so/2013.1/901 2013/11/27
 27 29  0  0  0  0  0  0  0  0999 V2000
    8.6754   -9.3065   21.3410 N   0  0  0  0  0  0  0  0  0  0  0  0
    8.6246   -9.2342   19.8795 C   0  0  2  0  0  0  0  0  0  0  0  0
    7.3794   -9.8402   19.2274 C   0  0  0  0  0  0  0  0  0  0  0  0
    7.4685  -10.9451   18.6935 O   0  0  0  0  0  0  0  0  0  0  0  0
    9.8862   -9.8142   19.2624 C   0  0  0  0  0  0  0  0  0  0  0  0
   11.0877   -8.9154   19.4986 C   0  0  0  0  0  0  0  0  0  0  0  0
   12.5364   -9.5492   18.6356 S   0  0  2  0  0  0  0  0  0  0  0  0
   13.7441   -8.2830   19.0796 C   0  0  0  0  0  0  0  0  0  0  0  0
   12.1650   -9.0312   16.9437 C   0  0  0  0  0  0  0  0  0  0  0  0
   11.6524  -10.1984   16.1203 C   0  0  1  0  0  0  0  0  0  0  0  0
   10.3774  -10.5993   16.5672 O   0  0  0  0  0  0  0  0  0  0  0  0
   11.4656   -9.8473   14.6573 C   0  0  1  0  0  0  0  0  0  0  0  0
   12.6423  -10.1846   13.9669 O   0  0  0  0  0  0  0  0  0  0  0  0
   10.3097  -10.7272   14.2263 C   0  0  1  0  0  0  0  0  0  0  0  0
   10.8559  -11.8409   13.5561 O   0  0  0  0  0  0  0  0  0  0  0  0
    9.6107  -11.1608   15.5166 C   0  0  2  0  0  0  0  0  0  0  0  0
    6.2865   -9.2676   19.2070 O   0  0  0  0  0  0  0  0  0  0  0  0
    6.8808   -6.6943   15.3884 N   0  0  0  0  0  0  0  0  0  0  0  0
    8.2355   -6.8592   15.2308 C   0  0  0  0  0  0  0  0  0  0  0  0
    8.7722   -8.1260   15.2996 N   0  0  0  0  0  0  0  0  0  0  0  0
    7.9891   -9.2064   15.5161 C   0  0  0  0  0  0  0  0  0  0  0  0
    6.6177   -9.0573   15.6633 C   0  0  0  0  0  0  0  0  0  0  0  0
    6.0611   -7.7813   15.6065 C   0  0  0  0  0  0  0  0  0  0  0  0
    4.7485   -7.5963   15.7500 N   0  0  0  0  0  0  0  0  0  0  0  0
    6.0822  -10.2900   15.8578 N   0  0  0  0  0  0  0  0  0  0  0  0
    7.0847  -11.1978   15.8180 C   0  0  0  0  0  0  0  0  0  0  0  0
    8.2720  -10.5435   15.5999 N   0  0  0  0  0  0  0  0  0  0  0  0
  2  1  1  1  0  0  0
  2  3  1  0  0  0  0
  2  5  1  0  0  0  0
  3  4  1  0  0  0  0
  3 17  1  0  0  0  0
  5  6  1  0  0  0  0
  7  6  1  1  0  0  0
  7  8  1  0  0  0  0
  7  9  1  0  0  0  0
 10  9  1  1  0  0  0
 10 11  1  0  0  0  0
 10 12  1  0  0  0  0
 11 16  1  0  0  0  0
 12 13  1  6  0  0  0
 12 14  1  0  0  0  0
 14 15  1  1  0  0  0
 14 16  1  0  0  0  0
 16 27  1  6  0  0  0
 18 19  2  0  0  0  0
 18 23  1  0  0  0  0
 19 20  1  0  0  0  0
 20 21  2  0  0  0  0
 21 22  1  0  0  0  0
 21 27  1  0  0  0  0
 22 23  2  0  0  0  0
 22 25  1  0  0  0  0
 23 24  1  0  0  0  0
 25 26  2  0  0  0  0
 26 27  1  0  0  0  0
M  END
>  <CHROM.1>
-102.97625589,-70.84359054,-174.98289963,179.07155683,-102.18514963,68.66264111
59.05068715,9.31739984,-9.51818135,16.85564274,0.13231754,-0.16600719,1.44519340

>  <Name>
ligand

>  <RI>
0

>  <Rbt.Current_Directory>
/home/itssahil/PROJECTS/Mol_Feturizer/New_Systems/rnas/3GX5

>  <Rbt.Executable>
rbdock ($Id: //depot/dev/client3/rdock/2013.1/src/exe/rbdock.cxx#4 $)

>  <Rbt.Library>
libRbt.so (2013.1, Build901 2013/11/27)

>  <Rbt.Parameter_File>
/export/apps/rDock/src/rDock_2013.1_src/data/scripts/dock_solv.prm

>  <Rbt.Receptor>
prm/blind_docking_60.prm

>  <SCORE>
-11.1771

>  <SCORE.INTER>
-9.92682

>  <SCORE.INTER.CONST>
1

>  <SCORE.INTER.POLAR>
0

>  <SCORE.INTER.ROT>
7

>  <SCORE.INTER.SOLV>
9.71169

>  <SCORE.INTER.VDW>
-18.1218

>  <SCORE.INTER.norm>
-0.36766

>  <SCORE.INTRA>
-1.25028

>  <SCORE.INTRA.DIHEDRAL>
2.70167

>  <SCORE.INTRA.DIHEDRAL.0>
4.28829

>  <SCORE.INTRA.POLAR>
0

>  <SCORE.INTRA.POLAR.0>
0

>  <SCORE.INTRA.REPUL>
0

>  <SCORE.INTRA.REPUL.0>
0

>  <SCORE.INTRA.SOLV>
-0.460712

>  <SCORE.INTRA.SOLV.lig_0>
-48.6018

>  <SCORE.INTRA.VDW>
-2.37076

>  <SCORE.INTRA.VDW.0>
-2.1506

>  <SCORE.INTRA.norm>
-0.0463067

>  <SCORE.RESTR>
0

>  <SCORE.RESTR.CAVITY>
0

>  <SCORE.RESTR.norm>
0

>  <SCORE.SYSTEM>
0

>  <SCORE.SYSTEM.CONST>
0

>  <SCORE.SYSTEM.DIHEDRAL>
0

>  <SCORE.SYSTEM.SOLV>
0

>  <SCORE.SYSTEM.norm>
0

>  <SCORE.heavy>
27

>  <SCORE.norm>
-0.413967

>  <RMSD>
11.312

$$$$
ligand
 OpenBabel11021811483D
libRbt.so/2013.1/901 2013/11/27
 27 29  0  0  0  0  0  0  0  0999 V2000
   14.9910   -6.6157   14.4698 N   0  0  0  0  0  0  0  0  0  0  0  0
   13.7372   -7.2943   14.8036 C   0  0  2  0  0  0  0  0  0  0  0  0
   13.2930   -7.1880   16.2645 C   0  0  0  0  0  0  0  0  0  0  0  0
   12.1002   -7.3257   16.5326 O   0  0  0  0  0  0  0  0  0  0  0  0
   13.7710   -8.7472   14.3603 C   0  0  0  0  0  0  0  0  0  0  0  0
   12.3995   -9.3930   14.4580 C   0  0  0  0  0  0  0  0  0  0  0  0
   12.4275  -11.0549   13.7634 S   0  0  2  0  0  0  0  0  0  0  0  0
   12.3977  -10.6587   12.0023 C   0  0  0  0  0  0  0  0  0  0  0  0
   10.7003  -11.5373   13.9929 C   0  0  0  0  0  0  0  0  0  0  0  0
   10.4647  -12.0532   15.4006 C   0  0  1  0  0  0  0  0  0  0  0  0
   10.7447  -11.0503   16.3503 O   0  0  0  0  0  0  0  0  0  0  0  0
    9.0203  -12.4406   15.6496 C   0  0  1  0  0  0  0  0  0  0  0  0
    8.8761  -13.8119   15.3779 O   0  0  0  0  0  0  0  0  0  0  0  0
    8.8255  -12.1538   17.1247 C   0  0  1  0  0  0  0  0  0  0  0  0
    8.9353  -13.3812   17.8098 O   0  0  0  0  0  0  0  0  0  0  0  0
    9.9622  -11.2090   17.5206 C   0  0  2  0  0  0  0  0  0  0  0  0
   14.0780   -6.9640   17.1899 O   0  0  0  0  0  0  0  0  0  0  0  0
    7.6106   -8.2499   21.1443 N   0  0  0  0  0  0  0  0  0  0  0  0
    8.0052   -9.5612   21.2531 C   0  0  0  0  0  0  0  0  0  0  0  0
    8.6124  -10.1731   20.1786 N   0  0  0  0  0  0  0  0  0  0  0  0
    8.8281   -9.5048   19.0234 C   0  0  0  0  0  0  0  0  0  0  0  0
    8.4478   -8.1761   18.9033 C   0  0  0  0  0  0  0  0  0  0  0  0
    7.8231   -7.5463   19.9778 C   0  0  0  0  0  0  0  0  0  0  0  0
    7.4371   -6.2726   19.8989 N   0  0  0  0  0  0  0  0  0  0  0  0
    8.7872   -7.7557   17.6574 N   0  0  0  0  0  0  0  0  0  0  0  0
    9.3819   -8.7848   17.0110 C   0  0  0  0  0  0  0  0  0  0  0  0
    9.4216   -9.8742   17.8461 N   0  0  0  0  0  0  0  0  0  0  0  0
  2  1  1  1  0  0  0
  2  3  1  0  0  0  0
  2  5  1  0  0  0  0
  3  4  1  0  0  0  0
  3 17  1  0  0  0  0
  5  6  1  0  0  0  0
  7  6  1  1  0  0  0
  7  8  1  0  0  0  0
  7  9  1  0  0  0  0
 10  9  1  6  0  0  0
 10 11  1  0  0  0  0
 10 12  1  0  0  0  0
 11 16  1  0  0  0  0
 12 13  1  1  0  0  0
 12 14  1  0  0  0  0
 14 15  1  1  0  0  0
 14 16  1  0  0  0  0
 16 27  1  6  0  0  0
 18 19  2  0  0  0  0
 18 23  1  0  0  0  0
 19 20  1  0  0  0  0
 20 21  2  0  0  0  0
 21 22  1  0  0  0  0
 21 27  1  0  0  0  0
 22 23  2  0  0  0  0
 22 25  1  0  0  0  0
 23 24  1  0  0  0  0
 25 26  2  0  0  0  0
 26 27  1  0  0  0  0
M  END
>  <CHROM.1>
156.26425866,-169.28008143,173.93103012,-77.30888506,-83.02799849,61.30706275
-166.61267580,10.55711353,-9.69497076,16.67700616,-0.47801666,0.73032169
0.59928046

>  <Name>
ligand

>  <RI>
0

>  <Rbt.Current_Directory>
/home/itssahil/PROJECTS/Mol_Feturizer/New_Systems/rnas/3GX5

>  <Rbt.Executable>
rbdock ($Id: //depot/dev/client3/rdock/2013.1/src/exe/rbdock.cxx#4 $)

>  <Rbt.Library>
libRbt.so (2013.1, Build901 2013/11/27)

>  <Rbt.Parameter_File>
/export/apps/rDock/src/rDock_2013.1_src/data/scripts/dock_solv.prm

>  <Rbt.Receptor>
prm/blind_docking_80.prm

>  <SCORE>
-12.1183

>  <SCORE.INTER>
-11.3502

>  <SCORE.INTER.CONST>
1

>  <SCORE.INTER.POLAR>
0

>  <SCORE.INTER.ROT>
7

>  <SCORE.INTER.SOLV>
12.4141

>  <SCORE.INTER.VDW>
-19.9715

>  <SCORE.INTER.norm>
-0.420377

>  <SCORE.INTRA>
-0.768135

>  <SCORE.INTRA.DIHEDRAL>
0.387711

>  <SCORE.INTRA.DIHEDRAL.0>
4.28829

>  <SCORE.INTRA.POLAR>
0

>  <SCORE.INTRA.POLAR.0>
0

>  <SCORE.INTRA.REPUL>
0

>  <SCORE.INTRA.REPUL.0>
0

>  <SCORE.INTRA.SOLV>
-1.24063

>  <SCORE.INTRA.SOLV.lig_0>
-48.6018

>  <SCORE.INTRA.VDW>
-0.341677

>  <SCORE.INTRA.VDW.0>
-2.1506

>  <SCORE.INTRA.norm>
-0.0284495

>  <SCORE.RESTR>
0

>  <SCORE.RESTR.CAVITY>
0

>  <SCORE.RESTR.norm>
0

>  <SCORE.SYSTEM>
0

>  <SCORE.SYSTEM.CONST>
0

>  <SCORE.SYSTEM.DIHEDRAL>
0

>  <SCORE.SYSTEM.SOLV>
0

>  <SCORE.SYSTEM.norm>
0

>  <SCORE.heavy>
27

>  <SCORE.norm>
-0.448826

>  <RMSD>
11.333

$$$$
ligand
 OpenBabel11021811483D
libRbt.so/2013.1/901 2013/11/27
 27 29  0  0  0  0  0  0  0  0999 V2000
   10.6543   -9.5843   20.1672 N   0  0  0  0  0  0  0  0  0  0  0  0
    9.7477   -9.2954   21.2800 C   0  0  2  0  0  0  0  0  0  0  0  0
   10.2581   -9.6820   22.6702 C   0  0  0  0  0  0  0  0  0  0  0  0
    9.8584   -9.0477   23.6457 O   0  0  0  0  0  0  0  0  0  0  0  0
    8.3733   -9.8936   21.0306 C   0  0  0  0  0  0  0  0  0  0  0  0
    7.7025   -9.2667   19.8205 C   0  0  0  0  0  0  0  0  0  0  0  0
    8.4472   -9.8709   18.2955 S   0  0  2  0  0  0  0  0  0  0  0  0
    8.6076   -8.3181   17.3888 C   0  0  0  0  0  0  0  0  0  0  0  0
    6.9931  -10.5548   17.4669 C   0  0  0  0  0  0  0  0  0  0  0  0
    7.3998  -11.5163   16.3655 C   0  0  1  0  0  0  0  0  0  0  0  0
    8.3323  -10.9123   15.4984 O   0  0  0  0  0  0  0  0  0  0  0  0
    8.0971  -12.7541   16.8948 C   0  0  1  0  0  0  0  0  0  0  0  0
    7.1324  -13.7575   17.0886 O   0  0  0  0  0  0  0  0  0  0  0  0
    9.0540  -13.1260   15.7803 C   0  0  1  0  0  0  0  0  0  0  0  0
    8.4573  -14.1705   15.0448 O   0  0  0  0  0  0  0  0  0  0  0  0
    9.1993  -11.8705   14.9177 C   0  0  2  0  0  0  0  0  0  0  0  0
   11.0599  -10.6009   22.8590 O   0  0  0  0  0  0  0  0  0  0  0  0
   13.6289  -10.6649   12.3991 N   0  0  0  0  0  0  0  0  0  0  0  0
   12.4693  -11.1753   11.8680 C   0  0  0  0  0  0  0  0  0  0  0  0
   11.4022  -11.4304   12.7011 N   0  0  0  0  0  0  0  0  0  0  0  0
   11.4769  -11.1846   14.0283 C   0  0  0  0  0  0  0  0  0  0  0  0
   12.6364  -10.6563   14.5770 C   0  0  0  0  0  0  0  0  0  0  0  0
   13.7278  -10.4024   13.7490 C   0  0  0  0  0  0  0  0  0  0  0  0
   14.8616   -9.9011   14.2397 N   0  0  0  0  0  0  0  0  0  0  0  0
   12.4348  -10.5034   15.9112 N   0  0  0  0  0  0  0  0  0  0  0  0
   11.1759  -10.9078   16.1980 C   0  0  0  0  0  0  0  0  0  0  0  0
   10.5663  -11.3263   15.0409 N   0  0  0  0  0  0  0  0  0  0  0  0
  2  1  1  6  0  0  0
  2  3  1  0  0  0  0
  2  5  1  0  0  0  0
  3  4  1  0  0  0  0
  3 17  1  0  0  0  0
  5  6  1  0  0  0  0
  7  6  1  1  0  0  0
  7  8  1  0  0  0  0
  7  9  1  0  0  0  0
 10  9  1  1  0  0  0
 10 11  1  0  0  0  0
 10 12  1  0  0  0  0
 11 16  1  0  0  0  0
 12 13  1  6  0  0  0
 12 14  1  0  0  0  0
 14 15  1  6  0  0  0
 14 16  1  0  0  0  0
 16 27  1  1  0  0  0
 18 19  2  0  0  0  0
 18 23  1  0  0  0  0
 19 20  1  0  0  0  0
 20 21  2  0  0  0  0
 21 22  1  0  0  0  0
 21 27  1  0  0  0  0
 22 23  2  0  0  0  0
 22 25  1  0  0  0  0
 23 24  1  0  0  0  0
 25 26  2  0  0  0  0
 26 27  1  0  0  0  0
M  END
>  <CHROM.1>
151.90464294,-63.89876481,74.47309065,-135.27445739,-161.81017404,-52.02196259
-127.69207448,9.98895459,-10.79356628,17.07852774,-1.93390247,-0.38824120
-1.90237830

>  <Name>
ligand

>  <RI>
0

>  <Rbt.Current_Directory>
/home/itssahil/PROJECTS/Mol_Feturizer/New_Systems/rnas/3GX5

>  <Rbt.Executable>
rbdock ($Id: //depot/dev/client3/rdock/2013.1/src/exe/rbdock.cxx#4 $)

>  <Rbt.Library>
libRbt.so (2013.1, Build901 2013/11/27)

>  <Rbt.Parameter_File>
/export/apps/rDock/src/rDock_2013.1_src/data/scripts/dock_solv.prm

>  <Rbt.Receptor>
prm/blind_docking_40.prm

>  <SCORE>
-9.03596

>  <SCORE.INTER>
-11.8535

>  <SCORE.INTER.CONST>
1

>  <SCORE.INTER.POLAR>
0

>  <SCORE.INTER.ROT>
7

>  <SCORE.INTER.SOLV>
11.5403

>  <SCORE.INTER.VDW>
-20.0158

>  <SCORE.INTER.norm>
-0.439019

>  <SCORE.INTRA>
2.81756

>  <SCORE.INTRA.DIHEDRAL>
6.18882

>  <SCORE.INTRA.DIHEDRAL.0>
4.28829

>  <SCORE.INTRA.POLAR>
0

>  <SCORE.INTRA.POLAR.0>
0

>  <SCORE.INTRA.REPUL>
0

>  <SCORE.INTRA.REPUL.0>
0

>  <SCORE.INTRA.SOLV>
1.67923

>  <SCORE.INTRA.SOLV.lig_0>
-48.6018

>  <SCORE.INTRA.VDW>
-1.11646

>  <SCORE.INTRA.VDW.0>
-2.1506

>  <SCORE.INTRA.norm>
0.104354

>  <SCORE.RESTR>
0

>  <SCORE.RESTR.CAVITY>
0

>  <SCORE.RESTR.norm>
0

>  <SCORE.SYSTEM>
0

>  <SCORE.SYSTEM.CONST>
0

>  <SCORE.SYSTEM.DIHEDRAL>
0

>  <SCORE.SYSTEM.SOLV>
0

>  <SCORE.SYSTEM.norm>
0

>  <SCORE.heavy>
27

>  <SCORE.norm>
-0.334665

>  <RMSD>
11.388

$$$$
ligand
 OpenBabel11021811483D
libRbt.so/2013.1/901 2013/11/27
 27 29  0  0  0  0  0  0  0  0999 V2000
   14.4792   -7.2859   14.7151 N   0  0  0  0  0  0  0  0  0  0  0  0
   13.0451   -7.1932   14.9954 C   0  0  2  0  0  0  0  0  0  0  0  0
   12.5971   -7.7395   16.3532 C   0  0  0  0  0  0  0  0  0  0  0  0
   11.3996   -7.7178   16.6346 O   0  0  0  0  0  0  0  0  0  0  0  0
   12.2308   -7.8166   13.8742 C   0  0  0  0  0  0  0  0  0  0  0  0
   12.7417   -9.2016   13.5162 C   0  0  0  0  0  0  0  0  0  0  0  0
   12.4017  -10.3688   14.8456 S   0  0  2  0  0  0  0  0  0  0  0  0
   13.1784  -11.8506   14.1673 C   0  0  0  0  0  0  0  0  0  0  0  0
   10.6682  -10.7562   14.5087 C   0  0  0  0  0  0  0  0  0  0  0  0
   10.1627  -11.8367   15.4469 C   0  0  1  0  0  0  0  0  0  0  0  0
   10.4573  -11.5094   16.7856 O   0  0  0  0  0  0  0  0  0  0  0  0
    8.6557  -11.9952   15.4017 C   0  0  1  0  0  0  0  0  0  0  0  0
    8.3431  -12.9949   14.4647 O   0  0  0  0  0  0  0  0  0  0  0  0
    8.3032  -12.4368   16.8077 C   0  0  1  0  0  0  0  0  0  0  0  0
    8.1277  -13.8355   16.7777 O   0  0  0  0  0  0  0  0  0  0  0  0
    9.5043  -12.0602   17.6776 C   0  0  2  0  0  0  0  0  0  0  0  0
   13.3848   -8.1978   17.1852 O   0  0  0  0  0  0  0  0  0  0  0  0
   11.2225   -8.0298   20.5450 N   0  0  0  0  0  0  0  0  0  0  0  0
   11.9516   -8.8432   19.7119 C   0  0  0  0  0  0  0  0  0  0  0  0
   11.3142   -9.8614   19.0378 N   0  0  0  0  0  0  0  0  0  0  0  0
    9.9862  -10.0704   19.1803 C   0  0  0  0  0  0  0  0  0  0  0  0
    9.2342   -9.2487   20.0071 C   0  0  0  0  0  0  0  0  0  0  0  0
    9.8664   -8.2209   20.7038 C   0  0  0  0  0  0  0  0  0  0  0  0
    9.1793   -7.4142   21.5130 N   0  0  0  0  0  0  0  0  0  0  0  0
    7.9452   -9.6732   19.9571 N   0  0  0  0  0  0  0  0  0  0  0  0
    7.8787  -10.7248   19.1084 C   0  0  0  0  0  0  0  0  0  0  0  0
    9.1338  -10.9794   18.6129 N   0  0  0  0  0  0  0  0  0  0  0  0
  2  1  1  6  0  0  0
  2  3  1  0  0  0  0
  2  5  1  0  0  0  0
  3  4  1  0  0  0  0
  3 17  1  0  0  0  0
  5  6  1  0  0  0  0
  7  6  1  6  0  0  0
  7  8  1  0  0  0  0
  7  9  1  0  0  0  0
 10  9  1  6  0  0  0
 10 11  1  0  0  0  0
 10 12  1  0  0  0  0
 11 16  1  0  0  0  0
 12 13  1  6  0  0  0
 12 14  1  0  0  0  0
 14 15  1  6  0  0  0
 14 16  1  0  0  0  0
 16 27  1  1  0  0  0
 18 19  2  0  0  0  0
 18 23  1  0  0  0  0
 19 20  1  0  0  0  0
 20 21  2  0  0  0  0
 21 22  1  0  0  0  0
 21 27  1  0  0  0  0
 22 23  2  0  0  0  0
 22 25  1  0  0  0  0
 23 24  1  0  0  0  0
 25 26  2  0  0  0  0
 26 27  1  0  0  0  0
M  END
>  <CHROM.1>
-178.35560412,49.51817339,69.30025855,-177.42381666,175.20011332,50.77706908
-40.96732649,10.74562445,-9.97922064,16.94818504,-0.64150689,0.75567835,0.97622506

>  <Name>
ligand

>  <RI>
0

>  <Rbt.Current_Directory>
/home/itssahil/PROJECTS/Mol_Feturizer/New_Systems/rnas/3GX5

>  <Rbt.Executable>
rbdock ($Id: //depot/dev/client3/rdock/2013.1/src/exe/rbdock.cxx#4 $)

>  <Rbt.Library>
libRbt.so (2013.1, Build901 2013/11/27)

>  <Rbt.Parameter_File>
/export/apps/rDock/src/rDock_2013.1_src/data/scripts/dock_solv.prm

>  <Rbt.Receptor>
prm/blind_docking_100.prm

>  <SCORE>
-12.631

>  <SCORE.INTER>
-12.0126

>  <SCORE.INTER.CONST>
1

>  <SCORE.INTER.POLAR>
0

>  <SCORE.INTER.ROT>
7

>  <SCORE.INTER.SOLV>
9.52437

>  <SCORE.INTER.VDW>
-19.4499

>  <SCORE.INTER.norm>
-0.444913

>  <SCORE.INTRA>
-0.618359

>  <SCORE.INTRA.DIHEDRAL>
0.591767

>  <SCORE.INTRA.DIHEDRAL.0>
4.28829

>  <SCORE.INTRA.POLAR>
0

>  <SCORE.INTRA.POLAR.0>
0

>  <SCORE.INTRA.REPUL>
0

>  <SCORE.INTRA.REPUL.0>
0

>  <SCORE.INTRA.SOLV>
0.327169

>  <SCORE.INTRA.SOLV.lig_0>
-48.6018

>  <SCORE.INTRA.VDW>
-1.07783

>  <SCORE.INTRA.VDW.0>
-2.1506

>  <SCORE.INTRA.norm>
-0.0229022

>  <SCORE.RESTR>
0

>  <SCORE.RESTR.CAVITY>
0

>  <SCORE.RESTR.norm>
0

>  <SCORE.SYSTEM>
0

>  <SCORE.SYSTEM.CONST>
0

>  <SCORE.SYSTEM.DIHEDRAL>
0

>  <SCORE.SYSTEM.SOLV>
0

>  <SCORE.SYSTEM.norm>
0

>  <SCORE.heavy>
27

>  <SCORE.norm>
-0.467815

>  <RMSD>
11.409

$$$$
ligand
 OpenBabel11021811483D
libRbt.so/2013.1/901 2013/11/27
 27 29  0  0  0  0  0  0  0  0999 V2000
   10.5786   -6.9043   22.8737 N   0  0  0  0  0  0  0  0  0  0  0  0
   11.6101   -7.6367   22.1366 C   0  0  2  0  0  0  0  0  0  0  0  0
   12.2771   -8.7874   22.8941 C   0  0  0  0  0  0  0  0  0  0  0  0
   12.6323   -8.6037   24.0576 O   0  0  0  0  0  0  0  0  0  0  0  0
   12.6570   -6.6872   21.5786 C   0  0  0  0  0  0  0  0  0  0  0  0
   13.6394   -7.4091   20.6724 C   0  0  0  0  0  0  0  0  0  0  0  0
   12.9258   -7.6695   19.0390 S   0  0  2  0  0  0  0  0  0  0  0  0
   11.9463   -9.1520   19.3581 C   0  0  0  0  0  0  0  0  0  0  0  0
   14.3310   -8.4159   18.1805 C   0  0  0  0  0  0  0  0  0  0  0  0
   14.0179   -8.6261   16.7105 C   0  0  1  0  0  0  0  0  0  0  0  0
   12.9047   -9.4765   16.5567 O   0  0  0  0  0  0  0  0  0  0  0  0
   13.6342   -7.3415   16.0027 C   0  0  1  0  0  0  0  0  0  0  0  0
   14.7926   -6.7867   15.4324 O   0  0  0  0  0  0  0  0  0  0  0  0
   12.6665   -7.8023   14.9316 C   0  0  1  0  0  0  0  0  0  0  0  0
   13.3839   -7.8761   13.7201 O   0  0  0  0  0  0  0  0  0  0  0  0
   12.1925   -9.1909   15.3658 C   0  0  2  0  0  0  0  0  0  0  0  0
   12.4815   -9.8944   22.3884 O   0  0  0  0  0  0  0  0  0  0  0  0
    8.2737  -11.6338   17.8343 N   0  0  0  0  0  0  0  0  0  0  0  0
    9.5851  -12.0308   17.7350 C   0  0  0  0  0  0  0  0  0  0  0  0
   10.4751  -11.2463   17.0349 N   0  0  0  0  0  0  0  0  0  0  0  0
   10.0803  -10.0940   16.4484 C   0  0  0  0  0  0  0  0  0  0  0  0
    8.7625   -9.6729   16.5519 C   0  0  0  0  0  0  0  0  0  0  0  0
    7.8481  -10.4608   17.2479 C   0  0  0  0  0  0  0  0  0  0  0  0
    6.5717  -10.0935   17.3638 N   0  0  0  0  0  0  0  0  0  0  0  0
    8.6471   -8.4951   15.8859 N   0  0  0  0  0  0  0  0  0  0  0  0
    9.8624   -8.1696   15.3881 C   0  0  0  0  0  0  0  0  0  0  0  0
   10.7633   -9.1465   15.7339 N   0  0  0  0  0  0  0  0  0  0  0  0
  2  1  1  1  0  0  0
  2  3  1  0  0  0  0
  2  5  1  0  0  0  0
  3  4  1  0  0  0  0
  3 17  1  0  0  0  0
  5  6  1  0  0  0  0
  7  6  1  1  0  0  0
  7  8  1  0  0  0  0
  7  9  1  0  0  0  0
 10  9  1  1  0  0  0
 10 11  1  0  0  0  0
 10 12  1  0  0  0  0
 11 16  1  0  0  0  0
 12 13  1  6  0  0  0
 12 14  1  0  0  0  0
 14 15  1  6  0  0  0
 14 16  1  0  0  0  0
 16 27  1  1  0  0  0
 18 19  2  0  0  0  0
 18 23  1  0  0  0  0
 19 20  1  0  0  0  0
 20 21  2  0  0  0  0
 21 22  1  0  0  0  0
 21 27  1  0  0  0  0
 22 23  2  0  0  0  0
 22 25  1  0  0  0  0
 23 24  1  0  0  0  0
 25 26  2  0  0  0  0
 26 27  1  0  0  0  0
M  END
>  <CHROM.1>
-45.19543339,-173.12073762,79.38583903,-82.05064398,-174.97046211,-59.88432991
-50.17008069,11.61475219,-8.77843583,18.19616204,1.30810311,0.48458546,1.53363779

>  <Name>
ligand

>  <RI>
0

>  <Rbt.Current_Directory>
/home/itssahil/PROJECTS/Mol_Feturizer/New_Systems/rnas/3GX5

>  <Rbt.Executable>
rbdock ($Id: //depot/dev/client3/rdock/2013.1/src/exe/rbdock.cxx#4 $)

>  <Rbt.Library>
libRbt.so (2013.1, Build901 2013/11/27)

>  <Rbt.Parameter_File>
/export/apps/rDock/src/rDock_2013.1_src/data/scripts/dock_solv.prm

>  <Rbt.Receptor>
prm/blind_docking_100.prm

>  <SCORE>
-12.2402

>  <SCORE.INTER>
-12.4246

>  <SCORE.INTER.CONST>
1

>  <SCORE.INTER.POLAR>
0

>  <SCORE.INTER.ROT>
7

>  <SCORE.INTER.SOLV>
7.01066

>  <SCORE.INTER.VDW>
-18.8866

>  <SCORE.INTER.norm>
-0.460171

>  <SCORE.INTRA>
0.176499

>  <SCORE.INTRA.DIHEDRAL>
1.58362

>  <SCORE.INTRA.DIHEDRAL.0>
4.28829

>  <SCORE.INTRA.POLAR>
0

>  <SCORE.INTRA.POLAR.0>
0

>  <SCORE.INTRA.REPUL>
0

>  <SCORE.INTRA.REPUL.0>
0

>  <SCORE.INTRA.SOLV>
-0.630897

>  <SCORE.INTRA.SOLV.lig_0>
-48.6018

>  <SCORE.INTRA.VDW>
-0.299865

>  <SCORE.INTRA.VDW.0>
-2.1506

>  <SCORE.INTRA.norm>
0.00653701

>  <SCORE.RESTR>
0.00795232

>  <SCORE.RESTR.CAVITY>
0.00795232

>  <SCORE.RESTR.norm>
0.000294531

>  <SCORE.SYSTEM>
0

>  <SCORE.SYSTEM.CONST>
0

>  <SCORE.SYSTEM.DIHEDRAL>
0

>  <SCORE.SYSTEM.SOLV>
0

>  <SCORE.SYSTEM.norm>
0

>  <SCORE.heavy>
27

>  <SCORE.norm>
-0.45334

>  <RMSD>
11.467

$$$$
ligand
 OpenBabel11021811483D
libRbt.so/2013.1/901 2013/11/27
 27 29  0  0  0  0  0  0  0  0999 V2000
   13.5685   -7.0510   21.3969 N   0  0  0  0  0  0  0  0  0  0  0  0
   12.1659   -7.3603   21.6814 C   0  0  2  0  0  0  0  0  0  0  0  0
   11.5685   -6.6668   22.9082 C   0  0  0  0  0  0  0  0  0  0  0  0
   12.1497   -6.7685   23.9879 O   0  0  0  0  0  0  0  0  0  0  0  0
   11.9449   -8.8618   21.7566 C   0  0  0  0  0  0  0  0  0  0  0  0
   10.4677   -9.2055   21.8402 C   0  0  0  0  0  0  0  0  0  0  0  0
    9.6053   -8.6745   20.3504 S   0  0  2  0  0  0  0  0  0  0  0  0
    7.9329   -9.2306   20.7418 C   0  0  0  0  0  0  0  0  0  0  0  0
   10.0963   -9.9815   19.2018 C   0  0  0  0  0  0  0  0  0  0  0  0
   10.2768   -9.4301   17.7994 C   0  0  1  0  0  0  0  0  0  0  0  0
   11.1093   -8.2931   17.8163 O   0  0  0  0  0  0  0  0  0  0  0  0
   10.9643  -10.4090   16.8680 C   0  0  1  0  0  0  0  0  0  0  0  0
    9.9769  -11.1479   16.1943 O   0  0  0  0  0  0  0  0  0  0  0  0
   11.7233   -9.5134   15.9099 C   0  0  1  0  0  0  0  0  0  0  0  0
   10.9613   -9.4212   14.7272 O   0  0  0  0  0  0  0  0  0  0  0  0
   11.8203   -8.1508   16.5993 C   0  0  2  0  0  0  0  0  0  0  0  0
   10.5234   -6.0120   22.8663 O   0  0  0  0  0  0  0  0  0  0  0  0
   15.8182   -9.3951   19.7436 N   0  0  0  0  0  0  0  0  0  0  0  0
   14.5704   -9.9680   19.6995 C   0  0  0  0  0  0  0  0  0  0  0  0
   13.6445   -9.4966   18.7950 N   0  0  0  0  0  0  0  0  0  0  0  0
   13.9443   -8.4842   17.9508 C   0  0  0  0  0  0  0  0  0  0  0  0
   15.2047   -7.9049   17.9740 C   0  0  0  0  0  0  0  0  0  0  0  0
   16.1487   -8.3639   18.8902 C   0  0  0  0  0  0  0  0  0  0  0  0
   17.3684   -7.8285   18.9477 N   0  0  0  0  0  0  0  0  0  0  0  0
   15.2341   -6.9314   17.0276 N   0  0  0  0  0  0  0  0  0  0  0  0
   14.0308   -6.9055   16.4097 C   0  0  0  0  0  0  0  0  0  0  0  0
   13.2222   -7.8664   16.9651 N   0  0  0  0  0  0  0  0  0  0  0  0
  2  1  1  1  0  0  0
  2  3  1  0  0  0  0
  2  5  1  0  0  0  0
  3  4  1  0  0  0  0
  3 17  1  0  0  0  0
  5  6  1  0  0  0  0
  7  6  1  1  0  0  0
  7  8  1  0  0  0  0
  7  9  1  0  0  0  0
 10  9  1  1  0  0  0
 10 11  1  0  0  0  0
 10 12  1  0  0  0  0
 11 16  1  0  0  0  0
 12 13  1  6  0  0  0
 12 14  1  0  0  0  0
 14 15  1  6  0  0  0
 14 16  1  0  0  0  0
 16 27  1  1  0  0  0
 18 19  2  0  0  0  0
 18 23  1  0  0  0  0
 19 20  1  0  0  0  0
 20 21  2  0  0  0  0
 21 22  1  0  0  0  0
 21 27  1  0  0  0  0
 22 23  2  0  0  0  0
 22 25  1  0  0  0  0
 23 24  1  0  0  0  0
 25 26  2  0  0  0  0
 26 27  1  0  0  0  0
M  END
>  <CHROM.1>
-53.16046352,-171.35548978,63.18068434,179.25895848,-144.65723272,50.49925480
42.83476677,12.22234061,-8.50723088,19.16028083,-2.02089492,-0.22891403,-1.87864307

>  <Name>
ligand

>  <RI>
0

>  <Rbt.Current_Directory>
/home/itssahil/PROJECTS/Mol_Feturizer/New_Systems/rnas/3GX5

>  <Rbt.Executable>
rbdock ($Id: //depot/dev/client3/rdock/2013.1/src/exe/rbdock.cxx#4 $)

>  <Rbt.Library>
libRbt.so (2013.1, Build901 2013/11/27)

>  <Rbt.Parameter_File>
/export/apps/rDock/src/rDock_2013.1_src/data/scripts/dock_solv.prm

>  <Rbt.Receptor>
prm/blind_docking_100.prm

>  <SCORE>
-11.5223

>  <SCORE.INTER>
-10.8752

>  <SCORE.INTER.CONST>
1

>  <SCORE.INTER.POLAR>
0

>  <SCORE.INTER.ROT>
7

>  <SCORE.INTER.SOLV>
15.6008

>  <SCORE.INTER.VDW>
-20.7171

>  <SCORE.INTER.norm>
-0.402786

>  <SCORE.INTRA>
-0.647119

>  <SCORE.INTRA.DIHEDRAL>
3.58772

>  <SCORE.INTRA.DIHEDRAL.0>
4.28829

>  <SCORE.INTRA.POLAR>
0

>  <SCORE.INTRA.POLAR.0>
0

>  <SCORE.INTRA.REPUL>
0

>  <SCORE.INTRA.REPUL.0>
0

>  <SCORE.INTRA.SOLV>
0.15697

>  <SCORE.INTRA.SOLV.lig_0>
-48.6018

>  <SCORE.INTRA.VDW>
-2.51947

>  <SCORE.INTRA.VDW.0>
-2.1506

>  <SCORE.INTRA.norm>
-0.0239674

>  <SCORE.RESTR>
0

>  <SCORE.RESTR.CAVITY>
0

>  <SCORE.RESTR.norm>
0

>  <SCORE.SYSTEM>
0

>  <SCORE.SYSTEM.CONST>
0

>  <SCORE.SYSTEM.DIHEDRAL>
0

>  <SCORE.SYSTEM.SOLV>
0

>  <SCORE.SYSTEM.norm>
0

>  <SCORE.heavy>
27

>  <SCORE.norm>
-0.426753

>  <RMSD>
11.481

$$$$
ligand
 OpenBabel11021811483D
libRbt.so/2013.1/901 2013/11/27
 27 29  0  0  0  0  0  0  0  0999 V2000
    7.8172   -8.5876   21.2378 N   0  0  0  0  0  0  0  0  0  0  0  0
    7.0664   -8.0897   20.0835 C   0  0  2  0  0  0  0  0  0  0  0  0
    6.3755   -6.7372   20.2737 C   0  0  0  0  0  0  0  0  0  0  0  0
    5.9285   -6.4513   21.3837 O   0  0  0  0  0  0  0  0  0  0  0  0
    6.0756   -9.1305   19.5897 C   0  0  0  0  0  0  0  0  0  0  0  0
    5.5305   -8.7758   18.2170 C   0  0  0  0  0  0  0  0  0  0  0  0
    6.8664   -8.6475   17.0152 S   0  0  2  0  0  0  0  0  0  0  0  0
    5.9106   -8.3248   15.5181 C   0  0  0  0  0  0  0  0  0  0  0  0
    7.2478  -10.3959   16.7583 C   0  0  0  0  0  0  0  0  0  0  0  0
    8.4068  -10.5611   15.7927 C   0  0  1  0  0  0  0  0  0  0  0  0
    9.4244   -9.6275   16.0741 O   0  0  0  0  0  0  0  0  0  0  0  0
    9.0741  -11.9178   15.9033 C   0  0  1  0  0  0  0  0  0  0  0  0
    8.4806  -12.7813   14.9667 O   0  0  0  0  0  0  0  0  0  0  0  0
   10.5182  -11.6332   15.5433 C   0  0  1  0  0  0  0  0  0  0  0  0
   10.6991  -12.0132   14.1977 O   0  0  0  0  0  0  0  0  0  0  0  0
   10.7004  -10.1229   15.7087 C   0  0  2  0  0  0  0  0  0  0  0  0
    6.2402   -5.9185   19.3604 O   0  0  0  0  0  0  0  0  0  0  0  0
   15.6423   -9.2914   17.2266 N   0  0  0  0  0  0  0  0  0  0  0  0
   15.1770   -9.5089   15.9525 C   0  0  0  0  0  0  0  0  0  0  0  0
   13.8290   -9.7110   15.7531 N   0  0  0  0  0  0  0  0  0  0  0  0
   12.9592   -9.6958   16.7879 C   0  0  0  0  0  0  0  0  0  0  0  0
   13.4122   -9.4636   18.0784 C   0  0  0  0  0  0  0  0  0  0  0  0
   14.7742   -9.2677   18.2974 C   0  0  0  0  0  0  0  0  0  0  0  0
   15.2491   -9.0483   19.5238 N   0  0  0  0  0  0  0  0  0  0  0  0
   12.3386   -9.4935   18.9094 N   0  0  0  0  0  0  0  0  0  0  0  0
   11.2328   -9.7216   18.1640 C   0  0  0  0  0  0  0  0  0  0  0  0
   11.5990   -9.8423   16.8461 N   0  0  0  0  0  0  0  0  0  0  0  0
  2  1  1  1  0  0  0
  2  3  1  0  0  0  0
  2  5  1  0  0  0  0
  3  4  1  0  0  0  0
  3 17  1  0  0  0  0
  5  6  1  0  0  0  0
  7  6  1  1  0  0  0
  7  8  1  0  0  0  0
  7  9  1  0  0  0  0
 10  9  1  1  0  0  0
 10 11  1  0  0  0  0
 10 12  1  0  0  0  0
 11 16  1  0  0  0  0
 12 13  1  6  0  0  0
 12 14  1  0  0  0  0
 14 15  1  6  0  0  0
 14 16  1  0  0  0  0
 16 27  1  1  0  0  0
 18 19  2  0  0  0  0
 18 23  1  0  0  0  0
 19 20  1  0  0  0  0
 20 21  2  0  0  0  0
 21 22  1  0  0  0  0
 21 27  1  0  0  0  0
 22 23  2  0  0  0  0
 22 25  1  0  0  0  0
 23 24  1  0  0  0  0
 25 26  2  0  0  0  0
 26 27  1  0  0  0  0
M  END
>  <CHROM.1>
-33.97222705,-166.46695230,59.19260237,176.84911007,-178.08341357,42.71564021
-155.03327243,9.68502397,-9.39252733,17.48676399,-2.77659721,0.05508246,-2.19633045

>  <Name>
ligand

>  <RI>
0

>  <Rbt.Current_Directory>
/home/itssahil/PROJECTS/Mol_Feturizer/New_Systems/rnas/3GX5

>  <Rbt.Executable>
rbdock ($Id: //depot/dev/client3/rdock/2013.1/src/exe/rbdock.cxx#4 $)

>  <Rbt.Library>
libRbt.so (2013.1, Build901 2013/11/27)

>  <Rbt.Parameter_File>
/export/apps/rDock/src/rDock_2013.1_src/data/scripts/dock_solv.prm

>  <Rbt.Receptor>
prm/blind_docking_100.prm

>  <SCORE>
-6.37755

>  <SCORE.INTER>
-6.13803

>  <SCORE.INTER.CONST>
1

>  <SCORE.INTER.POLAR>
0

>  <SCORE.INTER.ROT>
7

>  <SCORE.INTER.SOLV>
11.8527

>  <SCORE.INTER.VDW>
-16.3096

>  <SCORE.INTER.norm>
-0.227334

>  <SCORE.INTRA>
-0.239527

>  <SCORE.INTRA.DIHEDRAL>
1.10329

>  <SCORE.INTRA.DIHEDRAL.0>
4.28829

>  <SCORE.INTRA.POLAR>
0

>  <SCORE.INTRA.POLAR.0>
0

>  <SCORE.INTRA.REPUL>
0

>  <SCORE.INTRA.REPUL.0>
0

>  <SCORE.INTRA.SOLV>
-0.93762

>  <SCORE.INTRA.SOLV.lig_0>
-48.6018

>  <SCORE.INTRA.VDW>
-0.322361

>  <SCORE.INTRA.VDW.0>
-2.1506

>  <SCORE.INTRA.norm>
-0.00887138

>  <SCORE.RESTR>
0

>  <SCORE.RESTR.CAVITY>
0

>  <SCORE.RESTR.norm>
0

>  <SCORE.SYSTEM>
0

>  <SCORE.SYSTEM.CONST>
0

>  <SCORE.SYSTEM.DIHEDRAL>
0

>  <SCORE.SYSTEM.SOLV>
0

>  <SCORE.SYSTEM.norm>
0

>  <SCORE.heavy>
27

>  <SCORE.norm>
-0.236206

>  <RMSD>
11.508

$$$$
ligand
 OpenBabel11021811483D
libRbt.so/2013.1/901 2013/11/27
 27 29  0  0  0  0  0  0  0  0999 V2000
   13.8573   -7.8313   16.7657 N   0  0  0  0  0  0  0  0  0  0  0  0
   12.7553   -8.6955   17.1928 C   0  0  2  0  0  0  0  0  0  0  0  0
   12.8129   -9.1765   18.6448 C   0  0  0  0  0  0  0  0  0  0  0  0
   13.9053   -9.4699   19.1288 O   0  0  0  0  0  0  0  0  0  0  0  0
   12.5898   -9.8729   16.2467 C   0  0  0  0  0  0  0  0  0  0  0  0
   12.0265   -9.4365   14.9052 C   0  0  0  0  0  0  0  0  0  0  0  0
   11.6363  -10.8675   13.8827 S   0  0  2  0  0  0  0  0  0  0  0  0
   11.2703  -10.0440   12.3184 C   0  0  0  0  0  0  0  0  0  0  0  0
    9.9525  -11.2205   14.4385 C   0  0  0  0  0  0  0  0  0  0  0  0
    9.9644  -11.9920   15.7454 C   0  0  1  0  0  0  0  0  0  0  0  0
   10.2208  -11.1285   16.8293 O   0  0  0  0  0  0  0  0  0  0  0  0
    8.6276  -12.6342   16.0599 C   0  0  1  0  0  0  0  0  0  0  0  0
    8.6380  -13.9473   15.5593 O   0  0  0  0  0  0  0  0  0  0  0  0
    8.5790  -12.6286   17.5743 C   0  0  1  0  0  0  0  0  0  0  0  0
    8.9377  -13.9203   18.0114 O   0  0  0  0  0  0  0  0  0  0  0  0
    9.6173  -11.5976   18.0221 C   0  0  2  0  0  0  0  0  0  0  0  0
   11.8097   -9.2898   19.3544 O   0  0  0  0  0  0  0  0  0  0  0  0
    8.6921   -6.4542   17.6945 N   0  0  0  0  0  0  0  0  0  0  0  0
    9.4136   -7.2379   16.8271 C   0  0  0  0  0  0  0  0  0  0  0  0
    9.5471   -8.5840   17.0877 N   0  0  0  0  0  0  0  0  0  0  0  0
    8.9786   -9.1447   18.1786 C   0  0  0  0  0  0  0  0  0  0  0  0
    8.2354   -8.3688   19.0562 C   0  0  0  0  0  0  0  0  0  0  0  0
    8.0999   -7.0038   18.8117 C   0  0  0  0  0  0  0  0  0  0  0  0
    7.3992   -6.2238   19.6352 N   0  0  0  0  0  0  0  0  0  0  0  0
    7.7784   -9.1792   20.0455 N   0  0  0  0  0  0  0  0  0  0  0  0
    8.2061  -10.4377   19.7929 C   0  0  0  0  0  0  0  0  0  0  0  0
    8.9452  -10.4350   18.6357 N   0  0  0  0  0  0  0  0  0  0  0  0
  2  1  1  6  0  0  0
  2  3  1  0  0  0  0
  2  5  1  0  0  0  0
  3  4  1  0  0  0  0
  3 17  1  0  0  0  0
  5  6  1  0  0  0  0
  7  6  1  1  0  0  0
  7  8  1  0  0  0  0
  7  9  1  0  0  0  0
 10  9  1  6  0  0  0
 10 11  1  0  0  0  0
 10 12  1  0  0  0  0
 11 16  1  0  0  0  0
 12 13  1  1  0  0  0
 12 14  1  0  0  0  0
 14 15  1  1  0  0  0
 14 16  1  0  0  0  0
 16 27  1  6  0  0  0
 18 19  2  0  0  0  0
 18 23  1  0  0  0  0
 19 20  1  0  0  0  0
 20 21  2  0  0  0  0
 21 22  1  0  0  0  0
 21 27  1  0  0  0  0
 22 23  2  0  0  0  0
 22 25  1  0  0  0  0
 23 24  1  0  0  0  0
 25 26  2  0  0  0  0
 26 27  1  0  0  0  0
M  END
>  <CHROM.1>
-38.05881009,-71.21740373,-172.52692041,-171.09453191,-80.49284978,78.23011803
-3.82428130,10.20965090,-9.99085090,17.08359951,-1.14148237,0.61560063,0.64518864

>  <Name>
ligand

>  <RI>
0

>  <Rbt.Current_Directory>
/home/itssahil/PROJECTS/Mol_Feturizer/New_Systems/rnas/3GX5

>  <Rbt.Executable>
rbdock ($Id: //depot/dev/client3/rdock/2013.1/src/exe/rbdock.cxx#4 $)

>  <Rbt.Library>
libRbt.so (2013.1, Build901 2013/11/27)

>  <Rbt.Parameter_File>
/export/apps/rDock/src/rDock_2013.1_src/data/scripts/dock_solv.prm

>  <Rbt.Receptor>
prm/blind_docking_80.prm

>  <SCORE>
-13.104

>  <SCORE.INTER>
-11.6187

>  <SCORE.INTER.CONST>
1

>  <SCORE.INTER.POLAR>
0

>  <SCORE.INTER.ROT>
7

>  <SCORE.INTER.SOLV>
9.13196

>  <SCORE.INTER.VDW>
-19.0565

>  <SCORE.INTER.norm>
-0.430322

>  <SCORE.INTRA>
-1.48533

>  <SCORE.INTRA.DIHEDRAL>
2.22882

>  <SCORE.INTRA.DIHEDRAL.0>
4.28829

>  <SCORE.INTRA.POLAR>
0

>  <SCORE.INTRA.POLAR.0>
0

>  <SCORE.INTRA.REPUL>
0

>  <SCORE.INTRA.REPUL.0>
0

>  <SCORE.INTRA.SOLV>
-0.305847

>  <SCORE.INTRA.SOLV.lig_0>
-48.6018

>  <SCORE.INTRA.VDW>
-2.44682

>  <SCORE.INTRA.VDW.0>
-2.1506

>  <SCORE.INTRA.norm>
-0.0550123

>  <SCORE.RESTR>
0

>  <SCORE.RESTR.CAVITY>
0

>  <SCORE.RESTR.norm>
0

>  <SCORE.SYSTEM>
0

>  <SCORE.SYSTEM.CONST>
0

>  <SCORE.SYSTEM.DIHEDRAL>
0

>  <SCORE.SYSTEM.SOLV>
0

>  <SCORE.SYSTEM.norm>
0

>  <SCORE.heavy>
27

>  <SCORE.norm>
-0.485334

>  <RMSD>
11.526

$$$$
ligand
 OpenBabel11021811483D
libRbt.so/2013.1/901 2013/11/27
 27 29  0  0  0  0  0  0  0  0999 V2000
    7.1884   -5.7092   20.2426 N   0  0  0  0  0  0  0  0  0  0  0  0
    8.1863   -5.7958   21.3105 C   0  0  2  0  0  0  0  0  0  0  0  0
    8.8889   -4.4846   21.6710 C   0  0  0  0  0  0  0  0  0  0  0  0
    9.0856   -3.6547   20.7843 O   0  0  0  0  0  0  0  0  0  0  0  0
    9.2052   -6.8837   21.0152 C   0  0  0  0  0  0  0  0  0  0  0  0
   10.0993   -7.1518   22.2136 C   0  0  0  0  0  0  0  0  0  0  0  0
   11.4006   -8.3224   21.7877 S   0  0  2  0  0  0  0  0  0  0  0  0
   12.2098   -8.4885   23.3929 C   0  0  0  0  0  0  0  0  0  0  0  0
   12.5787   -7.2223   20.9688 C   0  0  0  0  0  0  0  0  0  0  0  0
   13.6709   -8.0170   20.2771 C   0  0  1  0  0  0  0  0  0  0  0  0
   13.1479   -8.7270   19.1778 O   0  0  0  0  0  0  0  0  0  0  0  0
   14.7595   -7.1361   19.6964 C   0  0  1  0  0  0  0  0  0  0  0  0
   15.7839   -7.0104   20.6503 O   0  0  0  0  0  0  0  0  0  0  0  0
   15.2353   -7.9122   18.4850 C   0  0  1  0  0  0  0  0  0  0  0  0
   16.4206   -8.5812   18.8530 O   0  0  0  0  0  0  0  0  0  0  0  0
   14.1237   -8.9149   18.1680 C   0  0  2  0  0  0  0  0  0  0  0  0
    9.2741   -4.2219   22.8135 O   0  0  0  0  0  0  0  0  0  0  0  0
   13.2492  -10.3585   13.2112 N   0  0  0  0  0  0  0  0  0  0  0  0
   13.9478  -11.0410   14.1773 C   0  0  0  0  0  0  0  0  0  0  0  0
   14.0709  -10.4912   15.4344 N   0  0  0  0  0  0  0  0  0  0  0  0
   13.5143   -9.2957   15.7322 C   0  0  0  0  0  0  0  0  0  0  0  0
   12.7942   -8.6012   14.7712 C   0  0  0  0  0  0  0  0  0  0  0  0
   12.6696   -9.1395   13.4921 C   0  0  0  0  0  0  0  0  0  0  0  0
   11.9910   -8.4993   12.5395 N   0  0  0  0  0  0  0  0  0  0  0  0
   12.3448   -7.4511   15.3364 N   0  0  0  0  0  0  0  0  0  0  0  0
   12.7545   -7.4251   16.6257 C   0  0  0  0  0  0  0  0  0  0  0  0
   13.4745   -8.5643   16.8891 N   0  0  0  0  0  0  0  0  0  0  0  0
  2  1  1  6  0  0  0
  2  3  1  0  0  0  0
  2  5  1  0  0  0  0
  3  4  1  0  0  0  0
  3 17  1  0  0  0  0
  5  6  1  0  0  0  0
  7  6  1  1  0  0  0
  7  8  1  0  0  0  0
  7  9  1  0  0  0  0
 10  9  1  6  0  0  0
 10 11  1  0  0  0  0
 10 12  1  0  0  0  0
 11 16  1  0  0  0  0
 12 13  1  1  0  0  0
 12 14  1  0  0  0  0
 14 15  1  1  0  0  0
 14 16  1  0  0  0  0
 16 27  1  6  0  0  0
 18 19  2  0  0  0  0
 18 23  1  0  0  0  0
 19 20  1  0  0  0  0
 20 21  2  0  0  0  0
 21 22  1  0  0  0  0
 21 27  1  0  0  0  0
 22 23  2  0  0  0  0
 22 25  1  0  0  0  0
 23 24  1  0  0  0  0
 25 26  2  0  0  0  0
 26 27  1  0  0  0  0
M  END
>  <CHROM.1>
-32.55682566,-170.10856639,-174.30576907,-177.29194331,-169.41825339,68.47742339
-132.83732030,12.25284308,-7.72413784,18.78360243,2.08116258,-0.41854203
1.34077557

>  <Name>
ligand

>  <RI>
0

>  <Rbt.Current_Directory>
/home/itssahil/PROJECTS/Mol_Feturizer/New_Systems/rnas/3GX5

>  <Rbt.Executable>
rbdock ($Id: //depot/dev/client3/rdock/2013.1/src/exe/rbdock.cxx#4 $)

>  <Rbt.Library>
libRbt.so (2013.1, Build901 2013/11/27)

>  <Rbt.Parameter_File>
/export/apps/rDock/src/rDock_2013.1_src/data/scripts/dock_solv.prm

>  <Rbt.Receptor>
prm/blind_docking_60.prm

>  <SCORE>
-10.9134

>  <SCORE.INTER>
-10.5556

>  <SCORE.INTER.CONST>
1

>  <SCORE.INTER.POLAR>
0

>  <SCORE.INTER.ROT>
7

>  <SCORE.INTER.SOLV>
6.25292

>  <SCORE.INTER.VDW>
-17.388

>  <SCORE.INTER.norm>
-0.390948

>  <SCORE.INTRA>
-0.357781

>  <SCORE.INTRA.DIHEDRAL>
1.22181

>  <SCORE.INTRA.DIHEDRAL.0>
4.28829

>  <SCORE.INTRA.POLAR>
0

>  <SCORE.INTRA.POLAR.0>
0

>  <SCORE.INTRA.REPUL>
0

>  <SCORE.INTRA.REPUL.0>
0

>  <SCORE.INTRA.SOLV>
-1.3447

>  <SCORE.INTRA.SOLV.lig_0>
-48.6018

>  <SCORE.INTRA.VDW>
-0.296337

>  <SCORE.INTRA.VDW.0>
-2.1506

>  <SCORE.INTRA.norm>
-0.0132512

>  <SCORE.RESTR>
0

>  <SCORE.RESTR.CAVITY>
0

>  <SCORE.RESTR.norm>
0

>  <SCORE.SYSTEM>
0

>  <SCORE.SYSTEM.CONST>
0

>  <SCORE.SYSTEM.DIHEDRAL>
0

>  <SCORE.SYSTEM.SOLV>
0

>  <SCORE.SYSTEM.norm>
0

>  <SCORE.heavy>
27

>  <SCORE.norm>
-0.4042

>  <RMSD>
11.535

$$$$
ligand
 OpenBabel11021811483D
libRbt.so/2013.1/901 2013/11/27
 27 29  0  0  0  0  0  0  0  0999 V2000
   10.9223   -8.9037   23.0372 N   0  0  0  0  0  0  0  0  0  0  0  0
   10.4404   -8.5125   21.7111 C   0  0  2  0  0  0  0  0  0  0  0  0
    9.0283   -8.9817   21.3525 C   0  0  0  0  0  0  0  0  0  0  0  0
    8.7844  -10.1876   21.3621 O   0  0  0  0  0  0  0  0  0  0  0  0
   11.4287   -8.9205   20.6315 C   0  0  0  0  0  0  0  0  0  0  0  0
   12.7624   -8.2128   20.7987 C   0  0  0  0  0  0  0  0  0  0  0  0
   13.8898   -8.6559   19.4653 S   0  0  2  0  0  0  0  0  0  0  0  0
   15.2443   -7.5126   19.8078 C   0  0  0  0  0  0  0  0  0  0  0  0
   13.1132   -7.7958   18.0776 C   0  0  0  0  0  0  0  0  0  0  0  0
   13.5958   -8.3586   16.7534 C   0  0  1  0  0  0  0  0  0  0  0  0
   13.3323   -9.7409   16.6758 O   0  0  0  0  0  0  0  0  0  0  0  0
   12.8797   -7.7527   15.5624 C   0  0  1  0  0  0  0  0  0  0  0  0
   13.6332   -6.6597   15.1012 O   0  0  0  0  0  0  0  0  0  0  0  0
   12.8703   -8.8759   14.5453 C   0  0  1  0  0  0  0  0  0  0  0  0
   13.9166   -8.6267   13.6337 O   0  0  0  0  0  0  0  0  0  0  0  0
   13.1353  -10.1586   15.3365 C   0  0  2  0  0  0  0  0  0  0  0  0
    8.1201   -8.2041   21.0473 O   0  0  0  0  0  0  0  0  0  0  0  0
    8.8984  -11.6730   18.0148 N   0  0  0  0  0  0  0  0  0  0  0  0
    9.8475  -10.7527   18.3884 C   0  0  0  0  0  0  0  0  0  0  0  0
   10.8999  -10.4883   17.5397 N   0  0  0  0  0  0  0  0  0  0  0  0
   11.0116  -11.1159   16.3476 C   0  0  0  0  0  0  0  0  0  0  0  0
   10.0536  -12.0374   15.9505 C   0  0  0  0  0  0  0  0  0  0  0  0
    8.9887  -12.3232   16.8024 C   0  0  0  0  0  0  0  0  0  0  0  0
    8.0517  -13.2075   16.4594 N   0  0  0  0  0  0  0  0  0  0  0  0
   10.4042  -12.5016   14.7234 N   0  0  0  0  0  0  0  0  0  0  0  0
   11.5444  -11.8789   14.3454 C   0  0  0  0  0  0  0  0  0  0  0  0
   11.9302  -11.0116   15.3376 N   0  0  0  0  0  0  0  0  0  0  0  0
  2  1  1  1  0  0  0
  2  3  1  0  0  0  0
  2  5  1  0  0  0  0
  3  4  1  0  0  0  0
  3 17  1  0  0  0  0
  5  6  1  0  0  0  0
  7  6  1  1  0  0  0
  7  8  1  0  0  0  0
  7  9  1  0  0  0  0
 10  9  1  1  0  0  0
 10 11  1  0  0  0  0
 10 12  1  0  0  0  0
 11 16  1  0  0  0  0
 12 13  1  6  0  0  0
 12 14  1  0  0  0  0
 14 15  1  6  0  0  0
 14 16  1  0  0  0  0
 16 27  1  1  0  0  0
 18 19  2  0  0  0  0
 18 23  1  0  0  0  0
 19 20  1  0  0  0  0
 20 21  2  0  0  0  0
 21 22  1  0  0  0  0
 21 27  1  0  0  0  0
 22 23  2  0  0  0  0
 22 25  1  0  0  0  0
 23 24  1  0  0  0  0
 25 26  2  0  0  0  0
 26 27  1  0  0  0  0
M  END
>  <CHROM.1>
-58.49146535,-62.89186536,-177.41942040,172.48595899,-161.48725697,57.50387107
14.19383900,11.58824810,-9.62787477,17.84367071,-1.95765875,-0.62157188,-1.95578051

>  <Name>
ligand

>  <RI>
0

>  <Rbt.Current_Directory>
/home/itssahil/PROJECTS/Mol_Feturizer/New_Systems/rnas/3GX5

>  <Rbt.Executable>
rbdock ($Id: //depot/dev/client3/rdock/2013.1/src/exe/rbdock.cxx#4 $)

>  <Rbt.Library>
libRbt.so (2013.1, Build901 2013/11/27)

>  <Rbt.Parameter_File>
/export/apps/rDock/src/rDock_2013.1_src/data/scripts/dock_solv.prm

>  <Rbt.Receptor>
prm/blind_docking_100.prm

>  <SCORE>
-14.5784

>  <SCORE.INTER>
-13.4777

>  <SCORE.INTER.CONST>
1

>  <SCORE.INTER.POLAR>
0

>  <SCORE.INTER.ROT>
7

>  <SCORE.INTER.SOLV>
8.05925

>  <SCORE.INTER.VDW>
-19.9382

>  <SCORE.INTER.norm>
-0.499173

>  <SCORE.INTRA>
-1.10071

>  <SCORE.INTRA.DIHEDRAL>
1.1644

>  <SCORE.INTRA.DIHEDRAL.0>
4.28829

>  <SCORE.INTRA.POLAR>
0

>  <SCORE.INTRA.POLAR.0>
0

>  <SCORE.INTRA.REPUL>
0

>  <SCORE.INTRA.REPUL.0>
0

>  <SCORE.INTRA.SOLV>
-0.569813

>  <SCORE.INTRA.SOLV.lig_0>
-48.6018

>  <SCORE.INTRA.VDW>
-1.398

>  <SCORE.INTRA.VDW.0>
-2.1506

>  <SCORE.INTRA.norm>
-0.040767

>  <SCORE.RESTR>
0

>  <SCORE.RESTR.CAVITY>
0

>  <SCORE.RESTR.norm>
0

>  <SCORE.SYSTEM>
0

>  <SCORE.SYSTEM.CONST>
0

>  <SCORE.SYSTEM.DIHEDRAL>
0

>  <SCORE.SYSTEM.SOLV>
0

>  <SCORE.SYSTEM.norm>
0

>  <SCORE.heavy>
27

>  <SCORE.norm>
-0.53994

>  <RMSD>
11.651

$$$$
ligand
 OpenBabel11021811483D
libRbt.so/2013.1/901 2013/11/27
 27 29  0  0  0  0  0  0  0  0999 V2000
   13.6519   -8.6948   19.6672 N   0  0  0  0  0  0  0  0  0  0  0  0
   13.5860   -9.0266   18.2427 C   0  0  2  0  0  0  0  0  0  0  0  0
   14.9111   -8.9491   17.4806 C   0  0  0  0  0  0  0  0  0  0  0  0
   15.7595   -8.1375   17.8484 O   0  0  0  0  0  0  0  0  0  0  0  0
   12.5182   -8.2034   17.5419 C   0  0  0  0  0  0  0  0  0  0  0  0
   12.1921   -8.7645   16.1685 C   0  0  0  0  0  0  0  0  0  0  0  0
   11.5537  -10.4437   16.3020 S   0  0  2  0  0  0  0  0  0  0  0  0
   11.7382  -10.9858   14.5899 C   0  0  0  0  0  0  0  0  0  0  0  0
    9.7752  -10.1193   16.3253 C   0  0  0  0  0  0  0  0  0  0  0  0
    9.3329   -9.6251   17.6903 C   0  0  1  0  0  0  0  0  0  0  0  0
    9.6731   -8.2682   17.8613 O   0  0  0  0  0  0  0  0  0  0  0  0
    7.8293   -9.6815   17.8760 C   0  0  1  0  0  0  0  0  0  0  0  0
    7.5027  -10.9089   18.4775 O   0  0  0  0  0  0  0  0  0  0  0  0
    7.5437   -8.5235   18.8106 C   0  0  1  0  0  0  0  0  0  0  0  0
    7.3996   -9.0559   20.1082 O   0  0  0  0  0  0  0  0  0  0  0  0
    8.7696   -7.6112   18.7325 C   0  0  2  0  0  0  0  0  0  0  0  0
   15.1677   -9.6619   16.5065 O   0  0  0  0  0  0  0  0  0  0  0  0
    6.6763   -2.8536   19.3662 N   0  0  0  0  0  0  0  0  0  0  0  0
    6.8692   -3.8235   20.3197 C   0  0  0  0  0  0  0  0  0  0  0  0
    7.4395   -5.0231   19.9543 N   0  0  0  0  0  0  0  0  0  0  0  0
    7.8140   -5.2589   18.6769 C   0  0  0  0  0  0  0  0  0  0  0  0
    7.6384   -4.2839   17.7058 C   0  0  0  0  0  0  0  0  0  0  0  0
    7.0534   -3.0693   18.0577 C   0  0  0  0  0  0  0  0  0  0  0  0
    6.8618   -2.1101   17.1518 N   0  0  0  0  0  0  0  0  0  0  0  0
    8.1041   -4.7777   16.5296 N   0  0  0  0  0  0  0  0  0  0  0  0
    8.5776   -6.0254   16.7523 C   0  0  0  0  0  0  0  0  0  0  0  0
    8.4119   -6.3362   18.0795 N   0  0  0  0  0  0  0  0  0  0  0  0
  2  1  1  1  0  0  0
  2  3  1  0  0  0  0
  2  5  1  0  0  0  0
  3  4  1  0  0  0  0
  3 17  1  0  0  0  0
  5  6  1  0  0  0  0
  7  6  1  6  0  0  0
  7  8  1  0  0  0  0
  7  9  1  0  0  0  0
 10  9  1  6  0  0  0
 10 11  1  0  0  0  0
 10 12  1  0  0  0  0
 11 16  1  0  0  0  0
 12 13  1  1  0  0  0
 12 14  1  0  0  0  0
 14 15  1  1  0  0  0
 14 16  1  0  0  0  0
 16 27  1  6  0  0  0
 18 19  2  0  0  0  0
 18 23  1  0  0  0  0
 19 20  1  0  0  0  0
 20 21  2  0  0  0  0
 21 22  1  0  0  0  0
 21 27  1  0  0  0  0
 22 23  2  0  0  0  0
 22 25  1  0  0  0  0
 23 24  1  0  0  0  0
 25 26  2  0  0  0  0
 26 27  1  0  0  0  0
M  END
>  <CHROM.1>
-30.49821983,-165.70620308,61.12386582,-163.89591199,-77.51286070,77.52437070
-164.31307448,9.94597690,-7.65924348,17.79390479,-0.71963941,0.15180208,0.12900397

>  <Name>
ligand

>  <RI>
0

>  <Rbt.Current_Directory>
/home/itssahil/PROJECTS/Mol_Feturizer/New_Systems/rnas/3GX5

>  <Rbt.Executable>
rbdock ($Id: //depot/dev/client3/rdock/2013.1/src/exe/rbdock.cxx#4 $)

>  <Rbt.Library>
libRbt.so (2013.1, Build901 2013/11/27)

>  <Rbt.Parameter_File>
/export/apps/rDock/src/rDock_2013.1_src/data/scripts/dock_solv.prm

>  <Rbt.Receptor>
prm/blind_docking_80.prm

>  <SCORE>
-7.37363

>  <SCORE.INTER>
-7.63578

>  <SCORE.INTER.CONST>
1

>  <SCORE.INTER.POLAR>
0

>  <SCORE.INTER.ROT>
7

>  <SCORE.INTER.SOLV>
8.06577

>  <SCORE.INTER.VDW>
-16.0458

>  <SCORE.INTER.norm>
-0.282807

>  <SCORE.INTRA>
0.262143

>  <SCORE.INTRA.DIHEDRAL>
2.61537

>  <SCORE.INTRA.DIHEDRAL.0>
4.28829

>  <SCORE.INTRA.POLAR>
0

>  <SCORE.INTRA.POLAR.0>
0

>  <SCORE.INTRA.REPUL>
0

>  <SCORE.INTRA.REPUL.0>
0

>  <SCORE.INTRA.SOLV>
-0.763333

>  <SCORE.INTRA.SOLV.lig_0>
-48.6018

>  <SCORE.INTRA.VDW>
-0.663875

>  <SCORE.INTRA.VDW.0>
-2.1506

>  <SCORE.INTRA.norm>
0.00970901

>  <SCORE.RESTR>
0

>  <SCORE.RESTR.CAVITY>
0

>  <SCORE.RESTR.norm>
0

>  <SCORE.SYSTEM>
0

>  <SCORE.SYSTEM.CONST>
0

>  <SCORE.SYSTEM.DIHEDRAL>
0

>  <SCORE.SYSTEM.SOLV>
0

>  <SCORE.SYSTEM.norm>
0

>  <SCORE.heavy>
27

>  <SCORE.norm>
-0.273098

>  <RMSD>
11.688

$$$$
ligand
 OpenBabel11021811483D
libRbt.so/2013.1/901 2013/11/27
 27 29  0  0  0  0  0  0  0  0999 V2000
    9.4121   -8.0422   23.0378 N   0  0  0  0  0  0  0  0  0  0  0  0
   10.0063   -9.2722   22.5109 C   0  0  2  0  0  0  0  0  0  0  0  0
   11.4871   -9.4859   22.8339 C   0  0  0  0  0  0  0  0  0  0  0  0
   12.0750   -8.6395   23.5060 O   0  0  0  0  0  0  0  0  0  0  0  0
    9.7626   -9.3965   21.0162 C   0  0  0  0  0  0  0  0  0  0  0  0
    8.2790   -9.4452   20.6942 C   0  0  0  0  0  0  0  0  0  0  0  0
    8.0178   -9.6160   18.9200 S   0  0  2  0  0  0  0  0  0  0  0  0
    6.2202   -9.7779   18.8824 C   0  0  0  0  0  0  0  0  0  0  0  0
    8.4813  -11.3475   18.6837 C   0  0  0  0  0  0  0  0  0  0  0  0
    8.0675  -11.8358   17.3077 C   0  0  1  0  0  0  0  0  0  0  0  0
    8.6528  -11.0408   16.3020 O   0  0  0  0  0  0  0  0  0  0  0  0
    8.5392  -13.2475   17.0196 C   0  0  1  0  0  0  0  0  0  0  0  0
    7.5159  -14.1396   17.3830 O   0  0  0  0  0  0  0  0  0  0  0  0
    8.7568  -13.2495   15.5200 C   0  0  1  0  0  0  0  0  0  0  0  0
    7.6262  -13.8525   14.9317 O   0  0  0  0  0  0  0  0  0  0  0  0
    8.8608  -11.7788   15.1107 C   0  0  2  0  0  0  0  0  0  0  0  0
   12.1236  -10.4691   22.4453 O   0  0  0  0  0  0  0  0  0  0  0  0
   13.5000   -9.7462   16.4388 N   0  0  0  0  0  0  0  0  0  0  0  0
   12.3819   -9.8798   17.2256 C   0  0  0  0  0  0  0  0  0  0  0  0
   11.2449  -10.4438   16.6899 N   0  0  0  0  0  0  0  0  0  0  0  0
   11.2132  -10.8691   15.4070 C   0  0  0  0  0  0  0  0  0  0  0  0
   12.3388  -10.7536   14.6044 C   0  0  0  0  0  0  0  0  0  0  0  0
   13.4932  -10.1758   15.1288 C   0  0  0  0  0  0  0  0  0  0  0  0
   14.5929  -10.0412   14.3872 N   0  0  0  0  0  0  0  0  0  0  0  0
   12.0339  -11.2609   13.3822 N   0  0  0  0  0  0  0  0  0  0  0  0
   10.7551  -11.7017   13.4141 C   0  0  0  0  0  0  0  0  0  0  0  0
   10.2344  -11.4728   14.6639 N   0  0  0  0  0  0  0  0  0  0  0  0
  2  1  1  6  0  0  0
  2  3  1  0  0  0  0
  2  5  1  0  0  0  0
  3  4  1  0  0  0  0
  3 17  1  0  0  0  0
  5  6  1  0  0  0  0
  7  6  1  1  0  0  0
  7  8  1  0  0  0  0
  7  9  1  0  0  0  0
 10  9  1  1  0  0  0
 10 11  1  0  0  0  0
 10 12  1  0  0  0  0
 11 16  1  0  0  0  0
 12 13  1  6  0  0  0
 12 14  1  0  0  0  0
 14 15  1  6  0  0  0
 14 16  1  0  0  0  0
 16 27  1  1  0  0  0
 18 19  2  0  0  0  0
 18 23  1  0  0  0  0
 19 20  1  0  0  0  0
 20 21  2  0  0  0  0
 21 22  1  0  0  0  0
 21 27  1  0  0  0  0
 22 23  2  0  0  0  0
 22 25  1  0  0  0  0
 23 24  1  0  0  0  0
 25 26  2  0  0  0  0
 26 27  1  0  0  0  0
M  END
>  <CHROM.1>
0.42921692,-60.72692275,-179.19588175,175.62854828,167.85519448,57.77729776
14.34064458,10.04642433,-10.73765495,17.81603490,-1.64227866,-0.35076625
-1.92305517

>  <Name>
ligand

>  <RI>
0

>  <Rbt.Current_Directory>
/home/itssahil/PROJECTS/Mol_Feturizer/New_Systems/rnas/3GX5

>  <Rbt.Executable>
rbdock ($Id: //depot/dev/client3/rdock/2013.1/src/exe/rbdock.cxx#4 $)

>  <Rbt.Library>
libRbt.so (2013.1, Build901 2013/11/27)

>  <Rbt.Parameter_File>
/export/apps/rDock/src/rDock_2013.1_src/data/scripts/dock_solv.prm

>  <Rbt.Receptor>
prm/blind_docking_60.prm

>  <SCORE>
-15.7359

>  <SCORE.INTER>
-14.9428

>  <SCORE.INTER.CONST>
1

>  <SCORE.INTER.POLAR>
0

>  <SCORE.INTER.ROT>
7

>  <SCORE.INTER.SOLV>
10.6181

>  <SCORE.INTER.VDW>
-21.7679

>  <SCORE.INTER.norm>
-0.553436

>  <SCORE.INTRA>
-0.793148

>  <SCORE.INTRA.DIHEDRAL>
-0.669874

>  <SCORE.INTRA.DIHEDRAL.0>
4.28829

>  <SCORE.INTRA.POLAR>
0

>  <SCORE.INTRA.POLAR.0>
0

>  <SCORE.INTRA.REPUL>
0

>  <SCORE.INTRA.REPUL.0>
0

>  <SCORE.INTRA.SOLV>
-0.511762

>  <SCORE.INTRA.SOLV.lig_0>
-48.6018

>  <SCORE.INTRA.VDW>
-0.20233

>  <SCORE.INTRA.VDW.0>
-2.1506

>  <SCORE.INTRA.norm>
-0.0293759

>  <SCORE.RESTR>
0

>  <SCORE.RESTR.CAVITY>
0

>  <SCORE.RESTR.norm>
0

>  <SCORE.SYSTEM>
0

>  <SCORE.SYSTEM.CONST>
0

>  <SCORE.SYSTEM.DIHEDRAL>
0

>  <SCORE.SYSTEM.SOLV>
0

>  <SCORE.SYSTEM.norm>
0

>  <SCORE.heavy>
27

>  <SCORE.norm>
-0.582812

>  <RMSD>
11.794

$$$$
ligand
 OpenBabel11021811483D
libRbt.so/2013.1/901 2013/11/27
 27 29  0  0  0  0  0  0  0  0999 V2000
    8.3698   -5.0773   20.3002 N   0  0  0  0  0  0  0  0  0  0  0  0
    7.3896   -6.0944   19.9148 C   0  0  2  0  0  0  0  0  0  0  0  0
    6.4794   -6.5988   21.0373 C   0  0  0  0  0  0  0  0  0  0  0  0
    5.2723   -6.6989   20.8214 O   0  0  0  0  0  0  0  0  0  0  0  0
    8.0639   -7.2596   19.2102 C   0  0  0  0  0  0  0  0  0  0  0  0
    7.0460   -8.2214   18.6219 C   0  0  0  0  0  0  0  0  0  0  0  0
    7.8624   -9.4838   17.6293 S   0  0  2  0  0  0  0  0  0  0  0  0
    8.2923   -8.5073   16.1730 C   0  0  0  0  0  0  0  0  0  0  0  0
    6.4277  -10.3736   16.9826 C   0  0  0  0  0  0  0  0  0  0  0  0
    6.8578  -11.6143   16.2218 C   0  0  1  0  0  0  0  0  0  0  0  0
    7.7348  -11.2740   15.1724 O   0  0  0  0  0  0  0  0  0  0  0  0
    7.6334  -12.5915   17.0832 C   0  0  1  0  0  0  0  0  0  0  0  0
    6.7290  -13.5237   17.6200 O   0  0  0  0  0  0  0  0  0  0  0  0
    8.5808  -13.2535   16.1033 C   0  0  1  0  0  0  0  0  0  0  0  0
    8.0230  -14.5010   15.7562 O   0  0  0  0  0  0  0  0  0  0  0  0
    8.6372  -12.3279   14.8861 C   0  0  2  0  0  0  0  0  0  0  0  0
    6.9006   -6.9059   22.1558 O   0  0  0  0  0  0  0  0  0  0  0  0
   12.5004   -9.8736   17.4297 N   0  0  0  0  0  0  0  0  0  0  0  0
   11.3195  -10.3488   17.9463 C   0  0  0  0  0  0  0  0  0  0  0  0
   10.4198  -10.9706   17.1087 N   0  0  0  0  0  0  0  0  0  0  0  0
   10.6811  -11.1227   15.7910 C   0  0  0  0  0  0  0  0  0  0  0  0
   11.8754  -10.6606   15.2575 C   0  0  0  0  0  0  0  0  0  0  0  0
   12.7910  -10.0203   16.0900 C   0  0  0  0  0  0  0  0  0  0  0  0
   13.9466   -9.5565   15.6135 N   0  0  0  0  0  0  0  0  0  0  0  0
   11.8793  -10.9494   13.9305 N   0  0  0  0  0  0  0  0  0  0  0  0
   10.7263  -11.5923   13.6341 C   0  0  0  0  0  0  0  0  0  0  0  0
    9.9757  -11.7142   14.7775 N   0  0  0  0  0  0  0  0  0  0  0  0
  2  1  1  1  0  0  0
  2  3  1  0  0  0  0
  2  5  1  0  0  0  0
  3  4  1  0  0  0  0
  3 17  1  0  0  0  0
  5  6  1  0  0  0  0
  7  6  1  1  0  0  0
  7  8  1  0  0  0  0
  7  9  1  0  0  0  0
 10  9  1  1  0  0  0
 10 11  1  0  0  0  0
 10 12  1  0  0  0  0
 11 16  1  0  0  0  0
 12 13  1  6  0  0  0
 12 14  1  0  0  0  0
 14 15  1  6  0  0  0
 14 16  1  0  0  0  0
 16 27  1  1  0  0  0
 18 19  2  0  0  0  0
 18 23  1  0  0  0  0
 19 20  1  0  0  0  0
 20 21  2  0  0  0  0
 21 22  1  0  0  0  0
 21 27  1  0  0  0  0
 22 23  2  0  0  0  0
 22 25  1  0  0  0  0
 23 24  1  0  0  0  0
 25 26  2  0  0  0  0
 26 27  1  0  0  0  0
M  END
>  <CHROM.1>
134.20893837,-171.50636285,173.31042884,-74.19535930,-173.42254535,-57.32710541
66.31998423,8.83592922,-10.01020040,17.22704891,-2.05411658,-0.35854829,-2.53371730

>  <Name>
ligand

>  <RI>
0

>  <Rbt.Current_Directory>
/home/itssahil/PROJECTS/Mol_Feturizer/New_Systems/rnas/3GX5

>  <Rbt.Executable>
rbdock ($Id: //depot/dev/client3/rdock/2013.1/src/exe/rbdock.cxx#4 $)

>  <Rbt.Library>
libRbt.so (2013.1, Build901 2013/11/27)

>  <Rbt.Parameter_File>
/export/apps/rDock/src/rDock_2013.1_src/data/scripts/dock_solv.prm

>  <Rbt.Receptor>
prm/blind_docking_40.prm

>  <SCORE>
-10.3435

>  <SCORE.INTER>
-8.53063

>  <SCORE.INTER.CONST>
1

>  <SCORE.INTER.POLAR>
0

>  <SCORE.INTER.ROT>
7

>  <SCORE.INTER.SOLV>
9.42783

>  <SCORE.INTER.VDW>
-17.0964

>  <SCORE.INTER.norm>
-0.315949

>  <SCORE.INTRA>
-1.81285

>  <SCORE.INTRA.DIHEDRAL>
0.306365

>  <SCORE.INTRA.DIHEDRAL.0>
4.28829

>  <SCORE.INTRA.POLAR>
0

>  <SCORE.INTRA.POLAR.0>
0

>  <SCORE.INTRA.REPUL>
0

>  <SCORE.INTRA.REPUL.0>
0

>  <SCORE.INTRA.SOLV>
-0.976797

>  <SCORE.INTRA.SOLV.lig_0>
-48.6018

>  <SCORE.INTRA.VDW>
-1.47763

>  <SCORE.INTRA.VDW.0>
-2.1506

>  <SCORE.INTRA.norm>
-0.0671425

>  <SCORE.RESTR>
0

>  <SCORE.RESTR.CAVITY>
0

>  <SCORE.RESTR.norm>
0

>  <SCORE.SYSTEM>
0

>  <SCORE.SYSTEM.CONST>
0

>  <SCORE.SYSTEM.DIHEDRAL>
0

>  <SCORE.SYSTEM.SOLV>
0

>  <SCORE.SYSTEM.norm>
0

>  <SCORE.heavy>
27

>  <SCORE.norm>
-0.383092

>  <RMSD>
11.849

$$$$
ligand
 OpenBabel11021811483D
libRbt.so/2013.1/901 2013/11/27
 27 29  0  0  0  0  0  0  0  0999 V2000
    7.9813   -6.5197   22.6140 N   0  0  0  0  0  0  0  0  0  0  0  0
    8.2888   -7.8190   23.2151 C   0  0  2  0  0  0  0  0  0  0  0  0
    8.8288   -7.7774   24.6467 C   0  0  0  0  0  0  0  0  0  0  0  0
    9.0163   -8.8386   25.2402 O   0  0  0  0  0  0  0  0  0  0  0  0
    9.2128   -8.6270   22.3194 C   0  0  0  0  0  0  0  0  0  0  0  0
   10.4748   -7.8543   21.9766 C   0  0  0  0  0  0  0  0  0  0  0  0
   11.5936   -8.8668   20.9925 S   0  0  2  0  0  0  0  0  0  0  0  0
   12.3480   -9.8592   22.2983 C   0  0  0  0  0  0  0  0  0  0  0  0
   12.9325   -7.6880   20.6983 C   0  0  0  0  0  0  0  0  0  0  0  0
   14.0682   -8.3391   19.9307 C   0  0  1  0  0  0  0  0  0  0  0  0
   13.5792   -8.9993   18.7857 O   0  0  0  0  0  0  0  0  0  0  0  0
   15.0749   -7.3338   19.4071 C   0  0  1  0  0  0  0  0  0  0  0  0
   16.1053   -7.2040   20.3539 O   0  0  0  0  0  0  0  0  0  0  0  0
   15.5844   -7.9735   18.1315 C   0  0  1  0  0  0  0  0  0  0  0  0
   16.8243   -8.5753   18.4289 O   0  0  0  0  0  0  0  0  0  0  0  0
   14.5464   -9.0314   17.7509 C   0  0  2  0  0  0  0  0  0  0  0  0
    9.0808   -6.7242   25.2385 O   0  0  0  0  0  0  0  0  0  0  0  0
   12.9841  -10.5264   12.9820 N   0  0  0  0  0  0  0  0  0  0  0  0
   13.6474  -11.2738   13.9246 C   0  0  0  0  0  0  0  0  0  0  0  0
   13.9771  -10.6970   15.1314 N   0  0  0  0  0  0  0  0  0  0  0  0
   13.6568   -9.4120   15.4029 C   0  0  0  0  0  0  0  0  0  0  0  0
   12.9748   -8.6489   14.4664 C   0  0  0  0  0  0  0  0  0  0  0  0
   12.6434   -9.2150   13.2372 C   0  0  0  0  0  0  0  0  0  0  0  0
   11.9940   -8.5121   12.3088 N   0  0  0  0  0  0  0  0  0  0  0  0
   12.7772   -7.4148   14.9975 N   0  0  0  0  0  0  0  0  0  0  0  0
   13.3045   -7.4010   16.2435 C   0  0  0  0  0  0  0  0  0  0  0  0
   13.8473   -8.6333   16.5129 N   0  0  0  0  0  0  0  0  0  0  0  0
  2  1  1  6  0  0  0
  2  3  1  0  0  0  0
  2  5  1  0  0  0  0
  3  4  1  0  0  0  0
  3 17  1  0  0  0  0
  5  6  1  0  0  0  0
  7  6  1  1  0  0  0
  7  8  1  0  0  0  0
  7  9  1  0  0  0  0
 10  9  1  6  0  0  0
 10 11  1  0  0  0  0
 10 12  1  0  0  0  0
 11 16  1  0  0  0  0
 12 13  1  1  0  0  0
 12 14  1  0  0  0  0
 14 15  1  1  0  0  0
 14 16  1  0  0  0  0
 16 27  1  6  0  0  0
 18 19  2  0  0  0  0
 18 23  1  0  0  0  0
 19 20  1  0  0  0  0
 20 21  2  0  0  0  0
 21 22  1  0  0  0  0
 21 27  1  0  0  0  0
 22 23  2  0  0  0  0
 22 25  1  0  0  0  0
 23 24  1  0  0  0  0
 25 26  2  0  0  0  0
 26 27  1  0  0  0  0
M  END
>  <CHROM.1>
174.90741708,54.76507732,176.80117976,-80.19160211,176.88648396,50.52273839
-116.29562798,12.44959078,-8.51009236,19.03453657,2.00164010,0.04179924,1.40551470

>  <Name>
ligand

>  <RI>
0

>  <Rbt.Current_Directory>
/home/itssahil/PROJECTS/Mol_Feturizer/New_Systems/rnas/3GX5

>  <Rbt.Executable>
rbdock ($Id: //depot/dev/client3/rdock/2013.1/src/exe/rbdock.cxx#4 $)

>  <Rbt.Library>
libRbt.so (2013.1, Build901 2013/11/27)

>  <Rbt.Parameter_File>
/export/apps/rDock/src/rDock_2013.1_src/data/scripts/dock_solv.prm

>  <Rbt.Receptor>
prm/blind_docking_80.prm

>  <SCORE>
-12.0492

>  <SCORE.INTER>
-12.1392

>  <SCORE.INTER.CONST>
1

>  <SCORE.INTER.POLAR>
0

>  <SCORE.INTER.ROT>
7

>  <SCORE.INTER.SOLV>
7.60676

>  <SCORE.INTER.VDW>
-18.8951

>  <SCORE.INTER.norm>
-0.4496

>  <SCORE.INTRA>
0.0900169

>  <SCORE.INTRA.DIHEDRAL>
0.103205

>  <SCORE.INTRA.DIHEDRAL.0>
4.28829

>  <SCORE.INTRA.POLAR>
0

>  <SCORE.INTRA.POLAR.0>
0

>  <SCORE.INTRA.REPUL>
0

>  <SCORE.INTRA.REPUL.0>
0

>  <SCORE.INTRA.SOLV>
-0.572146

>  <SCORE.INTRA.SOLV.lig_0>
-48.6018

>  <SCORE.INTRA.VDW>
0.324487

>  <SCORE.INTRA.VDW.0>
-2.1506

>  <SCORE.INTRA.norm>
0.00333396

>  <SCORE.RESTR>
0

>  <SCORE.RESTR.CAVITY>
0

>  <SCORE.RESTR.norm>
0

>  <SCORE.SYSTEM>
0

>  <SCORE.SYSTEM.CONST>
0

>  <SCORE.SYSTEM.DIHEDRAL>
0

>  <SCORE.SYSTEM.SOLV>
0

>  <SCORE.SYSTEM.norm>
0

>  <SCORE.heavy>
27

>  <SCORE.norm>
-0.446266

>  <RMSD>
11.861

$$$$
ligand
 OpenBabel11021811483D
libRbt.so/2013.1/901 2013/11/27
 27 29  0  0  0  0  0  0  0  0999 V2000
    7.4818   -4.8274   20.0012 N   0  0  0  0  0  0  0  0  0  0  0  0
    7.5389   -5.0638   18.5573 C   0  0  2  0  0  0  0  0  0  0  0  0
    7.3884   -3.8225   17.6746 C   0  0  0  0  0  0  0  0  0  0  0  0
    6.7525   -2.8619   18.1066 O   0  0  0  0  0  0  0  0  0  0  0  0
    6.5464   -6.1371   18.1428 C   0  0  0  0  0  0  0  0  0  0  0  0
    6.9821   -7.5134   18.6155 C   0  0  0  0  0  0  0  0  0  0  0  0
    5.7613   -8.7582   18.1621 S   0  0  2  0  0  0  0  0  0  0  0  0
    4.6298   -8.6109   19.5611 C   0  0  0  0  0  0  0  0  0  0  0  0
    6.6359  -10.2668   18.6396 C   0  0  0  0  0  0  0  0  0  0  0  0
    7.6600  -10.6544   17.5889 C   0  0  1  0  0  0  0  0  0  0  0  0
    8.6487   -9.6574   17.4676 O   0  0  0  0  0  0  0  0  0  0  0  0
    8.4163  -11.9192   17.9450 C   0  0  1  0  0  0  0  0  0  0  0  0
    7.7533  -13.0116   17.3600 O   0  0  0  0  0  0  0  0  0  0  0  0
    9.7780  -11.7074   17.3151 C   0  0  1  0  0  0  0  0  0  0  0  0
    9.7959  -12.4239   16.1009 O   0  0  0  0  0  0  0  0  0  0  0  0
    9.8902  -10.2031   17.0578 C   0  0  2  0  0  0  0  0  0  0  0  0
    7.8724   -3.7415   16.5424 O   0  0  0  0  0  0  0  0  0  0  0  0
   13.9202   -6.8773   17.3984 N   0  0  0  0  0  0  0  0  0  0  0  0
   13.1394   -7.1459   16.3005 C   0  0  0  0  0  0  0  0  0  0  0  0
   12.1171   -8.0629   16.4093 N   0  0  0  0  0  0  0  0  0  0  0  0
   11.8691   -8.6984   17.5765 C   0  0  0  0  0  0  0  0  0  0  0  0
   12.6402   -8.4272   18.6975 C   0  0  0  0  0  0  0  0  0  0  0  0
   13.6844   -7.5099   18.6005 C   0  0  0  0  0  0  0  0  0  0  0  0
   14.4518   -7.2274   19.6535 N   0  0  0  0  0  0  0  0  0  0  0  0
   12.1728   -9.1891   19.7198 N   0  0  0  0  0  0  0  0  0  0  0  0
   11.1232   -9.9111   19.2641 C   0  0  0  0  0  0  0  0  0  0  0  0
   10.9173   -9.6134   17.9395 N   0  0  0  0  0  0  0  0  0  0  0  0
  2  1  1  1  0  0  0
  2  3  1  0  0  0  0
  2  5  1  0  0  0  0
  3  4  1  0  0  0  0
  3 17  1  0  0  0  0
  5  6  1  0  0  0  0
  7  6  1  1  0  0  0
  7  8  1  0  0  0  0
  7  9  1  0  0  0  0
 10  9  1  1  0  0  0
 10 11  1  0  0  0  0
 10 12  1  0  0  0  0
 11 16  1  0  0  0  0
 12 13  1  6  0  0  0
 12 14  1  0  0  0  0
 14 15  1  6  0  0  0
 14 16  1  0  0  0  0
 16 27  1  1  0  0  0
 18 19  2  0  0  0  0
 18 23  1  0  0  0  0
 19 20  1  0  0  0  0
 20 21  2  0  0  0  0
 21 22  1  0  0  0  0
 21 27  1  0  0  0  0
 22 23  2  0  0  0  0
 22 25  1  0  0  0  0
 23 24  1  0  0  0  0
 25 26  2  0  0  0  0
 26 27  1  0  0  0  0
M  END
>  <CHROM.1>
-27.34289400,-71.12454990,178.01165507,-85.40568499,-79.23125771,62.82255254
-109.72394114,9.19129769,-8.31527905,18.00669157,-2.57376150,-0.03876369
-3.06402152

>  <Name>
ligand

>  <RI>
0

>  <Rbt.Current_Directory>
/home/itssahil/PROJECTS/Mol_Feturizer/New_Systems/rnas/3GX5

>  <Rbt.Executable>
rbdock ($Id: //depot/dev/client3/rdock/2013.1/src/exe/rbdock.cxx#4 $)

>  <Rbt.Library>
libRbt.so (2013.1, Build901 2013/11/27)

>  <Rbt.Parameter_File>
/export/apps/rDock/src/rDock_2013.1_src/data/scripts/dock_solv.prm

>  <Rbt.Receptor>
prm/blind_docking_100.prm

>  <SCORE>
-9.0616

>  <SCORE.INTER>
-8.84862

>  <SCORE.INTER.CONST>
1

>  <SCORE.INTER.POLAR>
0

>  <SCORE.INTER.ROT>
7

>  <SCORE.INTER.SOLV>
11.3725

>  <SCORE.INTER.VDW>
-17.9566

>  <SCORE.INTER.norm>
-0.327727

>  <SCORE.INTRA>
-0.212982

>  <SCORE.INTRA.DIHEDRAL>
0.760507

>  <SCORE.INTRA.DIHEDRAL.0>
4.28829

>  <SCORE.INTRA.POLAR>
0

>  <SCORE.INTRA.POLAR.0>
0

>  <SCORE.INTRA.REPUL>
0

>  <SCORE.INTRA.REPUL.0>
0

>  <SCORE.INTRA.SOLV>
-0.581019

>  <SCORE.INTRA.SOLV.lig_0>
-48.6018

>  <SCORE.INTRA.VDW>
-0.302726

>  <SCORE.INTRA.VDW.0>
-2.1506

>  <SCORE.INTRA.norm>
-0.00788823

>  <SCORE.RESTR>
0

>  <SCORE.RESTR.CAVITY>
0

>  <SCORE.RESTR.norm>
0

>  <SCORE.SYSTEM>
0

>  <SCORE.SYSTEM.CONST>
0

>  <SCORE.SYSTEM.DIHEDRAL>
0

>  <SCORE.SYSTEM.SOLV>
0

>  <SCORE.SYSTEM.norm>
0

>  <SCORE.heavy>
27

>  <SCORE.norm>
-0.335615

>  <RMSD>
11.873

$$$$
ligand
 OpenBabel11021811483D
libRbt.so/2013.1/901 2013/11/27
 27 29  0  0  0  0  0  0  0  0999 V2000
    8.9115   -7.7582   19.0947 N   0  0  0  0  0  0  0  0  0  0  0  0
    7.4753   -7.5091   19.2323 C   0  0  2  0  0  0  0  0  0  0  0  0
    6.8912   -7.7438   20.6275 C   0  0  0  0  0  0  0  0  0  0  0  0
    7.2344   -8.7464   21.2524 O   0  0  0  0  0  0  0  0  0  0  0  0
    6.6873   -8.2805   18.1870 C   0  0  0  0  0  0  0  0  0  0  0  0
    7.0855   -7.8778   16.7775 C   0  0  0  0  0  0  0  0  0  0  0  0
    6.1770   -8.8442   15.5586 S   0  0  2  0  0  0  0  0  0  0  0  0
    4.4840   -8.4750   16.0652 C   0  0  0  0  0  0  0  0  0  0  0  0
    6.3465  -10.5021   16.2595 C   0  0  0  0  0  0  0  0  0  0  0  0
    7.5897  -11.1905   15.7270 C   0  0  1  0  0  0  0  0  0  0  0  0
    8.7239  -10.3727   15.9029 O   0  0  0  0  0  0  0  0  0  0  0  0
    7.9109  -12.4751   16.4653 C   0  0  1  0  0  0  0  0  0  0  0  0
    7.3128  -13.5438   15.7760 O   0  0  0  0  0  0  0  0  0  0  0  0
    9.4222  -12.5575   16.3926 C   0  0  1  0  0  0  0  0  0  0  0  0
    9.7451  -13.4536   15.3530 O   0  0  0  0  0  0  0  0  0  0  0  0
    9.9023  -11.1437   16.0575 C   0  0  2  0  0  0  0  0  0  0  0  0
    6.0841   -6.9738   21.1553 O   0  0  0  0  0  0  0  0  0  0  0  0
   14.4016   -9.0573   17.7370 N   0  0  0  0  0  0  0  0  0  0  0  0
   14.0903   -9.4795   16.4674 C   0  0  0  0  0  0  0  0  0  0  0  0
   12.8421  -10.0074   16.2204 N   0  0  0  0  0  0  0  0  0  0  0  0
   11.9206  -10.1134   17.2038 C   0  0  0  0  0  0  0  0  0  0  0  0
   12.2155   -9.6784   18.4878 C   0  0  0  0  0  0  0  0  0  0  0  0
   13.4773   -9.1517   18.7556 C   0  0  0  0  0  0  0  0  0  0  0  0
   13.8009   -8.7291   19.9781 N   0  0  0  0  0  0  0  0  0  0  0  0
   11.1211   -9.8924   19.2627 N   0  0  0  0  0  0  0  0  0  0  0  0
   10.1527  -10.4326   18.4874 C   0  0  0  0  0  0  0  0  0  0  0  0
   10.6296  -10.5696   17.2070 N   0  0  0  0  0  0  0  0  0  0  0  0
  2  1  1  1  0  0  0
  2  3  1  0  0  0  0
  2  5  1  0  0  0  0
  3  4  1  0  0  0  0
  3 17  1  0  0  0  0
  5  6  1  0  0  0  0
  7  6  1  1  0  0  0
  7  8  1  0  0  0  0
  7  9  1  0  0  0  0
 10  9  1  1  0  0  0
 10 11  1  0  0  0  0
 10 12  1  0  0  0  0
 11 16  1  0  0  0  0
 12 13  1  6  0  0  0
 12 14  1  0  0  0  0
 14 15  1  6  0  0  0
 14 16  1  0  0  0  0
 16 27  1  1  0  0  0
 18 19  2  0  0  0  0
 18 23  1  0  0  0  0
 19 20  1  0  0  0  0
 20 21  2  0  0  0  0
 21 22  1  0  0  0  0
 21 27  1  0  0  0  0
 22 23  2  0  0  0  0
 22 25  1  0  0  0  0
 23 24  1  0  0  0  0
 25 26  2  0  0  0  0
 26 27  1  0  0  0  0
M  END
>  <CHROM.1>
-43.42188046,-60.26183501,178.13706685,56.14328535,-90.15717315,52.35371234
-124.25990671,9.10424127,-9.76796725,17.51425178,-3.08371909,0.13062162,-2.32046061

>  <Name>
ligand

>  <RI>
0

>  <Rbt.Current_Directory>
/home/itssahil/PROJECTS/Mol_Feturizer/New_Systems/rnas/3GX5

>  <Rbt.Executable>
rbdock ($Id: //depot/dev/client3/rdock/2013.1/src/exe/rbdock.cxx#4 $)

>  <Rbt.Library>
libRbt.so (2013.1, Build901 2013/11/27)

>  <Rbt.Parameter_File>
/export/apps/rDock/src/rDock_2013.1_src/data/scripts/dock_solv.prm

>  <Rbt.Receptor>
prm/blind_docking_80.prm

>  <SCORE>
-6.67723

>  <SCORE.INTER>
-8.16904

>  <SCORE.INTER.CONST>
1

>  <SCORE.INTER.POLAR>
0

>  <SCORE.INTER.ROT>
7

>  <SCORE.INTER.SOLV>
8.7889

>  <SCORE.INTER.VDW>
-16.6423

>  <SCORE.INTER.norm>
-0.302557

>  <SCORE.INTRA>
1.49051

>  <SCORE.INTRA.DIHEDRAL>
0.631477

>  <SCORE.INTRA.DIHEDRAL.0>
4.28829

>  <SCORE.INTRA.POLAR>
0

>  <SCORE.INTRA.POLAR.0>
0

>  <SCORE.INTRA.REPUL>
0

>  <SCORE.INTRA.REPUL.0>
0

>  <SCORE.INTRA.SOLV>
0.917728

>  <SCORE.INTRA.SOLV.lig_0>
-48.6018

>  <SCORE.INTRA.VDW>
0.715905

>  <SCORE.INTRA.VDW.0>
-2.1506

>  <SCORE.INTRA.norm>
0.055204

>  <SCORE.RESTR>
0.00130555

>  <SCORE.RESTR.CAVITY>
0.00130555

>  <SCORE.RESTR.norm>
4.83538e-05

>  <SCORE.SYSTEM>
0

>  <SCORE.SYSTEM.CONST>
0

>  <SCORE.SYSTEM.DIHEDRAL>
0

>  <SCORE.SYSTEM.SOLV>
0

>  <SCORE.SYSTEM.norm>
0

>  <SCORE.heavy>
27

>  <SCORE.norm>
-0.247305

>  <RMSD>
11.893

$$$$
ligand
 OpenBabel11021811483D
libRbt.so/2013.1/901 2013/11/27
 27 29  0  0  0  0  0  0  0  0999 V2000
    9.0025   -8.5095   21.3111 N   0  0  0  0  0  0  0  0  0  0  0  0
    8.8222   -8.7296   19.8749 C   0  0  2  0  0  0  0  0  0  0  0  0
    7.5194   -9.4221   19.4674 C   0  0  0  0  0  0  0  0  0  0  0  0
    6.4575   -8.8174   19.6098 O   0  0  0  0  0  0  0  0  0  0  0  0
   10.0195   -9.4531   19.2815 C   0  0  0  0  0  0  0  0  0  0  0  0
   11.2708   -8.5932   19.3274 C   0  0  0  0  0  0  0  0  0  0  0  0
   12.6581   -9.4463   18.5575 S   0  0  2  0  0  0  0  0  0  0  0  0
   13.9900   -8.2906   18.9444 C   0  0  0  0  0  0  0  0  0  0  0  0
   12.3846   -9.0206   16.8218 C   0  0  0  0  0  0  0  0  0  0  0  0
   11.6620  -10.1411   16.0969 C   0  0  1  0  0  0  0  0  0  0  0  0
   10.3693  -10.3234   16.6278 O   0  0  0  0  0  0  0  0  0  0  0  0
   11.4465   -9.8452   14.6257 C   0  0  1  0  0  0  0  0  0  0  0  0
   12.5208  -10.3902   13.9020 O   0  0  0  0  0  0  0  0  0  0  0  0
   10.1523  -10.5652   14.3050 C   0  0  1  0  0  0  0  0  0  0  0  0
   10.4920  -11.7821   13.6792 O   0  0  0  0  0  0  0  0  0  0  0  0
    9.4712  -10.8203   15.6513 C   0  0  2  0  0  0  0  0  0  0  0  0
    7.4834  -10.5659   19.0057 O   0  0  0  0  0  0  0  0  0  0  0  0
    4.3176  -10.8530   16.5776 N   0  0  0  0  0  0  0  0  0  0  0  0
    5.1846  -11.9183   16.5984 C   0  0  0  0  0  0  0  0  0  0  0  0
    6.5179  -11.7070   16.3236 N   0  0  0  0  0  0  0  0  0  0  0  0
    6.9856  -10.4713   16.0376 C   0  0  0  0  0  0  0  0  0  0  0  0
    6.1247   -9.3835   16.0266 C   0  0  0  0  0  0  0  0  0  0  0  0
    4.7715   -9.5828   16.2923 C   0  0  0  0  0  0  0  0  0  0  0  0
    3.9117   -8.5638   16.2846 N   0  0  0  0  0  0  0  0  0  0  0  0
    6.8525   -8.2782   15.7221 N   0  0  0  0  0  0  0  0  0  0  0  0
    8.1428   -8.6523   15.5612 C   0  0  0  0  0  0  0  0  0  0  0  0
    8.2436  -10.0072   15.7604 N   0  0  0  0  0  0  0  0  0  0  0  0
  2  1  1  1  0  0  0
  2  3  1  0  0  0  0
  2  5  1  0  0  0  0
  3  4  1  0  0  0  0
  3 17  1  0  0  0  0
  5  6  1  0  0  0  0
  7  6  1  1  0  0  0
  7  8  1  0  0  0  0
  7  9  1  0  0  0  0
 10  9  1  1  0  0  0
 10 11  1  0  0  0  0
 10 12  1  0  0  0  0
 11 16  1  0  0  0  0
 12 13  1  6  0  0  0
 12 14  1  0  0  0  0
 14 15  1  1  0  0  0
 14 16  1  0  0  0  0
 16 27  1  6  0  0  0
 18 19  2  0  0  0  0
 18 23  1  0  0  0  0
 19 20  1  0  0  0  0
 20 21  2  0  0  0  0
 21 22  1  0  0  0  0
 21 27  1  0  0  0  0
 22 23  2  0  0  0  0
 22 25  1  0  0  0  0
 23 24  1  0  0  0  0
 25 26  2  0  0  0  0
 26 27  1  0  0  0  0
M  END
>  <CHROM.1>
68.44243123,-66.39801263,-177.65884095,-173.47586085,-97.63764604,64.30700279
-120.66322654,9.03262432,-9.77148612,17.06177189,0.09386728,0.04577281,1.25156750

>  <Name>
ligand

>  <RI>
0

>  <Rbt.Current_Directory>
/home/itssahil/PROJECTS/Mol_Feturizer/New_Systems/rnas/3GX5

>  <Rbt.Executable>
rbdock ($Id: //depot/dev/client3/rdock/2013.1/src/exe/rbdock.cxx#4 $)

>  <Rbt.Library>
libRbt.so (2013.1, Build901 2013/11/27)

>  <Rbt.Parameter_File>
/export/apps/rDock/src/rDock_2013.1_src/data/scripts/dock_solv.prm

>  <Rbt.Receptor>
prm/blind_docking_60.prm

>  <SCORE>
-11.9053

>  <SCORE.INTER>
-10.669

>  <SCORE.INTER.CONST>
1

>  <SCORE.INTER.POLAR>
0

>  <SCORE.INTER.ROT>
7

>  <SCORE.INTER.SOLV>
6.52455

>  <SCORE.INTER.VDW>
-17.5542

>  <SCORE.INTER.norm>
-0.395148

>  <SCORE.INTRA>
-1.23627

>  <SCORE.INTRA.DIHEDRAL>
2.10012

>  <SCORE.INTRA.DIHEDRAL.0>
4.28829

>  <SCORE.INTRA.POLAR>
0

>  <SCORE.INTRA.POLAR.0>
0

>  <SCORE.INTRA.REPUL>
0

>  <SCORE.INTRA.REPUL.0>
0

>  <SCORE.INTRA.SOLV>
-0.46008

>  <SCORE.INTRA.SOLV.lig_0>
-48.6018

>  <SCORE.INTRA.VDW>
-2.05629

>  <SCORE.INTRA.VDW.0>
-2.1506

>  <SCORE.INTRA.norm>
-0.0457878

>  <SCORE.RESTR>
0

>  <SCORE.RESTR.CAVITY>
0

>  <SCORE.RESTR.norm>
0

>  <SCORE.SYSTEM>
0

>  <SCORE.SYSTEM.CONST>
0

>  <SCORE.SYSTEM.DIHEDRAL>
0

>  <SCORE.SYSTEM.SOLV>
0

>  <SCORE.SYSTEM.norm>
0

>  <SCORE.heavy>
27

>  <SCORE.norm>
-0.440935

>  <RMSD>
11.919

$$$$
ligand
 OpenBabel11021811483D
libRbt.so/2013.1/901 2013/11/27
 27 29  0  0  0  0  0  0  0  0999 V2000
    6.8899   -7.1769   20.8853 N   0  0  0  0  0  0  0  0  0  0  0  0
    6.4114   -8.3878   20.2156 C   0  0  2  0  0  0  0  0  0  0  0  0
    7.4742   -9.1982   19.4695 C   0  0  0  0  0  0  0  0  0  0  0  0
    7.8499  -10.2667   19.9500 O   0  0  0  0  0  0  0  0  0  0  0  0
    5.2387   -8.0757   19.3011 C   0  0  0  0  0  0  0  0  0  0  0  0
    4.5588   -9.3431   18.8123 C   0  0  0  0  0  0  0  0  0  0  0  0
    5.2755   -9.8889   17.2523 S   0  0  2  0  0  0  0  0  0  0  0  0
    3.7970  -10.5242   16.4339 C   0  0  0  0  0  0  0  0  0  0  0  0
    6.0305  -11.4497   17.7646 C   0  0  0  0  0  0  0  0  0  0  0  0
    6.7767  -12.0945   16.6111 C   0  0  1  0  0  0  0  0  0  0  0  0
    7.6672  -11.1757   16.0204 O   0  0  0  0  0  0  0  0  0  0  0  0
    7.6436  -13.2581   17.0502 C   0  0  1  0  0  0  0  0  0  0  0  0
    6.8973  -14.4415   16.9177 O   0  0  0  0  0  0  0  0  0  0  0  0
    8.7986  -13.2296   16.0697 C   0  0  1  0  0  0  0  0  0  0  0  0
    8.5422  -14.2096   15.0891 O   0  0  0  0  0  0  0  0  0  0  0  0
    8.7882  -11.8296   15.4521 C   0  0  2  0  0  0  0  0  0  0  0  0
    7.9784   -8.8258   18.4066 O   0  0  0  0  0  0  0  0  0  0  0  0
   13.8857  -10.9328   14.6591 N   0  0  0  0  0  0  0  0  0  0  0  0
   13.0573  -11.7705   13.9527 C   0  0  0  0  0  0  0  0  0  0  0  0
   11.7331  -11.8736   14.3182 N   0  0  0  0  0  0  0  0  0  0  0  0
   11.2368  -11.1634   15.3559 C   0  0  0  0  0  0  0  0  0  0  0  0
   12.0579  -10.3028   16.0700 C   0  0  0  0  0  0  0  0  0  0  0  0
   13.4020  -10.1955   15.7189 C   0  0  0  0  0  0  0  0  0  0  0  0
   14.2242   -9.3844   16.3850 N   0  0  0  0  0  0  0  0  0  0  0  0
   11.3076   -9.7183   17.0393 N   0  0  0  0  0  0  0  0  0  0  0  0
   10.0413  -10.1828   16.9320 C   0  0  0  0  0  0  0  0  0  0  0  0
    9.9789  -11.0739   15.8891 N   0  0  0  0  0  0  0  0  0  0  0  0
  2  1  1  6  0  0  0
  2  3  1  0  0  0  0
  2  5  1  0  0  0  0
  3  4  1  0  0  0  0
  3 17  1  0  0  0  0
  5  6  1  0  0  0  0
  7  6  1  1  0  0  0
  7  8  1  0  0  0  0
  7  9  1  0  0  0  0
 10  9  1  1  0  0  0
 10 11  1  0  0  0  0
 10 12  1  0  0  0  0
 11 16  1  0  0  0  0
 12 13  1  6  0  0  0
 12 14  1  0  0  0  0
 14 15  1  6  0  0  0
 14 16  1  0  0  0  0
 16 27  1  1  0  0  0
 18 19  2  0  0  0  0
 18 23  1  0  0  0  0
 19 20  1  0  0  0  0
 20 21  2  0  0  0  0
 21 22  1  0  0  0  0
 21 27  1  0  0  0  0
 22 23  2  0  0  0  0
 22 25  1  0  0  0  0
 23 24  1  0  0  0  0
 25 26  2  0  0  0  0
 26 27  1  0  0  0  0
M  END
>  <CHROM.1>
107.00112404,-168.82522034,-91.44542591,-143.93741485,-177.29431395,51.57579183
-164.76318328,8.53552990,-10.72173276,17.00439378,-2.70555752,-0.25197207
-2.50184837

>  <Name>
ligand

>  <RI>
0

>  <Rbt.Current_Directory>
/home/itssahil/PROJECTS/Mol_Feturizer/New_Systems/rnas/3GX5

>  <Rbt.Executable>
rbdock ($Id: //depot/dev/client3/rdock/2013.1/src/exe/rbdock.cxx#4 $)

>  <Rbt.Library>
libRbt.so (2013.1, Build901 2013/11/27)

>  <Rbt.Parameter_File>
/export/apps/rDock/src/rDock_2013.1_src/data/scripts/dock_solv.prm

>  <Rbt.Receptor>
prm/blind_docking_80.prm

>  <SCORE>
-12.2848

>  <SCORE.INTER>
-13.4537

>  <SCORE.INTER.CONST>
1

>  <SCORE.INTER.POLAR>
0

>  <SCORE.INTER.ROT>
7

>  <SCORE.INTER.SOLV>
10.8814

>  <SCORE.INTER.VDW>
-20.8629

>  <SCORE.INTER.norm>
-0.498285

>  <SCORE.INTRA>
1.16889

>  <SCORE.INTRA.DIHEDRAL>
6.75246

>  <SCORE.INTRA.DIHEDRAL.0>
4.28829

>  <SCORE.INTRA.POLAR>
0

>  <SCORE.INTRA.POLAR.0>
0

>  <SCORE.INTRA.REPUL>
0

>  <SCORE.INTRA.REPUL.0>
0

>  <SCORE.INTRA.SOLV>
-1.15728

>  <SCORE.INTRA.SOLV.lig_0>
-48.6018

>  <SCORE.INTRA.VDW>
-1.6287

>  <SCORE.INTRA.VDW.0>
-2.1506

>  <SCORE.INTRA.norm>
0.0432921

>  <SCORE.RESTR>
0

>  <SCORE.RESTR.CAVITY>
0

>  <SCORE.RESTR.norm>
0

>  <SCORE.SYSTEM>
0

>  <SCORE.SYSTEM.CONST>
0

>  <SCORE.SYSTEM.DIHEDRAL>
0

>  <SCORE.SYSTEM.SOLV>
0

>  <SCORE.SYSTEM.norm>
0

>  <SCORE.heavy>
27

>  <SCORE.norm>
-0.454993

>  <RMSD>
11.959

$$$$
ligand
 OpenBabel11021811483D
libRbt.so/2013.1/901 2013/11/27
 27 29  0  0  0  0  0  0  0  0999 V2000
    6.8106  -17.1084   20.9205 N   0  0  0  0  0  0  0  0  0  0  0  0
    7.8313  -16.3970   20.1486 C   0  0  2  0  0  0  0  0  0  0  0  0
    8.8049  -15.5424   20.9638 C   0  0  0  0  0  0  0  0  0  0  0  0
    9.9240  -15.9906   21.2097 O   0  0  0  0  0  0  0  0  0  0  0  0
    7.1983  -15.5738   19.0394 C   0  0  0  0  0  0  0  0  0  0  0  0
    8.2497  -14.9100   18.1668 C   0  0  0  0  0  0  0  0  0  0  0  0
    7.4749  -13.8759   16.9117 S   0  0  2  0  0  0  0  0  0  0  0  0
    6.9099  -15.1485   15.7626 C   0  0  0  0  0  0  0  0  0  0  0  0
    8.9345  -13.2909   16.0195 C   0  0  0  0  0  0  0  0  0  0  0  0
    9.2098  -11.8311   16.3299 C   0  0  1  0  0  0  0  0  0  0  0  0
   10.5724  -11.6363   16.6326 O   0  0  0  0  0  0  0  0  0  0  0  0
    8.9326  -10.9182   15.1518 C   0  0  1  0  0  0  0  0  0  0  0  0
    7.6133  -10.4459   15.2578 O   0  0  0  0  0  0  0  0  0  0  0  0
    9.9306   -9.7924   15.3330 C   0  0  1  0  0  0  0  0  0  0  0  0
    9.2424   -8.7106   15.9195 O   0  0  0  0  0  0  0  0  0  0  0  0
   11.0016  -10.3321   16.2834 C   0  0  2  0  0  0  0  0  0  0  0  0
    8.5169  -14.4218   21.3929 O   0  0  0  0  0  0  0  0  0  0  0  0
   16.1511   -9.3847   16.3419 N   0  0  0  0  0  0  0  0  0  0  0  0
   15.2241   -9.0651   17.3041 C   0  0  0  0  0  0  0  0  0  0  0  0
   13.9029   -9.3996   17.1038 N   0  0  0  0  0  0  0  0  0  0  0  0
   13.5058  -10.0381   15.9804 C   0  0  0  0  0  0  0  0  0  0  0  0
   14.4324  -10.3799   15.0061 C   0  0  0  0  0  0  0  0  0  0  0  0
   15.7709  -10.0391   15.1895 C   0  0  0  0  0  0  0  0  0  0  0  0
   16.6901  -10.3444   14.2733 N   0  0  0  0  0  0  0  0  0  0  0  0
   13.7699  -11.0121   14.0033 N   0  0  0  0  0  0  0  0  0  0  0  0
   12.4615  -11.0843   14.3403 C   0  0  0  0  0  0  0  0  0  0  0  0
   12.2821  -10.4916   15.5659 N   0  0  0  0  0  0  0  0  0  0  0  0
  2  1  1  1  0  0  0
  2  3  1  0  0  0  0
  2  5  1  0  0  0  0
  3  4  1  0  0  0  0
  3 17  1  0  0  0  0
  5  6  1  0  0  0  0
  7  6  1  1  0  0  0
  7  8  1  0  0  0  0
  7  9  1  0  0  0  0
 10  9  1  6  0  0  0
 10 11  1  0  0  0  0
 10 12  1  0  0  0  0
 11 16  1  0  0  0  0
 12 13  1  1  0  0  0
 12 14  1  0  0  0  0
 14 15  1  1  0  0  0
 14 16  1  0  0  0  0
 16 27  1  6  0  0  0
 18 19  2  0  0  0  0
 18 23  1  0  0  0  0
 19 20  1  0  0  0  0
 20 21  2  0  0  0  0
 21 22  1  0  0  0  0
 21 27  1  0  0  0  0
 22 23  2  0  0  0  0
 22 25  1  0  0  0  0
 23 24  1  0  0  0  0
 25 26  2  0  0  0  0
 26 27  1  0  0  0  0
M  END
>  <CHROM.1>
100.41783368,-175.86275841,-177.18616855,-76.16488969,-106.87126882,132.76200312
-115.55784266,10.52425507,-12.24690737,16.95345358,-2.36797872,-0.24803480
-0.86181968

>  <Name>
ligand

>  <RI>
0

>  <Rbt.Current_Directory>
/home/itssahil/PROJECTS/Mol_Feturizer/New_Systems/rnas/3GX5

>  <Rbt.Executable>
rbdock ($Id: //depot/dev/client3/rdock/2013.1/src/exe/rbdock.cxx#4 $)

>  <Rbt.Library>
libRbt.so (2013.1, Build901 2013/11/27)

>  <Rbt.Parameter_File>
/export/apps/rDock/src/rDock_2013.1_src/data/scripts/dock_solv.prm

>  <Rbt.Receptor>
prm/blind_docking_100.prm

>  <SCORE>
-14.2083

>  <SCORE.INTER>
-17.3936

>  <SCORE.INTER.CONST>
1

>  <SCORE.INTER.POLAR>
0

>  <SCORE.INTER.ROT>
7

>  <SCORE.INTER.SOLV>
18.5928

>  <SCORE.INTER.VDW>
-26.06

>  <SCORE.INTER.norm>
-0.644208

>  <SCORE.INTRA>
3.18536

>  <SCORE.INTRA.DIHEDRAL>
7.06945

>  <SCORE.INTRA.DIHEDRAL.0>
4.28829

>  <SCORE.INTRA.POLAR>
0

>  <SCORE.INTRA.POLAR.0>
0

>  <SCORE.INTRA.REPUL>
0

>  <SCORE.INTRA.REPUL.0>
0

>  <SCORE.INTRA.SOLV>
-1.33929

>  <SCORE.INTRA.SOLV.lig_0>
-48.6018

>  <SCORE.INTRA.VDW>
0.320282

>  <SCORE.INTRA.VDW.0>
-2.1506

>  <SCORE.INTRA.norm>
0.117976

>  <SCORE.RESTR>
0

>  <SCORE.RESTR.CAVITY>
0

>  <SCORE.RESTR.norm>
0

>  <SCORE.SYSTEM>
0

>  <SCORE.SYSTEM.CONST>
0

>  <SCORE.SYSTEM.DIHEDRAL>
0

>  <SCORE.SYSTEM.SOLV>
0

>  <SCORE.SYSTEM.norm>
0

>  <SCORE.heavy>
27

>  <SCORE.norm>
-0.526232

>  <RMSD>
11.971

$$$$
ligand
 OpenBabel11021811483D
libRbt.so/2013.1/901 2013/11/27
 27 29  0  0  0  0  0  0  0  0999 V2000
   11.8631   -7.6229   22.9696 N   0  0  0  0  0  0  0  0  0  0  0  0
   11.1381   -8.3898   21.9546 C   0  0  2  0  0  0  0  0  0  0  0  0
   10.0077   -9.2801   22.4766 C   0  0  0  0  0  0  0  0  0  0  0  0
    8.9415   -9.3045   21.8632 O   0  0  0  0  0  0  0  0  0  0  0  0
   12.0972   -9.1946   21.0937 C   0  0  0  0  0  0  0  0  0  0  0  0
   13.0523   -8.2938   20.3297 C   0  0  0  0  0  0  0  0  0  0  0  0
   14.1923   -9.2721   19.3355 S   0  0  2  0  0  0  0  0  0  0  0  0
   15.6095   -8.1546   19.2935 C   0  0  0  0  0  0  0  0  0  0  0  0
   13.5255   -8.9753   17.6814 C   0  0  0  0  0  0  0  0  0  0  0  0
   12.1652   -9.6287   17.5207 C   0  0  1  0  0  0  0  0  0  0  0  0
   11.1684   -8.8636   18.1588 O   0  0  0  0  0  0  0  0  0  0  0  0
   11.7257   -9.7208   16.0727 C   0  0  1  0  0  0  0  0  0  0  0  0
   12.1220  -10.9711   15.5680 O   0  0  0  0  0  0  0  0  0  0  0  0
   10.2160   -9.6192   16.1532 C   0  0  1  0  0  0  0  0  0  0  0  0
    9.7006  -10.9280   16.0562 O   0  0  0  0  0  0  0  0  0  0  0  0
    9.9101   -9.0171   17.5262 C   0  0  2  0  0  0  0  0  0  0  0  0
   10.1141   -9.9737   23.4916 O   0  0  0  0  0  0  0  0  0  0  0  0
    7.3931   -5.0705   19.8730 N   0  0  0  0  0  0  0  0  0  0  0  0
    7.7864   -6.2658   20.4241 C   0  0  0  0  0  0  0  0  0  0  0  0
    8.4420   -7.1869   19.6370 N   0  0  0  0  0  0  0  0  0  0  0  0
    8.7062   -6.9327   18.3358 C   0  0  0  0  0  0  0  0  0  0  0  0
    8.3276   -5.7245   17.7688 C   0  0  0  0  0  0  0  0  0  0  0  0
    7.6546   -4.7869   18.5493 C   0  0  0  0  0  0  0  0  0  0  0  0
    7.2686   -3.6171   18.0391 N   0  0  0  0  0  0  0  0  0  0  0  0
    8.7201   -5.7322   16.4688 N   0  0  0  0  0  0  0  0  0  0  0  0
    9.3456   -6.9064   16.2227 C   0  0  0  0  0  0  0  0  0  0  0  0
    9.3518   -7.6590   17.3712 N   0  0  0  0  0  0  0  0  0  0  0  0
  2  1  1  1  0  0  0
  2  3  1  0  0  0  0
  2  5  1  0  0  0  0
  3  4  1  0  0  0  0
  3 17  1  0  0  0  0
  5  6  1  0  0  0  0
  7  6  1  1  0  0  0
  7  8  1  0  0  0  0
  7  9  1  0  0  0  0
 10  9  1  6  0  0  0
 10 11  1  0  0  0  0
 10 12  1  0  0  0  0
 11 16  1  0  0  0  0
 12 13  1  1  0  0  0
 12 14  1  0  0  0  0
 14 15  1  1  0  0  0
 14 16  1  0  0  0  0
 16 27  1  6  0  0  0
 18 19  2  0  0  0  0
 18 23  1  0  0  0  0
 19 20  1  0  0  0  0
 20 21  2  0  0  0  0
 21 22  1  0  0  0  0
 21 27  1  0  0  0  0
 22 23  2  0  0  0  0
 22 25  1  0  0  0  0
 23 24  1  0  0  0  0
 25 26  2  0  0  0  0
 26 27  1  0  0  0  0
M  END
>  <CHROM.1>
136.85145396,-62.21859979,179.21835167,-151.68699728,-68.27285962,77.45393385
-81.00516886,10.62664503,-8.17509845,18.93363942,0.04746377,-0.62010391,1.49649282

>  <Name>
ligand

>  <RI>
0

>  <Rbt.Current_Directory>
/home/itssahil/PROJECTS/Mol_Feturizer/New_Systems/rnas/3GX5

>  <Rbt.Executable>
rbdock ($Id: //depot/dev/client3/rdock/2013.1/src/exe/rbdock.cxx#4 $)

>  <Rbt.Library>
libRbt.so (2013.1, Build901 2013/11/27)

>  <Rbt.Parameter_File>
/export/apps/rDock/src/rDock_2013.1_src/data/scripts/dock_solv.prm

>  <Rbt.Receptor>
prm/blind_docking_80.prm

>  <SCORE>
-10.5024

>  <SCORE.INTER>
-10.8618

>  <SCORE.INTER.CONST>
1

>  <SCORE.INTER.POLAR>
0

>  <SCORE.INTER.ROT>
7

>  <SCORE.INTER.SOLV>
8.51834

>  <SCORE.INTER.VDW>
-18.3473

>  <SCORE.INTER.norm>
-0.402291

>  <SCORE.INTRA>
0.359473

>  <SCORE.INTRA.DIHEDRAL>
3.23522

>  <SCORE.INTRA.DIHEDRAL.0>
4.28829

>  <SCORE.INTRA.POLAR>
0

>  <SCORE.INTRA.POLAR.0>
0

>  <SCORE.INTRA.REPUL>
0

>  <SCORE.INTRA.REPUL.0>
0

>  <SCORE.INTRA.SOLV>
-0.404204

>  <SCORE.INTRA.SOLV.lig_0>
-48.6018

>  <SCORE.INTRA.VDW>
-1.05603

>  <SCORE.INTRA.VDW.0>
-2.1506

>  <SCORE.INTRA.norm>
0.0133138

>  <SCORE.RESTR>
0

>  <SCORE.RESTR.CAVITY>
0

>  <SCORE.RESTR.norm>
0

>  <SCORE.SYSTEM>
0

>  <SCORE.SYSTEM.CONST>
0

>  <SCORE.SYSTEM.DIHEDRAL>
0

>  <SCORE.SYSTEM.SOLV>
0

>  <SCORE.SYSTEM.norm>
0

>  <SCORE.heavy>
27

>  <SCORE.norm>
-0.388977

>  <RMSD>
11.989

$$$$
ligand
 OpenBabel11021811483D
libRbt.so/2013.1/901 2013/11/27
 27 29  0  0  0  0  0  0  0  0999 V2000
   11.7429   -9.1652   14.9246 N   0  0  0  0  0  0  0  0  0  0  0  0
   11.0687  -10.4639   14.9781 C   0  0  2  0  0  0  0  0  0  0  0  0
   11.4367  -11.4496   13.8665 C   0  0  0  0  0  0  0  0  0  0  0  0
   11.8054  -12.5817   14.1767 O   0  0  0  0  0  0  0  0  0  0  0  0
    9.5614  -10.2906   15.0605 C   0  0  0  0  0  0  0  0  0  0  0  0
    8.8539  -11.6248   15.2240 C   0  0  0  0  0  0  0  0  0  0  0  0
    9.2530  -12.3660   16.8166 S   0  0  2  0  0  0  0  0  0  0  0  0
    8.3029  -13.8964   16.6965 C   0  0  0  0  0  0  0  0  0  0  0  0
    8.1622  -11.4188   17.9037 C   0  0  0  0  0  0  0  0  0  0  0  0
    8.9560  -10.4359   18.7443 C   0  0  1  0  0  0  0  0  0  0  0  0
    9.4185   -9.3657   17.9524 O   0  0  0  0  0  0  0  0  0  0  0  0
    8.1237   -9.7896   19.8342 C   0  0  1  0  0  0  0  0  0  0  0  0
    8.2683  -10.5462   21.0097 O   0  0  0  0  0  0  0  0  0  0  0  0
    8.7468   -8.4171   19.9895 C   0  0  1  0  0  0  0  0  0  0  0  0
    9.5960   -8.4655   21.1140 O   0  0  0  0  0  0  0  0  0  0  0  0
    9.5534   -8.1772   18.7116 C   0  0  2  0  0  0  0  0  0  0  0  0
   11.3861  -11.1591   12.6683 O   0  0  0  0  0  0  0  0  0  0  0  0
    7.1257   -3.5395   18.8398 N   0  0  0  0  0  0  0  0  0  0  0  0
    7.6137   -4.2651   19.8992 C   0  0  0  0  0  0  0  0  0  0  0  0
    8.2254   -5.4763   19.6612 N   0  0  0  0  0  0  0  0  0  0  0  0
    8.3551   -5.9592   18.4052 C   0  0  0  0  0  0  0  0  0  0  0  0
    7.8797   -5.2314   17.3240 C   0  0  0  0  0  0  0  0  0  0  0  0
    7.2494   -4.0094   17.5495 C   0  0  0  0  0  0  0  0  0  0  0  0
    6.7735   -3.2838   16.5373 N   0  0  0  0  0  0  0  0  0  0  0  0
    8.1470   -5.9377   16.1954 N   0  0  0  0  0  0  0  0  0  0  0  0
    8.7895   -7.0744   16.5498 C   0  0  0  0  0  0  0  0  0  0  0  0
    8.9328   -7.0998   17.9152 N   0  0  0  0  0  0  0  0  0  0  0  0
  2  1  1  6  0  0  0
  2  3  1  0  0  0  0
  2  5  1  0  0  0  0
  3  4  1  0  0  0  0
  3 17  1  0  0  0  0
  5  6  1  0  0  0  0
  7  6  1  6  0  0  0
  7  8  1  0  0  0  0
  7  9  1  0  0  0  0
 10  9  1  6  0  0  0
 10 11  1  0  0  0  0
 10 12  1  0  0  0  0
 11 16  1  0  0  0  0
 12 13  1  1  0  0  0
 12 14  1  0  0  0  0
 14 15  1  1  0  0  0
 14 16  1  0  0  0  0
 16 27  1  6  0  0  0
 18 19  2  0  0  0  0
 18 23  1  0  0  0  0
 19 20  1  0  0  0  0
 20 21  2  0  0  0  0
 21 22  1  0  0  0  0
 21 27  1  0  0  0  0
 22 23  2  0  0  0  0
 22 25  1  0  0  0  0
 23 24  1  0  0  0  0
 25 26  2  0  0  0  0
 26 27  1  0  0  0  0
M  END
>  <CHROM.1>
127.28796999,-175.63514773,66.36706016,-179.39717401,-107.35478677,72.44816757
152.06175193,9.05955731,-8.86832137,17.31643660,-0.55170296,1.20219690,-0.53492210

>  <Name>
ligand

>  <RI>
0

>  <Rbt.Current_Directory>
/home/itssahil/PROJECTS/Mol_Feturizer/New_Systems/rnas/3GX5

>  <Rbt.Executable>
rbdock ($Id: //depot/dev/client3/rdock/2013.1/src/exe/rbdock.cxx#4 $)

>  <Rbt.Library>
libRbt.so (2013.1, Build901 2013/11/27)

>  <Rbt.Parameter_File>
/export/apps/rDock/src/rDock_2013.1_src/data/scripts/dock_solv.prm

>  <Rbt.Receptor>
prm/blind_docking_60.prm

>  <SCORE>
-11.6895

>  <SCORE.INTER>
-12.1779

>  <SCORE.INTER.CONST>
1

>  <SCORE.INTER.POLAR>
0

>  <SCORE.INTER.ROT>
7

>  <SCORE.INTER.SOLV>
12.3764

>  <SCORE.INTER.VDW>
-20.5107

>  <SCORE.INTER.norm>
-0.451032

>  <SCORE.INTRA>
0.488366

>  <SCORE.INTRA.DIHEDRAL>
3.30766

>  <SCORE.INTRA.DIHEDRAL.0>
4.28829

>  <SCORE.INTRA.POLAR>
0

>  <SCORE.INTRA.POLAR.0>
0

>  <SCORE.INTRA.REPUL>
0

>  <SCORE.INTRA.REPUL.0>
0

>  <SCORE.INTRA.SOLV>
-0.415311

>  <SCORE.INTRA.SOLV.lig_0>
-48.6018

>  <SCORE.INTRA.VDW>
-0.957808

>  <SCORE.INTRA.VDW.0>
-2.1506

>  <SCORE.INTRA.norm>
0.0180876

>  <SCORE.RESTR>
0

>  <SCORE.RESTR.CAVITY>
0

>  <SCORE.RESTR.norm>
0

>  <SCORE.SYSTEM>
0

>  <SCORE.SYSTEM.CONST>
0

>  <SCORE.SYSTEM.DIHEDRAL>
0

>  <SCORE.SYSTEM.SOLV>
0

>  <SCORE.SYSTEM.norm>
0

>  <SCORE.heavy>
27

>  <SCORE.norm>
-0.432945

>  <RMSD>
12.031

$$$$
ligand
 OpenBabel11021811483D
libRbt.so/2013.1/901 2013/11/27
 27 29  0  0  0  0  0  0  0  0999 V2000
    8.7046   -4.1383   22.8125 N   0  0  0  0  0  0  0  0  0  0  0  0
    7.8758   -5.0381   22.0079 C   0  0  2  0  0  0  0  0  0  0  0  0
    6.8120   -5.8260   22.7762 C   0  0  0  0  0  0  0  0  0  0  0  0
    7.1755   -6.6576   23.6070 O   0  0  0  0  0  0  0  0  0  0  0  0
    8.7380   -5.9744   21.1780 C   0  0  0  0  0  0  0  0  0  0  0  0
    7.9059   -6.7653   20.1833 C   0  0  0  0  0  0  0  0  0  0  0  0
    8.9556   -7.8344   19.1830 S   0  0  2  0  0  0  0  0  0  0  0  0
    7.6995   -8.8880   18.4272 C   0  0  0  0  0  0  0  0  0  0  0  0
    9.5757   -8.9659   20.4494 C   0  0  0  0  0  0  0  0  0  0  0  0
   10.9791   -9.4366   20.1146 C   0  0  1  0  0  0  0  0  0  0  0  0
   11.0391   -9.9169   18.7910 O   0  0  0  0  0  0  0  0  0  0  0  0
   12.0029   -8.3202   20.1762 C   0  0  1  0  0  0  0  0  0  0  0  0
   12.5694   -8.3088   21.4623 O   0  0  0  0  0  0  0  0  0  0  0  0
   13.0268   -8.7200   19.1333 C   0  0  1  0  0  0  0  0  0  0  0  0
   14.1098   -9.3140   19.8131 O   0  0  0  0  0  0  0  0  0  0  0  0
   12.3285   -9.7400   18.2314 C   0  0  2  0  0  0  0  0  0  0  0  0
    5.6012   -5.6697   22.5968 O   0  0  0  0  0  0  0  0  0  0  0  0
   12.3348  -10.6795   13.0801 N   0  0  0  0  0  0  0  0  0  0  0  0
   12.5730  -11.5689   14.0995 C   0  0  0  0  0  0  0  0  0  0  0  0
   12.5276  -11.1268   15.4034 N   0  0  0  0  0  0  0  0  0  0  0  0
   12.2503   -9.8362   15.6948 C   0  0  0  0  0  0  0  0  0  0  0  0
   11.9938   -8.9293   14.6768 C   0  0  0  0  0  0  0  0  0  0  0  0
   12.0462   -9.3591   13.3524 C   0  0  0  0  0  0  0  0  0  0  0  0
   11.8123   -8.5164   12.3460 N   0  0  0  0  0  0  0  0  0  0  0  0
   11.7398   -7.7230   15.2464 N   0  0  0  0  0  0  0  0  0  0  0  0
   11.8163   -7.8650   16.5897 C   0  0  0  0  0  0  0  0  0  0  0  0
   12.1249   -9.1701   16.8846 N   0  0  0  0  0  0  0  0  0  0  0  0
  2  1  1  1  0  0  0
  2  3  1  0  0  0  0
  2  5  1  0  0  0  0
  3  4  1  0  0  0  0
  3 17  1  0  0  0  0
  5  6  1  0  0  0  0
  7  6  1  1  0  0  0
  7  8  1  0  0  0  0
  7  9  1  0  0  0  0
 10  9  1  6  0  0  0
 10 11  1  0  0  0  0
 10 12  1  0  0  0  0
 11 16  1  0  0  0  0
 12 13  1  1  0  0  0
 12 14  1  0  0  0  0
 14 15  1  1  0  0  0
 14 16  1  0  0  0  0
 16 27  1  6  0  0  0
 18 19  2  0  0  0  0
 18 23  1  0  0  0  0
 19 20  1  0  0  0  0
 20 21  2  0  0  0  0
 21 22  1  0  0  0  0
 21 27  1  0  0  0  0
 22 23  2  0  0  0  0
 22 25  1  0  0  0  0
 23 24  1  0  0  0  0
 25 26  2  0  0  0  0
 26 27  1  0  0  0  0
M  END
>  <CHROM.1>
-65.14354481,-171.27378660,178.49619579,167.06164323,-148.16449420,-50.54503980
-104.86517625,10.47945556,-8.26057180,18.61205522,-2.14651677,0.46882494
-1.74400297

>  <Name>
ligand

>  <RI>
0

>  <Rbt.Current_Directory>
/home/itssahil/PROJECTS/Mol_Feturizer/New_Systems/rnas/3GX5

>  <Rbt.Executable>
rbdock ($Id: //depot/dev/client3/rdock/2013.1/src/exe/rbdock.cxx#4 $)

>  <Rbt.Library>
libRbt.so (2013.1, Build901 2013/11/27)

>  <Rbt.Parameter_File>
/export/apps/rDock/src/rDock_2013.1_src/data/scripts/dock_solv.prm

>  <Rbt.Receptor>
prm/blind_docking_40.prm

>  <SCORE>
-4.82784

>  <SCORE.INTER>
-5.4141

>  <SCORE.INTER.CONST>
1

>  <SCORE.INTER.POLAR>
0

>  <SCORE.INTER.ROT>
7

>  <SCORE.INTER.SOLV>
5.50831

>  <SCORE.INTER.VDW>
-13.7122

>  <SCORE.INTER.norm>
-0.200522

>  <SCORE.INTRA>
0.586266

>  <SCORE.INTRA.DIHEDRAL>
3.11377

>  <SCORE.INTRA.DIHEDRAL.0>
4.28829

>  <SCORE.INTRA.POLAR>
0

>  <SCORE.INTRA.POLAR.0>
0

>  <SCORE.INTRA.REPUL>
0

>  <SCORE.INTRA.REPUL.0>
0

>  <SCORE.INTRA.SOLV>
-1.09476

>  <SCORE.INTRA.SOLV.lig_0>
-48.6018

>  <SCORE.INTRA.VDW>
-0.423241

>  <SCORE.INTRA.VDW.0>
-2.1506

>  <SCORE.INTRA.norm>
0.0217136

>  <SCORE.RESTR>
0

>  <SCORE.RESTR.CAVITY>
0

>  <SCORE.RESTR.norm>
0

>  <SCORE.SYSTEM>
0

>  <SCORE.SYSTEM.CONST>
0

>  <SCORE.SYSTEM.DIHEDRAL>
0

>  <SCORE.SYSTEM.SOLV>
0

>  <SCORE.SYSTEM.norm>
0

>  <SCORE.heavy>
27

>  <SCORE.norm>
-0.178809

>  <RMSD>
12.047

$$$$
ligand
 OpenBabel11021811483D
libRbt.so/2013.1/901 2013/11/27
 27 29  0  0  0  0  0  0  0  0999 V2000
   12.1599   -7.3090   23.5965 N   0  0  0  0  0  0  0  0  0  0  0  0
   10.6968   -7.3268   23.5430 C   0  0  2  0  0  0  0  0  0  0  0  0
   10.0200   -8.4957   24.2629 C   0  0  0  0  0  0  0  0  0  0  0  0
    8.8097   -8.4391   24.4766 O   0  0  0  0  0  0  0  0  0  0  0  0
   10.2041   -7.2256   22.1092 C   0  0  0  0  0  0  0  0  0  0  0  0
   10.8863   -8.2432   21.2111 C   0  0  0  0  0  0  0  0  0  0  0  0
    9.9582   -8.4676   19.6836 S   0  0  2  0  0  0  0  0  0  0  0  0
    8.7559   -9.7002   20.2261 C   0  0  0  0  0  0  0  0  0  0  0  0
   11.0904   -9.5356   18.7637 C   0  0  0  0  0  0  0  0  0  0  0  0
   11.8887   -8.7343   17.7519 C   0  0  1  0  0  0  0  0  0  0  0  0
   12.8609   -7.9455   18.3989 O   0  0  0  0  0  0  0  0  0  0  0  0
   12.6673   -9.6115   16.7913 C   0  0  1  0  0  0  0  0  0  0  0  0
   11.8796   -9.8237   15.6470 O   0  0  0  0  0  0  0  0  0  0  0  0
   13.8909   -8.7798   16.4641 C   0  0  1  0  0  0  0  0  0  0  0  0
   13.6625   -8.1693   15.2138 O   0  0  0  0  0  0  0  0  0  0  0  0
   13.9894   -7.7276   17.5706 C   0  0  2  0  0  0  0  0  0  0  0  0
   10.6351   -9.4946   24.6459 O   0  0  0  0  0  0  0  0  0  0  0  0
   18.7191   -9.9604   17.8198 N   0  0  0  0  0  0  0  0  0  0  0  0
   17.8595   -9.9240   16.7489 C   0  0  0  0  0  0  0  0  0  0  0  0
   16.6471   -9.2833   16.8801 N   0  0  0  0  0  0  0  0  0  0  0  0
   16.2922   -8.6892   18.0415 C   0  0  0  0  0  0  0  0  0  0  0  0
   17.1556   -8.7057   19.1272 C   0  0  0  0  0  0  0  0  0  0  0  0
   18.3811   -9.3587   19.0133 C   0  0  0  0  0  0  0  0  0  0  0  0
   19.2351   -9.4020   20.0363 N   0  0  0  0  0  0  0  0  0  0  0  0
   16.5576   -8.0362   20.1462 N   0  0  0  0  0  0  0  0  0  0  0  0
   15.3551   -7.5926   19.7130 C   0  0  0  0  0  0  0  0  0  0  0  0
   15.1782   -7.9827   18.4083 N   0  0  0  0  0  0  0  0  0  0  0  0
  2  1  1  6  0  0  0
  2  3  1  0  0  0  0
  2  5  1  0  0  0  0
  3  4  1  0  0  0  0
  3 17  1  0  0  0  0
  5  6  1  0  0  0  0
  7  6  1  1  0  0  0
  7  8  1  0  0  0  0
  7  9  1  0  0  0  0
 10  9  1  1  0  0  0
 10 11  1  0  0  0  0
 10 12  1  0  0  0  0
 11 16  1  0  0  0  0
 12 13  1  6  0  0  0
 12 14  1  0  0  0  0
 14 15  1  6  0  0  0
 14 16  1  0  0  0  0
 16 27  1  1  0  0  0
 18 19  2  0  0  0  0
 18 23  1  0  0  0  0
 19 20  1  0  0  0  0
 20 21  2  0  0  0  0
 21 22  1  0  0  0  0
 21 27  1  0  0  0  0
 22 23  2  0  0  0  0
 22 25  1  0  0  0  0
 23 24  1  0  0  0  0
 25 26  2  0  0  0  0
 26 27  1  0  0  0  0
M  END
>  <CHROM.1>
166.30079779,50.65468841,162.34541888,-84.97696530,-100.25282219,72.84522632
136.19100959,13.24674563,-8.66059999,19.52168302,-2.50996075,0.02339610,-1.67239254

>  <Name>
ligand

>  <RI>
0

>  <Rbt.Current_Directory>
/home/itssahil/PROJECTS/Mol_Feturizer/New_Systems/rnas/3GX5

>  <Rbt.Executable>
rbdock ($Id: //depot/dev/client3/rdock/2013.1/src/exe/rbdock.cxx#4 $)

>  <Rbt.Library>
libRbt.so (2013.1, Build901 2013/11/27)

>  <Rbt.Parameter_File>
/export/apps/rDock/src/rDock_2013.1_src/data/scripts/dock_solv.prm

>  <Rbt.Receptor>
prm/blind_docking_40.prm

>  <SCORE>
-9.88717

>  <SCORE.INTER>
-11.9582

>  <SCORE.INTER.CONST>
1

>  <SCORE.INTER.POLAR>
0

>  <SCORE.INTER.ROT>
7

>  <SCORE.INTER.SOLV>
16.4178

>  <SCORE.INTER.VDW>
-21.7114

>  <SCORE.INTER.norm>
-0.442898

>  <SCORE.INTRA>
2.07108

>  <SCORE.INTRA.DIHEDRAL>
4.24414

>  <SCORE.INTRA.DIHEDRAL.0>
4.28829

>  <SCORE.INTRA.POLAR>
0

>  <SCORE.INTRA.POLAR.0>
0

>  <SCORE.INTRA.REPUL>
0

>  <SCORE.INTRA.REPUL.0>
0

>  <SCORE.INTRA.SOLV>
-0.499811

>  <SCORE.INTRA.SOLV.lig_0>
-48.6018

>  <SCORE.INTRA.VDW>
0.198916

>  <SCORE.INTRA.VDW.0>
-2.1506

>  <SCORE.INTRA.norm>
0.0767066

>  <SCORE.RESTR>
0

>  <SCORE.RESTR.CAVITY>
0

>  <SCORE.RESTR.norm>
0

>  <SCORE.SYSTEM>
0

>  <SCORE.SYSTEM.CONST>
0

>  <SCORE.SYSTEM.DIHEDRAL>
0

>  <SCORE.SYSTEM.SOLV>
0

>  <SCORE.SYSTEM.norm>
0

>  <SCORE.heavy>
27

>  <SCORE.norm>
-0.366191

>  <RMSD>
12.052

$$$$
ligand
 OpenBabel11021811483D
libRbt.so/2013.1/901 2013/11/27
 27 29  0  0  0  0  0  0  0  0999 V2000
   10.2769   -7.5608   22.8405 N   0  0  0  0  0  0  0  0  0  0  0  0
   11.2670   -7.8467   21.8004 C   0  0  2  0  0  0  0  0  0  0  0  0
   11.2956   -9.2892   21.2892 C   0  0  0  0  0  0  0  0  0  0  0  0
   11.5542  -10.1937   22.0820 O   0  0  0  0  0  0  0  0  0  0  0  0
   12.6548   -7.4070   22.2356 C   0  0  0  0  0  0  0  0  0  0  0  0
   13.4647   -6.8751   21.0658 C   0  0  0  0  0  0  0  0  0  0  0  0
   13.8538   -8.1982   19.9068 S   0  0  2  0  0  0  0  0  0  0  0  0
   15.6203   -7.9043   19.6779 C   0  0  0  0  0  0  0  0  0  0  0  0
   13.2277   -7.4838   18.3686 C   0  0  0  0  0  0  0  0  0  0  0  0
   13.1493   -8.5344   17.2762 C   0  0  1  0  0  0  0  0  0  0  0  0
   12.4295   -9.6611   17.7217 O   0  0  0  0  0  0  0  0  0  0  0  0
   12.4039   -8.0497   16.0483 C   0  0  1  0  0  0  0  0  0  0  0  0
   13.3388   -7.5197   15.1427 O   0  0  0  0  0  0  0  0  0  0  0  0
   11.7677   -9.3106   15.4991 C   0  0  1  0  0  0  0  0  0  0  0  0
   12.5755   -9.7599   14.4344 O   0  0  0  0  0  0  0  0  0  0  0  0
   11.7778  -10.3193   16.6497 C   0  0  2  0  0  0  0  0  0  0  0  0
   11.0758   -9.5885   20.1124 O   0  0  0  0  0  0  0  0  0  0  0  0
    7.3475   -8.2456   18.5179 N   0  0  0  0  0  0  0  0  0  0  0  0
    8.5035   -7.5904   18.1692 C   0  0  0  0  0  0  0  0  0  0  0  0
    9.5726   -8.3176   17.6939 N   0  0  0  0  0  0  0  0  0  0  0  0
    9.5013   -9.6612   17.5627 C   0  0  0  0  0  0  0  0  0  0  0  0
    8.3359  -10.3352   17.8976 C   0  0  0  0  0  0  0  0  0  0  0  0
    7.2495   -9.6148   18.3895 C   0  0  0  0  0  0  0  0  0  0  0  0
    6.1147  -10.2272   18.7284 N   0  0  0  0  0  0  0  0  0  0  0  0
    8.5362  -11.6576   17.6623 N   0  0  0  0  0  0  0  0  0  0  0  0
    9.7887  -11.8158   17.1755 C   0  0  0  0  0  0  0  0  0  0  0  0
   10.3978  -10.5874   17.1008 N   0  0  0  0  0  0  0  0  0  0  0  0
  2  1  1  1  0  0  0
  2  3  1  0  0  0  0
  2  5  1  0  0  0  0
  3  4  1  0  0  0  0
  3 17  1  0  0  0  0
  5  6  1  0  0  0  0
  7  6  1  1  0  0  0
  7  8  1  0  0  0  0
  7  9  1  0  0  0  0
 10  9  1  1  0  0  0
 10 11  1  0  0  0  0
 10 12  1  0  0  0  0
 11 16  1  0  0  0  0
 12 13  1  6  0  0  0
 12 14  1  0  0  0  0
 14 15  1  6  0  0  0
 14 16  1  0  0  0  0
 16 27  1  1  0  0  0
 18 19  2  0  0  0  0
 18 23  1  0  0  0  0
 19 20  1  0  0  0  0
 20 21  2  0  0  0  0
 21 22  1  0  0  0  0
 21 27  1  0  0  0  0
 22 23  2  0  0  0  0
 22 25  1  0  0  0  0
 23 24  1  0  0  0  0
 25 26  2  0  0  0  0
 26 27  1  0  0  0  0
M  END
>  <CHROM.1>
-61.15011787,-144.57752480,-67.74671912,-131.88341522,-167.09109375,52.38509057
55.65506843,11.22220172,-8.96882123,18.62456758,0.58404425,0.29736862,1.36640374

>  <Name>
ligand

>  <RI>
0

>  <Rbt.Current_Directory>
/home/itssahil/PROJECTS/Mol_Feturizer/New_Systems/rnas/3GX5

>  <Rbt.Executable>
rbdock ($Id: //depot/dev/client3/rdock/2013.1/src/exe/rbdock.cxx#4 $)

>  <Rbt.Library>
libRbt.so (2013.1, Build901 2013/11/27)

>  <Rbt.Parameter_File>
/export/apps/rDock/src/rDock_2013.1_src/data/scripts/dock_solv.prm

>  <Rbt.Receptor>
prm/blind_docking_40.prm

>  <SCORE>
-7.64838

>  <SCORE.INTER>
-8.32145

>  <SCORE.INTER.CONST>
1

>  <SCORE.INTER.POLAR>
0

>  <SCORE.INTER.ROT>
7

>  <SCORE.INTER.SOLV>
11.3974

>  <SCORE.INTER.VDW>
-17.6134

>  <SCORE.INTER.norm>
-0.308202

>  <SCORE.INTRA>
0.673069

>  <SCORE.INTRA.DIHEDRAL>
8.43075

>  <SCORE.INTRA.DIHEDRAL.0>
4.28829

>  <SCORE.INTRA.POLAR>
0

>  <SCORE.INTRA.POLAR.0>
0

>  <SCORE.INTRA.REPUL>
0

>  <SCORE.INTRA.REPUL.0>
0

>  <SCORE.INTRA.SOLV>
-0.942854

>  <SCORE.INTRA.SOLV.lig_0>
-48.6018

>  <SCORE.INTRA.VDW>
-3.07088

>  <SCORE.INTRA.VDW.0>
-2.1506

>  <SCORE.INTRA.norm>
0.0249285

>  <SCORE.RESTR>
0

>  <SCORE.RESTR.CAVITY>
0

>  <SCORE.RESTR.norm>
0

>  <SCORE.SYSTEM>
0

>  <SCORE.SYSTEM.CONST>
0

>  <SCORE.SYSTEM.DIHEDRAL>
0

>  <SCORE.SYSTEM.SOLV>
0

>  <SCORE.SYSTEM.norm>
0

>  <SCORE.heavy>
27

>  <SCORE.norm>
-0.283273

>  <RMSD>
12.065

$$$$
ligand
 OpenBabel11021811483D
libRbt.so/2013.1/901 2013/11/27
 27 29  0  0  0  0  0  0  0  0999 V2000
    9.6819  -15.7701   20.9840 N   0  0  0  0  0  0  0  0  0  0  0  0
    8.5216  -15.3225   20.2113 C   0  0  2  0  0  0  0  0  0  0  0  0
    7.1682  -15.8750   20.6651 C   0  0  0  0  0  0  0  0  0  0  0  0
    6.6661  -15.4370   21.6994 O   0  0  0  0  0  0  0  0  0  0  0  0
    8.7288  -15.5708   18.7266 C   0  0  0  0  0  0  0  0  0  0  0  0
    7.6548  -14.8945   17.8920 C   0  0  0  0  0  0  0  0  0  0  0  0
    7.9874  -13.1311   17.7342 S   0  0  2  0  0  0  0  0  0  0  0  0
    6.4705  -12.5987   16.9127 C   0  0  0  0  0  0  0  0  0  0  0  0
    9.1120  -13.1330   16.3186 C   0  0  0  0  0  0  0  0  0  0  0  0
    9.2068  -11.7502   15.7006 C   0  0  1  0  0  0  0  0  0  0  0  0
    9.4595  -10.7800   16.6911 O   0  0  0  0  0  0  0  0  0  0  0  0
   10.3567  -11.6229   14.7209 C   0  0  1  0  0  0  0  0  0  0  0  0
    9.8740  -11.9062   13.4318 O   0  0  0  0  0  0  0  0  0  0  0  0
   10.7665  -10.1691   14.8420 C   0  0  1  0  0  0  0  0  0  0  0  0
   10.1895   -9.4776   13.7571 O   0  0  0  0  0  0  0  0  0  0  0  0
   10.1823   -9.6792   16.1687 C   0  0  2  0  0  0  0  0  0  0  0  0
    6.5566  -16.7473   20.0423 O   0  0  0  0  0  0  0  0  0  0  0  0
   14.5209   -6.9053   17.1174 N   0  0  0  0  0  0  0  0  0  0  0  0
   13.7092   -6.8485   16.0106 C   0  0  0  0  0  0  0  0  0  0  0  0
   12.6029   -7.6667   15.9440 N   0  0  0  0  0  0  0  0  0  0  0  0
   12.3028   -8.5199   16.9488 C   0  0  0  0  0  0  0  0  0  0  0  0
   13.1052   -8.5785   18.0790 C   0  0  0  0  0  0  0  0  0  0  0  0
   14.2334   -7.7646   18.1565 C   0  0  0  0  0  0  0  0  0  0  0  0
   15.0328   -7.7968   19.2231 N   0  0  0  0  0  0  0  0  0  0  0  0
   12.5733   -9.5016   18.9211 N   0  0  0  0  0  0  0  0  0  0  0  0
   11.4547  -10.0023   18.3480 C   0  0  0  0  0  0  0  0  0  0  0  0
   11.2689   -9.3994   17.1284 N   0  0  0  0  0  0  0  0  0  0  0  0
  2  1  1  1  0  0  0
  2  3  1  0  0  0  0
  2  5  1  0  0  0  0
  3  4  1  0  0  0  0
  3 17  1  0  0  0  0
  5  6  1  0  0  0  0
  7  6  1  6  0  0  0
  7  8  1  0  0  0  0
  7  9  1  0  0  0  0
 10  9  1  1  0  0  0
 10 11  1  0  0  0  0
 10 12  1  0  0  0  0
 11 16  1  0  0  0  0
 12 13  1  6  0  0  0
 12 14  1  0  0  0  0
 14 15  1  6  0  0  0
 14 16  1  0  0  0  0
 16 27  1  1  0  0  0
 18 19  2  0  0  0  0
 18 23  1  0  0  0  0
 19 20  1  0  0  0  0
 20 21  2  0  0  0  0
 21 22  1  0  0  0  0
 21 27  1  0  0  0  0
 22 23  2  0  0  0  0
 22 25  1  0  0  0  0
 23 24  1  0  0  0  0
 25 26  2  0  0  0  0
 26 27  1  0  0  0  0
M  END
>  <CHROM.1>
73.79395769,-169.86021806,78.11543820,-172.82869187,162.10788618,49.72318147
171.87947980,10.13840933,-11.53844794,17.49366167,-2.50931421,-0.76643138
-1.12624371

>  <Name>
ligand

>  <RI>
0

>  <Rbt.Current_Directory>
/home/itssahil/PROJECTS/Mol_Feturizer/New_Systems/rnas/3GX5

>  <Rbt.Executable>
rbdock ($Id: //depot/dev/client3/rdock/2013.1/src/exe/rbdock.cxx#4 $)

>  <Rbt.Library>
libRbt.so (2013.1, Build901 2013/11/27)

>  <Rbt.Parameter_File>
/export/apps/rDock/src/rDock_2013.1_src/data/scripts/dock_solv.prm

>  <Rbt.Receptor>
prm/blind_docking_60.prm

>  <SCORE>
-15.2465

>  <SCORE.INTER>
-16.5256

>  <SCORE.INTER.CONST>
1

>  <SCORE.INTER.POLAR>
0

>  <SCORE.INTER.ROT>
7

>  <SCORE.INTER.SOLV>
18.7764

>  <SCORE.INTER.VDW>
-25.5425

>  <SCORE.INTER.norm>
-0.61206

>  <SCORE.INTRA>
1.27915

>  <SCORE.INTRA.DIHEDRAL>
1.97602

>  <SCORE.INTRA.DIHEDRAL.0>
4.28829

>  <SCORE.INTRA.POLAR>
0

>  <SCORE.INTRA.POLAR.0>
0

>  <SCORE.INTRA.REPUL>
0

>  <SCORE.INTRA.REPUL.0>
0

>  <SCORE.INTRA.SOLV>
-1.12682

>  <SCORE.INTRA.SOLV.lig_0>
-48.6018

>  <SCORE.INTRA.VDW>
0.854548

>  <SCORE.INTRA.VDW.0>
-2.1506

>  <SCORE.INTRA.norm>
0.0473759

>  <SCORE.RESTR>
0

>  <SCORE.RESTR.CAVITY>
0

>  <SCORE.RESTR.norm>
0

>  <SCORE.SYSTEM>
0

>  <SCORE.SYSTEM.CONST>
0

>  <SCORE.SYSTEM.DIHEDRAL>
0

>  <SCORE.SYSTEM.SOLV>
0

>  <SCORE.SYSTEM.norm>
0

>  <SCORE.heavy>
27

>  <SCORE.norm>
-0.564684

>  <RMSD>
12.100

$$$$
ligand
 OpenBabel11021811483D
libRbt.so/2013.1/901 2013/11/27
 27 29  0  0  0  0  0  0  0  0999 V2000
    6.8465  -17.0419   20.7410 N   0  0  0  0  0  0  0  0  0  0  0  0
    7.9270  -16.3587   20.0271 C   0  0  2  0  0  0  0  0  0  0  0  0
    8.9574  -15.6462   20.9065 C   0  0  0  0  0  0  0  0  0  0  0  0
   10.0400  -16.1933   21.1125 O   0  0  0  0  0  0  0  0  0  0  0  0
    7.3707  -15.4085   18.9800 C   0  0  0  0  0  0  0  0  0  0  0  0
    8.4762  -14.7999   18.1344 C   0  0  0  0  0  0  0  0  0  0  0  0
    7.8026  -13.5940   16.9781 S   0  0  2  0  0  0  0  0  0  0  0  0
    6.9730  -14.7015   15.8187 C   0  0  0  0  0  0  0  0  0  0  0  0
    9.2805  -13.2006   16.0139 C   0  0  0  0  0  0  0  0  0  0  0  0
    9.2471  -11.7609   15.5351 C   0  0  1  0  0  0  0  0  0  0  0  0
    9.3481  -10.8728   16.6247 O   0  0  0  0  0  0  0  0  0  0  0  0
   10.4162  -11.4149   14.6340 C   0  0  1  0  0  0  0  0  0  0  0  0
   10.0232  -11.6182   13.3002 O   0  0  0  0  0  0  0  0  0  0  0  0
   10.6564   -9.9450   14.9134 C   0  0  1  0  0  0  0  0  0  0  0  0
   10.0526   -9.2144   13.8695 O   0  0  0  0  0  0  0  0  0  0  0  0
    9.9656   -9.6548   16.2476 C   0  0  2  0  0  0  0  0  0  0  0  0
    8.7504  -14.5460   21.4256 O   0  0  0  0  0  0  0  0  0  0  0  0
   14.2258   -6.8731   17.4850 N   0  0  0  0  0  0  0  0  0  0  0  0
   13.5060   -6.8373   16.3155 C   0  0  0  0  0  0  0  0  0  0  0  0
   12.4052   -7.6538   16.1770 N   0  0  0  0  0  0  0  0  0  0  0  0
   12.0215   -8.4850   17.1717 C   0  0  0  0  0  0  0  0  0  0  0  0
   12.7301   -8.5221   18.3638 C   0  0  0  0  0  0  0  0  0  0  0  0
   13.8519   -7.7097   18.5152 C   0  0  0  0  0  0  0  0  0  0  0  0
   14.5628   -7.7217   19.6430 N   0  0  0  0  0  0  0  0  0  0  0  0
   12.1282   -9.4259   19.1793 N   0  0  0  0  0  0  0  0  0  0  0  0
   11.0572   -9.9356   18.5285 C   0  0  0  0  0  0  0  0  0  0  0  0
   10.9727   -9.3578   17.2857 N   0  0  0  0  0  0  0  0  0  0  0  0
  2  1  1  1  0  0  0
  2  3  1  0  0  0  0
  2  5  1  0  0  0  0
  3  4  1  0  0  0  0
  3 17  1  0  0  0  0
  5  6  1  0  0  0  0
  7  6  1  1  0  0  0
  7  8  1  0  0  0  0
  7  9  1  0  0  0  0
 10  9  1  1  0  0  0
 10 11  1  0  0  0  0
 10 12  1  0  0  0  0
 11 16  1  0  0  0  0
 12 13  1  6  0  0  0
 12 14  1  0  0  0  0
 14 15  1  6  0  0  0
 14 16  1  0  0  0  0
 16 27  1  1  0  0  0
 18 19  2  0  0  0  0
 18 23  1  0  0  0  0
 19 20  1  0  0  0  0
 20 21  2  0  0  0  0
 21 22  1  0  0  0  0
 21 27  1  0  0  0  0
 22 23  2  0  0  0  0
 22 25  1  0  0  0  0
 23 24  1  0  0  0  0
 25 26  2  0  0  0  0
 26 27  1  0  0  0  0
M  END
>  <CHROM.1>
101.03883466,-174.12940299,-176.11296156,-72.04327905,-148.21072019,66.94980234
162.33763108,10.16784375,-11.61549107,17.50769597,-2.47194121,-0.85880658
-1.07033974

>  <Name>
ligand

>  <RI>
0

>  <Rbt.Current_Directory>
/home/itssahil/PROJECTS/Mol_Feturizer/New_Systems/rnas/3GX5

>  <Rbt.Executable>
rbdock ($Id: //depot/dev/client3/rdock/2013.1/src/exe/rbdock.cxx#4 $)

>  <Rbt.Library>
libRbt.so (2013.1, Build901 2013/11/27)

>  <Rbt.Parameter_File>
/export/apps/rDock/src/rDock_2013.1_src/data/scripts/dock_solv.prm

>  <Rbt.Receptor>
prm/blind_docking_80.prm

>  <SCORE>
-17.3522

>  <SCORE.INTER>
-18.6769

>  <SCORE.INTER.CONST>
1

>  <SCORE.INTER.POLAR>
0

>  <SCORE.INTER.ROT>
7

>  <SCORE.INTER.SOLV>
16.4776

>  <SCORE.INTER.VDW>
-26.2105

>  <SCORE.INTER.norm>
-0.691738

>  <SCORE.INTRA>
1.32471

>  <SCORE.INTRA.DIHEDRAL>
2.84589

>  <SCORE.INTRA.DIHEDRAL.0>
4.28829

>  <SCORE.INTRA.POLAR>
0

>  <SCORE.INTRA.POLAR.0>
0

>  <SCORE.INTRA.REPUL>
0

>  <SCORE.INTRA.REPUL.0>
0

>  <SCORE.INTRA.SOLV>
-1.34607

>  <SCORE.INTRA.SOLV.lig_0>
-48.6018

>  <SCORE.INTRA.VDW>
0.574803

>  <SCORE.INTRA.VDW.0>
-2.1506

>  <SCORE.INTRA.norm>
0.0490634

>  <SCORE.RESTR>
0

>  <SCORE.RESTR.CAVITY>
0

>  <SCORE.RESTR.norm>
0

>  <SCORE.SYSTEM>
0

>  <SCORE.SYSTEM.CONST>
0

>  <SCORE.SYSTEM.DIHEDRAL>
0

>  <SCORE.SYSTEM.SOLV>
0

>  <SCORE.SYSTEM.norm>
0

>  <SCORE.heavy>
27

>  <SCORE.norm>
-0.642675

>  <RMSD>
12.107

$$$$
ligand
 OpenBabel11021811483D
libRbt.so/2013.1/901 2013/11/27
 27 29  0  0  0  0  0  0  0  0999 V2000
   13.4384   -7.5925   13.5136 N   0  0  0  0  0  0  0  0  0  0  0  0
   12.1306   -7.3730   14.1343 C   0  0  2  0  0  0  0  0  0  0  0  0
   12.0553   -7.6453   15.6386 C   0  0  0  0  0  0  0  0  0  0  0  0
   13.0491   -8.0913   16.2105 O   0  0  0  0  0  0  0  0  0  0  0  0
   11.0443   -8.1391   13.3982 C   0  0  0  0  0  0  0  0  0  0  0  0
   11.4460   -9.5839   13.1560 C   0  0  0  0  0  0  0  0  0  0  0  0
   11.4214  -10.5182   14.6960 S   0  0  2  0  0  0  0  0  0  0  0  0
   12.5764  -11.8412   14.2780 C   0  0  0  0  0  0  0  0  0  0  0  0
    9.8606  -11.4124   14.5142 C   0  0  0  0  0  0  0  0  0  0  0  0
    9.5632  -12.2396   15.7513 C   0  0  1  0  0  0  0  0  0  0  0  0
    9.4034  -11.4081   16.8779 O   0  0  0  0  0  0  0  0  0  0  0  0
    8.2629  -13.0114   15.6426 C   0  0  1  0  0  0  0  0  0  0  0  0
    8.5491  -14.2939   15.1442 O   0  0  0  0  0  0  0  0  0  0  0  0
    7.7708  -13.0805   17.0741 C   0  0  1  0  0  0  0  0  0  0  0  0
    8.1101  -14.3542   17.5745 O   0  0  0  0  0  0  0  0  0  0  0  0
    8.5249  -11.9836   17.8288 C   0  0  2  0  0  0  0  0  0  0  0  0
   11.0380   -7.4427   16.3071 O   0  0  0  0  0  0  0  0  0  0  0  0
    7.4347   -8.3040   21.3911 N   0  0  0  0  0  0  0  0  0  0  0  0
    8.5156   -9.1511   21.3578 C   0  0  0  0  0  0  0  0  0  0  0  0
    8.6266  -10.0611   20.3295 N   0  0  0  0  0  0  0  0  0  0  0  0
    7.6931  -10.1314   19.3542 C   0  0  0  0  0  0  0  0  0  0  0  0
    6.6032   -9.2732   19.3668 C   0  0  0  0  0  0  0  0  0  0  0  0
    6.4716   -8.3542   20.4058 C   0  0  0  0  0  0  0  0  0  0  0  0
    5.4351   -7.5172   20.4565 N   0  0  0  0  0  0  0  0  0  0  0  0
    5.8393   -9.5526   18.2793 N   0  0  0  0  0  0  0  0  0  0  0  0
    6.4374  -10.5493   17.5869 C   0  0  0  0  0  0  0  0  0  0  0  0
    7.5912  -10.9147   18.2358 N   0  0  0  0  0  0  0  0  0  0  0  0
  2  1  1  6  0  0  0
  2  3  1  0  0  0  0
  2  5  1  0  0  0  0
  3  4  1  0  0  0  0
  3 17  1  0  0  0  0
  5  6  1  0  0  0  0
  7  6  1  6  0  0  0
  7  8  1  0  0  0  0
  7  9  1  0  0  0  0
 10  9  1  6  0  0  0
 10 11  1  0  0  0  0
 10 12  1  0  0  0  0
 11 16  1  0  0  0  0
 12 13  1  1  0  0  0
 12 14  1  0  0  0  0
 14 15  1  1  0  0  0
 14 16  1  0  0  0  0
 16 27  1  6  0  0  0
 18 19  2  0  0  0  0
 18 23  1  0  0  0  0
 19 20  1  0  0  0  0
 20 21  2  0  0  0  0
 21 22  1  0  0  0  0
 21 27  1  0  0  0  0
 22 23  2  0  0  0  0
 22 25  1  0  0  0  0
 23 24  1  0  0  0  0
 25 26  2  0  0  0  0
 26 27  1  0  0  0  0
M  END
>  <CHROM.1>
-3.88683882,48.28661509,71.72176282,-156.02834438,-176.90818582,62.77830448
-97.58871741,9.38802761,-10.19992343,16.80492904,-0.28794575,0.78603922,0.48126301

>  <Name>
ligand

>  <RI>
0

>  <Rbt.Current_Directory>
/home/itssahil/PROJECTS/Mol_Feturizer/New_Systems/rnas/3GX5

>  <Rbt.Executable>
rbdock ($Id: //depot/dev/client3/rdock/2013.1/src/exe/rbdock.cxx#4 $)

>  <Rbt.Library>
libRbt.so (2013.1, Build901 2013/11/27)

>  <Rbt.Parameter_File>
/export/apps/rDock/src/rDock_2013.1_src/data/scripts/dock_solv.prm

>  <Rbt.Receptor>
prm/blind_docking_40.prm

>  <SCORE>
-12.3242

>  <SCORE.INTER>
-13.7987

>  <SCORE.INTER.CONST>
1

>  <SCORE.INTER.POLAR>
0

>  <SCORE.INTER.ROT>
7

>  <SCORE.INTER.SOLV>
11.7287

>  <SCORE.INTER.VDW>
-21.3754

>  <SCORE.INTER.norm>
-0.511064

>  <SCORE.INTRA>
1.47457

>  <SCORE.INTRA.DIHEDRAL>
3.17966

>  <SCORE.INTRA.DIHEDRAL.0>
4.28829

>  <SCORE.INTRA.POLAR>
0

>  <SCORE.INTRA.POLAR.0>
0

>  <SCORE.INTRA.REPUL>
0

>  <SCORE.INTRA.REPUL.0>
0

>  <SCORE.INTRA.SOLV>
0.512796

>  <SCORE.INTRA.SOLV.lig_0>
-48.6018

>  <SCORE.INTRA.VDW>
-0.371656

>  <SCORE.INTRA.VDW.0>
-2.1506

>  <SCORE.INTRA.norm>
0.0546137

>  <SCORE.RESTR>
0

>  <SCORE.RESTR.CAVITY>
0

>  <SCORE.RESTR.norm>
0

>  <SCORE.SYSTEM>
0

>  <SCORE.SYSTEM.CONST>
0

>  <SCORE.SYSTEM.DIHEDRAL>
0

>  <SCORE.SYSTEM.SOLV>
0

>  <SCORE.SYSTEM.norm>
0

>  <SCORE.heavy>
27

>  <SCORE.norm>
-0.45645

>  <RMSD>
12.160

$$$$
ligand
 OpenBabel11021811483D
libRbt.so/2013.1/901 2013/11/27
 27 29  0  0  0  0  0  0  0  0999 V2000
    8.4369   -7.9622   17.7610 N   0  0  0  0  0  0  0  0  0  0  0  0
    8.5376   -8.5894   19.0803 C   0  0  2  0  0  0  0  0  0  0  0  0
    7.2393   -9.1795   19.6360 C   0  0  0  0  0  0  0  0  0  0  0  0
    6.9844  -10.3628   19.4156 O   0  0  0  0  0  0  0  0  0  0  0  0
    9.1663   -7.6402   20.0866 C   0  0  0  0  0  0  0  0  0  0  0  0
    9.3759   -8.3121   21.4327 C   0  0  0  0  0  0  0  0  0  0  0  0
   10.5901   -9.6363   21.3011 S   0  0  2  0  0  0  0  0  0  0  0  0
   10.6285  -10.1974   23.0166 C   0  0  0  0  0  0  0  0  0  0  0  0
   12.1219   -8.6765   21.2637 C   0  0  0  0  0  0  0  0  0  0  0  0
   12.4358   -8.2127   19.8533 C   0  0  1  0  0  0  0  0  0  0  0  0
   13.6509   -7.4993   19.8241 O   0  0  0  0  0  0  0  0  0  0  0  0
   12.6307   -9.3641   18.8865 C   0  0  1  0  0  0  0  0  0  0  0  0
   11.3986   -9.6368   18.2680 O   0  0  0  0  0  0  0  0  0  0  0  0
   13.6337   -8.8228   17.8879 C   0  0  1  0  0  0  0  0  0  0  0  0
   12.9126   -8.4114   16.7483 O   0  0  0  0  0  0  0  0  0  0  0  0
   14.2980   -7.6250   18.5701 C   0  0  2  0  0  0  0  0  0  0  0  0
    6.4297   -8.5197   20.2932 O   0  0  0  0  0  0  0  0  0  0  0  0
   18.6382  -10.0450   16.9198 N   0  0  0  0  0  0  0  0  0  0  0  0
   17.4204   -9.9744   16.2881 C   0  0  0  0  0  0  0  0  0  0  0  0
   16.3893   -9.2857   16.8884 N   0  0  0  0  0  0  0  0  0  0  0  0
   16.5573   -8.6778   18.0841 C   0  0  0  0  0  0  0  0  0  0  0  0
   17.7853   -8.7286   18.7276 C   0  0  0  0  0  0  0  0  0  0  0  0
   18.8349   -9.4300   18.1380 C   0  0  0  0  0  0  0  0  0  0  0  0
   20.0279   -9.5073   18.7283 N   0  0  0  0  0  0  0  0  0  0  0  0
   17.6763   -8.0355   19.8903 N   0  0  0  0  0  0  0  0  0  0  0  0
   16.4184   -7.5443   19.9737 C   0  0  0  0  0  0  0  0  0  0  0  0
   15.7140   -7.9272   18.8589 N   0  0  0  0  0  0  0  0  0  0  0  0
  2  1  1  6  0  0  0
  2  3  1  0  0  0  0
  2  5  1  0  0  0  0
  3  4  1  0  0  0  0
  3 17  1  0  0  0  0
  5  6  1  0  0  0  0
  7  6  1  1  0  0  0
  7  8  1  0  0  0  0
  7  9  1  0  0  0  0
 10  9  1  1  0  0  0
 10 11  1  0  0  0  0
 10 12  1  0  0  0  0
 11 16  1  0  0  0  0
 12 13  1  6  0  0  0
 12 14  1  0  0  0  0
 14 15  1  6  0  0  0
 14 16  1  0  0  0  0
 16 27  1  1  0  0  0
 18 19  2  0  0  0  0
 18 23  1  0  0  0  0
 19 20  1  0  0  0  0
 20 21  2  0  0  0  0
 21 22  1  0  0  0  0
 21 27  1  0  0  0  0
 22 23  2  0  0  0  0
 22 25  1  0  0  0  0
 23 24  1  0  0  0  0
 25 26  2  0  0  0  0
 26 27  1  0  0  0  0
M  END
>  <CHROM.1>
91.98496240,-175.61653595,65.65314771,179.21268257,-84.85353176,-178.25564255
149.10593011,12.91497129,-8.85152729,19.23419964,2.92706046,0.00447260,1.55247603

>  <Name>
ligand

>  <RI>
0

>  <Rbt.Current_Directory>
/home/itssahil/PROJECTS/Mol_Feturizer/New_Systems/rnas/3GX5

>  <Rbt.Executable>
rbdock ($Id: //depot/dev/client3/rdock/2013.1/src/exe/rbdock.cxx#4 $)

>  <Rbt.Library>
libRbt.so (2013.1, Build901 2013/11/27)

>  <Rbt.Parameter_File>
/export/apps/rDock/src/rDock_2013.1_src/data/scripts/dock_solv.prm

>  <Rbt.Receptor>
prm/blind_docking_80.prm

>  <SCORE>
-14.3806

>  <SCORE.INTER>
-14.354

>  <SCORE.INTER.CONST>
1

>  <SCORE.INTER.POLAR>
0

>  <SCORE.INTER.ROT>
7

>  <SCORE.INTER.SOLV>
16.6811

>  <SCORE.INTER.VDW>
-23.3964

>  <SCORE.INTER.norm>
-0.531629

>  <SCORE.INTRA>
-0.0265706

>  <SCORE.INTRA.DIHEDRAL>
0.302314

>  <SCORE.INTRA.DIHEDRAL.0>
4.28829

>  <SCORE.INTRA.POLAR>
0

>  <SCORE.INTRA.POLAR.0>
0

>  <SCORE.INTRA.REPUL>
0

>  <SCORE.INTRA.REPUL.0>
0

>  <SCORE.INTRA.SOLV>
0.284007

>  <SCORE.INTRA.SOLV.lig_0>
-48.6018

>  <SCORE.INTRA.VDW>
-0.319731

>  <SCORE.INTRA.VDW.0>
-2.1506

>  <SCORE.INTRA.norm>
-0.000984098

>  <SCORE.RESTR>
0

>  <SCORE.RESTR.CAVITY>
0

>  <SCORE.RESTR.norm>
0

>  <SCORE.SYSTEM>
0

>  <SCORE.SYSTEM.CONST>
0

>  <SCORE.SYSTEM.DIHEDRAL>
0

>  <SCORE.SYSTEM.SOLV>
0

>  <SCORE.SYSTEM.norm>
0

>  <SCORE.heavy>
27

>  <SCORE.norm>
-0.532613

>  <RMSD>
12.165

$$$$
ligand
 OpenBabel11021811483D
libRbt.so/2013.1/901 2013/11/27
 27 29  0  0  0  0  0  0  0  0999 V2000
    8.9721  -16.7042   20.0180 N   0  0  0  0  0  0  0  0  0  0  0  0
    7.9583  -15.6665   20.2163 C   0  0  2  0  0  0  0  0  0  0  0  0
    6.9343  -15.9407   21.3204 C   0  0  0  0  0  0  0  0  0  0  0  0
    6.1905  -16.9144   21.2101 O   0  0  0  0  0  0  0  0  0  0  0  0
    7.2581  -15.3341   18.9094 C   0  0  0  0  0  0  0  0  0  0  0  0
    8.1515  -14.5218   17.9878 C   0  0  0  0  0  0  0  0  0  0  0  0
    7.2042  -13.8542   16.6086 S   0  0  2  0  0  0  0  0  0  0  0  0
    6.9148  -15.3667   15.6664 C   0  0  0  0  0  0  0  0  0  0  0  0
    8.5314  -13.1307   15.6167 C   0  0  0  0  0  0  0  0  0  0  0  0
    8.9392  -11.7754   16.1642 C   0  0  1  0  0  0  0  0  0  0  0  0
   10.3046  -11.7713   16.5132 O   0  0  0  0  0  0  0  0  0  0  0  0
    8.7885  -10.6618   15.1465 C   0  0  1  0  0  0  0  0  0  0  0  0
    7.5193  -10.0810   15.3097 O   0  0  0  0  0  0  0  0  0  0  0  0
    9.8863   -9.6872   15.5221 C   0  0  1  0  0  0  0  0  0  0  0  0
    9.2903   -8.6491   16.2671 O   0  0  0  0  0  0  0  0  0  0  0  0
   10.8700  -10.4785   16.3866 C   0  0  2  0  0  0  0  0  0  0  0  0
    6.8154  -15.2244   22.3182 O   0  0  0  0  0  0  0  0  0  0  0  0
   15.9515   -9.2247   16.2278 N   0  0  0  0  0  0  0  0  0  0  0  0
   15.0176   -8.8423   17.1598 C   0  0  0  0  0  0  0  0  0  0  0  0
   13.7174   -9.2779   17.0283 N   0  0  0  0  0  0  0  0  0  0  0  0
   13.3477  -10.0756   16.0014 C   0  0  0  0  0  0  0  0  0  0  0  0
   14.2825  -10.4815   15.0601 C   0  0  0  0  0  0  0  0  0  0  0  0
   15.5993  -10.0408   15.1738 C   0  0  0  0  0  0  0  0  0  0  0  0
   16.5252  -10.4035   14.2856 N   0  0  0  0  0  0  0  0  0  0  0  0
   13.6489  -11.2736   14.1572 N   0  0  0  0  0  0  0  0  0  0  0  0
   12.3514  -11.3809   14.5254 C   0  0  0  0  0  0  0  0  0  0  0  0
   12.1497  -10.6502   15.6704 N   0  0  0  0  0  0  0  0  0  0  0  0
  2  1  1  6  0  0  0
  2  3  1  0  0  0  0
  2  5  1  0  0  0  0
  3  4  1  0  0  0  0
  3 17  1  0  0  0  0
  5  6  1  0  0  0  0
  7  6  1  1  0  0  0
  7  8  1  0  0  0  0
  7  9  1  0  0  0  0
 10  9  1  6  0  0  0
 10 11  1  0  0  0  0
 10 12  1  0  0  0  0
 11 16  1  0  0  0  0
 12 13  1  1  0  0  0
 12 14  1  0  0  0  0
 14 15  1  1  0  0  0
 14 16  1  0  0  0  0
 16 27  1  6  0  0  0
 18 19  2  0  0  0  0
 18 23  1  0  0  0  0
 19 20  1  0  0  0  0
 20 21  2  0  0  0  0
 21 22  1  0  0  0  0
 21 27  1  0  0  0  0
 22 23  2  0  0  0  0
 22 25  1  0  0  0  0
 23 24  1  0  0  0  0
 25 26  2  0  0  0  0
 26 27  1  0  0  0  0
M  END
>  <CHROM.1>
-62.59297918,-73.82361035,-168.32863223,-71.85316208,-80.50186804,121.03858973
-134.62764731,10.20194089,-12.26206736,16.93958216,-2.38302196,-0.22586007
-0.86302163

>  <Name>
ligand

>  <RI>
0

>  <Rbt.Current_Directory>
/home/itssahil/PROJECTS/Mol_Feturizer/New_Systems/rnas/3GX5

>  <Rbt.Executable>
rbdock ($Id: //depot/dev/client3/rdock/2013.1/src/exe/rbdock.cxx#4 $)

>  <Rbt.Library>
libRbt.so (2013.1, Build901 2013/11/27)

>  <Rbt.Parameter_File>
/export/apps/rDock/src/rDock_2013.1_src/data/scripts/dock_solv.prm

>  <Rbt.Receptor>
prm/blind_docking_40.prm

>  <SCORE>
-13.3807

>  <SCORE.INTER>
-15.8745

>  <SCORE.INTER.CONST>
1

>  <SCORE.INTER.POLAR>
0

>  <SCORE.INTER.ROT>
7

>  <SCORE.INTER.SOLV>
17.0654

>  <SCORE.INTER.VDW>
-24.5382

>  <SCORE.INTER.norm>
-0.587946

>  <SCORE.INTRA>
2.49384

>  <SCORE.INTRA.DIHEDRAL>
5.99384

>  <SCORE.INTRA.DIHEDRAL.0>
4.28829

>  <SCORE.INTRA.POLAR>
0

>  <SCORE.INTRA.POLAR.0>
0

>  <SCORE.INTRA.REPUL>
0

>  <SCORE.INTRA.REPUL.0>
0

>  <SCORE.INTRA.SOLV>
-0.733511

>  <SCORE.INTRA.SOLV.lig_0>
-48.6018

>  <SCORE.INTRA.VDW>
-0.136329

>  <SCORE.INTRA.VDW.0>
-2.1506

>  <SCORE.INTRA.norm>
0.0923643

>  <SCORE.RESTR>
0

>  <SCORE.RESTR.CAVITY>
0

>  <SCORE.RESTR.norm>
0

>  <SCORE.SYSTEM>
0

>  <SCORE.SYSTEM.CONST>
0

>  <SCORE.SYSTEM.DIHEDRAL>
0

>  <SCORE.SYSTEM.SOLV>
0

>  <SCORE.SYSTEM.norm>
0

>  <SCORE.heavy>
27

>  <SCORE.norm>
-0.495582

>  <RMSD>
12.172

$$$$
ligand
 OpenBabel11021811483D
libRbt.so/2013.1/901 2013/11/27
 27 29  0  0  0  0  0  0  0  0999 V2000
   13.7218   -8.9806   14.9694 N   0  0  0  0  0  0  0  0  0  0  0  0
   13.3272  -10.3686   15.2173 C   0  0  2  0  0  0  0  0  0  0  0  0
   13.6221  -11.3552   14.0848 C   0  0  0  0  0  0  0  0  0  0  0  0
   13.5610  -12.5615   14.3191 O   0  0  0  0  0  0  0  0  0  0  0  0
   11.8680  -10.4530   15.6323 C   0  0  0  0  0  0  0  0  0  0  0  0
   11.6626   -9.9622   17.0551 C   0  0  0  0  0  0  0  0  0  0  0  0
    9.9073   -9.8691   17.4493 S   0  0  2  0  0  0  0  0  0  0  0  0
   10.0017   -9.5336   19.2207 C   0  0  0  0  0  0  0  0  0  0  0  0
    9.4866  -11.6267   17.4975 C   0  0  0  0  0  0  0  0  0  0  0  0
    7.9823  -11.8244   17.4653 C   0  0  1  0  0  0  0  0  0  0  0  0
    7.3697  -11.1506   18.5409 O   0  0  0  0  0  0  0  0  0  0  0  0
    7.3408  -11.2450   16.2198 C   0  0  1  0  0  0  0  0  0  0  0  0
    7.2563  -12.2602   15.2516 O   0  0  0  0  0  0  0  0  0  0  0  0
    5.9632  -10.8266   16.6922 C   0  0  1  0  0  0  0  0  0  0  0  0
    5.0592  -11.8342   16.2977 O   0  0  0  0  0  0  0  0  0  0  0  0
    6.0513  -10.7451   18.2177 C   0  0  2  0  0  0  0  0  0  0  0  0
   13.9250  -10.9960   12.9438 O   0  0  0  0  0  0  0  0  0  0  0  0
    7.6809   -5.8187   17.5158 N   0  0  0  0  0  0  0  0  0  0  0  0
    8.0590   -6.9393   16.8169 C   0  0  0  0  0  0  0  0  0  0  0  0
    7.5148   -8.1590   17.1546 N   0  0  0  0  0  0  0  0  0  0  0  0
    6.6154   -8.2697   18.1577 C   0  0  0  0  0  0  0  0  0  0  0  0
    6.2134   -7.1449   18.8633 C   0  0  0  0  0  0  0  0  0  0  0  0
    6.7625   -5.9058   18.5404 C   0  0  0  0  0  0  0  0  0  0  0  0
    6.4067   -4.8029   19.1996 N   0  0  0  0  0  0  0  0  0  0  0  0
    5.3083   -7.5386   19.7960 N   0  0  0  0  0  0  0  0  0  0  0  0
    5.1286   -8.8741   19.6740 C   0  0  0  0  0  0  0  0  0  0  0  0
    5.9259   -9.3415   18.6584 N   0  0  0  0  0  0  0  0  0  0  0  0
  2  1  1  6  0  0  0
  2  3  1  0  0  0  0
  2  5  1  0  0  0  0
  3  4  1  0  0  0  0
  3 17  1  0  0  0  0
  5  6  1  0  0  0  0
  7  6  1  6  0  0  0
  7  8  1  0  0  0  0
  7  9  1  0  0  0  0
 10  9  1  6  0  0  0
 10 11  1  0  0  0  0
 10 12  1  0  0  0  0
 11 16  1  0  0  0  0
 12 13  1  6  0  0  0
 12 14  1  0  0  0  0
 14 15  1  1  0  0  0
 14 16  1  0  0  0  0
 16 27  1  6  0  0  0
 18 19  2  0  0  0  0
 18 23  1  0  0  0  0
 19 20  1  0  0  0  0
 20 21  2  0  0  0  0
 21 22  1  0  0  0  0
 21 27  1  0  0  0  0
 22 23  2  0  0  0  0
 22 25  1  0  0  0  0
 23 24  1  0  0  0  0
 25 26  2  0  0  0  0
 26 27  1  0  0  0  0
M  END
>  <CHROM.1>
165.99451780,-73.76207846,172.62333918,171.31546807,-165.53698000,-57.56083543
64.82424745,8.77289974,-9.66726387,17.05734842,-0.50043786,0.36261750,0.34129419

>  <Name>
ligand

>  <RI>
0

>  <Rbt.Current_Directory>
/home/itssahil/PROJECTS/Mol_Feturizer/New_Systems/rnas/3GX5

>  <Rbt.Executable>
rbdock ($Id: //depot/dev/client3/rdock/2013.1/src/exe/rbdock.cxx#4 $)

>  <Rbt.Library>
libRbt.so (2013.1, Build901 2013/11/27)

>  <Rbt.Parameter_File>
/export/apps/rDock/src/rDock_2013.1_src/data/scripts/dock_solv.prm

>  <Rbt.Receptor>
prm/blind_docking_60.prm

>  <SCORE>
-11.4344

>  <SCORE.INTER>
-10.0423

>  <SCORE.INTER.CONST>
1

>  <SCORE.INTER.POLAR>
0

>  <SCORE.INTER.ROT>
7

>  <SCORE.INTER.SOLV>
6.49643

>  <SCORE.INTER.VDW>
-17.127

>  <SCORE.INTER.norm>
-0.371936

>  <SCORE.INTRA>
-1.39215

>  <SCORE.INTRA.DIHEDRAL>
1.51613

>  <SCORE.INTRA.DIHEDRAL.0>
4.28829

>  <SCORE.INTRA.POLAR>
0

>  <SCORE.INTRA.POLAR.0>
0

>  <SCORE.INTRA.REPUL>
0

>  <SCORE.INTRA.REPUL.0>
0

>  <SCORE.INTRA.SOLV>
-0.38538

>  <SCORE.INTRA.SOLV.lig_0>
-48.6018

>  <SCORE.INTRA.VDW>
-1.95753

>  <SCORE.INTRA.VDW.0>
-2.1506

>  <SCORE.INTRA.norm>
-0.0515612

>  <SCORE.RESTR>
0

>  <SCORE.RESTR.CAVITY>
0

>  <SCORE.RESTR.norm>
0

>  <SCORE.SYSTEM>
0

>  <SCORE.SYSTEM.CONST>
0

>  <SCORE.SYSTEM.DIHEDRAL>
0

>  <SCORE.SYSTEM.SOLV>
0

>  <SCORE.SYSTEM.norm>
0

>  <SCORE.heavy>
27

>  <SCORE.norm>
-0.423497

>  <RMSD>
12.189

$$$$
ligand
 OpenBabel11021811483D
libRbt.so/2013.1/901 2013/11/27
 27 29  0  0  0  0  0  0  0  0999 V2000
   11.4386  -10.2071   13.6001 N   0  0  0  0  0  0  0  0  0  0  0  0
   12.4257  -10.1728   14.6810 C   0  0  2  0  0  0  0  0  0  0  0  0
   13.6109  -11.1293   14.5287 C   0  0  0  0  0  0  0  0  0  0  0  0
   14.7394  -10.7226   14.8021 O   0  0  0  0  0  0  0  0  0  0  0  0
   11.7580  -10.3613   16.0329 C   0  0  0  0  0  0  0  0  0  0  0  0
   10.7949   -9.2283   16.3430 C   0  0  0  0  0  0  0  0  0  0  0  0
   10.2003   -9.3446   18.0395 S   0  0  2  0  0  0  0  0  0  0  0  0
   11.7749   -9.3636   18.9224 C   0  0  0  0  0  0  0  0  0  0  0  0
    9.7862  -11.1024   18.1240 C   0  0  0  0  0  0  0  0  0  0  0  0
    8.2972  -11.3180   17.9260 C   0  0  1  0  0  0  0  0  0  0  0  0
    7.5636  -10.6887   18.9517 O   0  0  0  0  0  0  0  0  0  0  0  0
    7.7815  -10.7053   16.6388 C   0  0  1  0  0  0  0  0  0  0  0  0
    7.8162  -11.6882   15.6349 O   0  0  0  0  0  0  0  0  0  0  0  0
    6.3551  -10.3205   16.9757 C   0  0  1  0  0  0  0  0  0  0  0  0
    5.5143  -11.3256   16.4553 O   0  0  0  0  0  0  0  0  0  0  0  0
    6.2803  -10.2894   18.5037 C   0  0  2  0  0  0  0  0  0  0  0  0
   13.4879  -12.2932   14.1375 O   0  0  0  0  0  0  0  0  0  0  0  0
    7.8557   -5.3126   18.0940 N   0  0  0  0  0  0  0  0  0  0  0  0
    8.3174   -6.4030   17.3976 C   0  0  0  0  0  0  0  0  0  0  0  0
    7.7731   -7.6430   17.6500 N   0  0  0  0  0  0  0  0  0  0  0  0
    6.7928   -7.8029   18.5671 C   0  0  0  0  0  0  0  0  0  0  0  0
    6.3065   -6.7090   19.2682 C   0  0  0  0  0  0  0  0  0  0  0  0
    6.8541   -5.4498   19.0315 C   0  0  0  0  0  0  0  0  0  0  0  0
    6.4184   -4.3754   19.6899 N   0  0  0  0  0  0  0  0  0  0  0  0
    5.3330   -7.1495   20.1063 N   0  0  0  0  0  0  0  0  0  0  0  0
    5.1940   -8.4836   19.9291 C   0  0  0  0  0  0  0  0  0  0  0  0
    6.0863   -8.9031   18.9735 N   0  0  0  0  0  0  0  0  0  0  0  0
  2  1  1  6  0  0  0
  2  3  1  0  0  0  0
  2  5  1  0  0  0  0
  3  4  1  0  0  0  0
  3 17  1  0  0  0  0
  5  6  1  0  0  0  0
  7  6  1  6  0  0  0
  7  8  1  0  0  0  0
  7  9  1  0  0  0  0
 10  9  1  1  0  0  0
 10 11  1  0  0  0  0
 10 12  1  0  0  0  0
 11 16  1  0  0  0  0
 12 13  1  6  0  0  0
 12 14  1  0  0  0  0
 14 15  1  1  0  0  0
 14 16  1  0  0  0  0
 16 27  1  6  0  0  0
 18 19  2  0  0  0  0
 18 23  1  0  0  0  0
 19 20  1  0  0  0  0
 20 21  2  0  0  0  0
 21 22  1  0  0  0  0
 21 27  1  0  0  0  0
 22 23  2  0  0  0  0
 22 25  1  0  0  0  0
 23 24  1  0  0  0  0
 25 26  2  0  0  0  0
 26 27  1  0  0  0  0
M  END
>  <CHROM.1>
137.39271628,-63.25687503,-171.75667806,55.46504031,-99.08901194,-62.28218388
65.97780728,8.89810360,-9.29526384,17.35276742,-0.61455907,0.34867027,0.38220114

>  <Name>
ligand

>  <RI>
0

>  <Rbt.Current_Directory>
/home/itssahil/PROJECTS/Mol_Feturizer/New_Systems/rnas/3GX5

>  <Rbt.Executable>
rbdock ($Id: //depot/dev/client3/rdock/2013.1/src/exe/rbdock.cxx#4 $)

>  <Rbt.Library>
libRbt.so (2013.1, Build901 2013/11/27)

>  <Rbt.Parameter_File>
/export/apps/rDock/src/rDock_2013.1_src/data/scripts/dock_solv.prm

>  <Rbt.Receptor>
prm/blind_docking_100.prm

>  <SCORE>
-7.84524

>  <SCORE.INTER>
-8.62552

>  <SCORE.INTER.CONST>
1

>  <SCORE.INTER.POLAR>
0

>  <SCORE.INTER.ROT>
7

>  <SCORE.INTER.SOLV>
6.10859

>  <SCORE.INTER.VDW>
-16.0532

>  <SCORE.INTER.norm>
-0.319464

>  <SCORE.INTRA>
0.780284

>  <SCORE.INTRA.DIHEDRAL>
1.69107

>  <SCORE.INTRA.DIHEDRAL.0>
4.28829

>  <SCORE.INTRA.POLAR>
0

>  <SCORE.INTRA.POLAR.0>
0

>  <SCORE.INTRA.REPUL>
0

>  <SCORE.INTRA.REPUL.0>
0

>  <SCORE.INTRA.SOLV>
-0.184705

>  <SCORE.INTRA.SOLV.lig_0>
-48.6018

>  <SCORE.INTRA.VDW>
0.0271017

>  <SCORE.INTRA.VDW.0>
-2.1506

>  <SCORE.INTRA.norm>
0.0288994

>  <SCORE.RESTR>
0

>  <SCORE.RESTR.CAVITY>
0

>  <SCORE.RESTR.norm>
0

>  <SCORE.SYSTEM>
0

>  <SCORE.SYSTEM.CONST>
0

>  <SCORE.SYSTEM.DIHEDRAL>
0

>  <SCORE.SYSTEM.SOLV>
0

>  <SCORE.SYSTEM.norm>
0

>  <SCORE.heavy>
27

>  <SCORE.norm>
-0.290564

>  <RMSD>
12.221

$$$$
ligand
 OpenBabel11021811483D
libRbt.so/2013.1/901 2013/11/27
 27 29  0  0  0  0  0  0  0  0999 V2000
    7.6712   -6.4131   22.5691 N   0  0  0  0  0  0  0  0  0  0  0  0
    8.0850   -7.6606   23.2143 C   0  0  2  0  0  0  0  0  0  0  0  0
    8.7462   -7.5111   24.5866 C   0  0  0  0  0  0  0  0  0  0  0  0
    8.5411   -8.3730   25.4402 O   0  0  0  0  0  0  0  0  0  0  0  0
    8.9601   -8.4876   22.2874 C   0  0  0  0  0  0  0  0  0  0  0  0
   10.1500   -7.6894   21.7830 C   0  0  0  0  0  0  0  0  0  0  0  0
   11.3788   -8.7782   21.0416 S   0  0  2  0  0  0  0  0  0  0  0  0
   12.1616   -9.4281   22.5329 C   0  0  0  0  0  0  0  0  0  0  0  0
   12.6310   -7.5724   20.5451 C   0  0  0  0  0  0  0  0  0  0  0  0
   13.9386   -8.2607   20.1997 C   0  0  1  0  0  0  0  0  0  0  0  0
   13.7420   -9.2206   19.1867 O   0  0  0  0  0  0  0  0  0  0  0  0
   14.9755   -7.3054   19.6423 C   0  0  1  0  0  0  0  0  0  0  0  0
   15.7722   -6.8467   20.7052 O   0  0  0  0  0  0  0  0  0  0  0  0
   15.7794   -8.1695   18.6921 C   0  0  1  0  0  0  0  0  0  0  0  0
   16.9597   -8.5480   19.3641 O   0  0  0  0  0  0  0  0  0  0  0  0
   14.9071   -9.3921   18.3992 C   0  0  2  0  0  0  0  0  0  0  0  0
    9.4744   -6.5591   24.8804 O   0  0  0  0  0  0  0  0  0  0  0  0
   11.3479   -7.6165   14.9937 N   0  0  0  0  0  0  0  0  0  0  0  0
   11.4279   -7.3587   16.3407 C   0  0  0  0  0  0  0  0  0  0  0  0
   12.4463   -7.9250   17.0754 N   0  0  0  0  0  0  0  0  0  0  0  0
   13.3670   -8.7256   16.4931 C   0  0  0  0  0  0  0  0  0  0  0  0
   13.3074   -8.9839   15.1314 C   0  0  0  0  0  0  0  0  0  0  0  0
   12.2773   -8.4267   14.3767 C   0  0  0  0  0  0  0  0  0  0  0  0
   12.1822   -8.6567   13.0668 N   0  0  0  0  0  0  0  0  0  0  0  0
   14.3463   -9.7994   14.8153 N   0  0  0  0  0  0  0  0  0  0  0  0
   15.0551  -10.0380   15.9428 C   0  0  0  0  0  0  0  0  0  0  0  0
   14.4657   -9.3740   16.9904 N   0  0  0  0  0  0  0  0  0  0  0  0
  2  1  1  6  0  0  0
  2  3  1  0  0  0  0
  2  5  1  0  0  0  0
  3  4  1  0  0  0  0
  3 17  1  0  0  0  0
  5  6  1  0  0  0  0
  7  6  1  1  0  0  0
  7  8  1  0  0  0  0
  7  9  1  0  0  0  0
 10  9  1  6  0  0  0
 10 11  1  0  0  0  0
 10 12  1  0  0  0  0
 11 16  1  0  0  0  0
 12 13  1  1  0  0  0
 12 14  1  0  0  0  0
 14 15  1  1  0  0  0
 14 16  1  0  0  0  0
 16 27  1  6  0  0  0
 18 19  2  0  0  0  0
 18 23  1  0  0  0  0
 19 20  1  0  0  0  0
 20 21  2  0  0  0  0
 21 22  1  0  0  0  0
 21 27  1  0  0  0  0
 22 23  2  0  0  0  0
 22 25  1  0  0  0  0
 23 24  1  0  0  0  0
 25 26  2  0  0  0  0
 26 27  1  0  0  0  0
M  END
>  <CHROM.1>
144.97244191,54.51019743,165.68273290,-78.41243699,165.81627089,56.76151319
27.91122271,12.32608584,-8.27534502,19.48419532,2.11428689,-0.10390851,1.49251532

>  <Name>
ligand

>  <RI>
0

>  <Rbt.Current_Directory>
/home/itssahil/PROJECTS/Mol_Feturizer/New_Systems/rnas/3GX5

>  <Rbt.Executable>
rbdock ($Id: //depot/dev/client3/rdock/2013.1/src/exe/rbdock.cxx#4 $)

>  <Rbt.Library>
libRbt.so (2013.1, Build901 2013/11/27)

>  <Rbt.Parameter_File>
/export/apps/rDock/src/rDock_2013.1_src/data/scripts/dock_solv.prm

>  <Rbt.Receptor>
prm/blind_docking_40.prm

>  <SCORE>
-11.6361

>  <SCORE.INTER>
-11.1847

>  <SCORE.INTER.CONST>
1

>  <SCORE.INTER.POLAR>
0

>  <SCORE.INTER.ROT>
7

>  <SCORE.INTER.SOLV>
8.19666

>  <SCORE.INTER.VDW>
-18.4553

>  <SCORE.INTER.norm>
-0.414248

>  <SCORE.INTRA>
-0.451437

>  <SCORE.INTRA.DIHEDRAL>
0.47971

>  <SCORE.INTRA.DIHEDRAL.0>
4.28829

>  <SCORE.INTRA.POLAR>
0

>  <SCORE.INTRA.POLAR.0>
0

>  <SCORE.INTRA.REPUL>
0

>  <SCORE.INTRA.REPUL.0>
0

>  <SCORE.INTRA.SOLV>
-0.494261

>  <SCORE.INTRA.SOLV.lig_0>
-48.6018

>  <SCORE.INTRA.VDW>
-0.444162

>  <SCORE.INTRA.VDW.0>
-2.1506

>  <SCORE.INTRA.norm>
-0.0167199

>  <SCORE.RESTR>
0

>  <SCORE.RESTR.CAVITY>
0

>  <SCORE.RESTR.norm>
0

>  <SCORE.SYSTEM>
0

>  <SCORE.SYSTEM.CONST>
0

>  <SCORE.SYSTEM.DIHEDRAL>
0

>  <SCORE.SYSTEM.SOLV>
0

>  <SCORE.SYSTEM.norm>
0

>  <SCORE.heavy>
27

>  <SCORE.norm>
-0.430968

>  <RMSD>
12.240

$$$$
ligand
 OpenBabel11021811483D
libRbt.so/2013.1/901 2013/11/27
 27 29  0  0  0  0  0  0  0  0999 V2000
   14.6131   -9.0630   13.4237 N   0  0  0  0  0  0  0  0  0  0  0  0
   14.2544   -9.1878   14.8378 C   0  0  2  0  0  0  0  0  0  0  0  0
   15.3043   -9.8500   15.7333 C   0  0  0  0  0  0  0  0  0  0  0  0
   15.2454   -9.6690   16.9488 O   0  0  0  0  0  0  0  0  0  0  0  0
   12.9074   -9.8723   14.9984 C   0  0  0  0  0  0  0  0  0  0  0  0
   12.9260  -11.2817   14.4323 C   0  0  0  0  0  0  0  0  0  0  0  0
   11.2560  -11.9499   14.3328 S   0  0  2  0  0  0  0  0  0  0  0  0
   10.4833  -10.7056   13.2776 C   0  0  0  0  0  0  0  0  0  0  0  0
   10.5989  -11.4351   15.9365 C   0  0  0  0  0  0  0  0  0  0  0  0
    9.4015  -12.2813   16.3279 C   0  0  1  0  0  0  0  0  0  0  0  0
    8.8909  -11.8719   17.5760 O   0  0  0  0  0  0  0  0  0  0  0  0
    8.2421  -12.1402   15.3615 C   0  0  1  0  0  0  0  0  0  0  0  0
    8.3441  -13.1558   14.3954 O   0  0  0  0  0  0  0  0  0  0  0  0
    7.0229  -12.3427   16.2382 C   0  0  1  0  0  0  0  0  0  0  0  0
    6.5911  -13.6727   16.0576 O   0  0  0  0  0  0  0  0  0  0  0  0
    7.4993  -12.1184   17.6750 C   0  0  2  0  0  0  0  0  0  0  0  0
   16.2147  -10.5559   15.2909 O   0  0  0  0  0  0  0  0  0  0  0  0
    7.8073   -8.4033   21.3521 N   0  0  0  0  0  0  0  0  0  0  0  0
    8.6606   -9.4604   21.1482 C   0  0  0  0  0  0  0  0  0  0  0  0
    8.4083  -10.3407   20.1190 N   0  0  0  0  0  0  0  0  0  0  0  0
    7.3393  -10.1796   19.3074 C   0  0  0  0  0  0  0  0  0  0  0  0
    6.4764   -9.1092   19.4923 C   0  0  0  0  0  0  0  0  0  0  0  0
    6.7125   -8.2161   20.5353 C   0  0  0  0  0  0  0  0  0  0  0  0
    5.9025   -7.1789   20.7494 N   0  0  0  0  0  0  0  0  0  0  0  0
    5.5079   -9.1850   18.5434 N   0  0  0  0  0  0  0  0  0  0  0  0
    5.7593  -10.2645   17.7675 C   0  0  0  0  0  0  0  0  0  0  0  0
    6.8949  -10.8879   18.2231 N   0  0  0  0  0  0  0  0  0  0  0  0
  2  1  1  6  0  0  0
  2  3  1  0  0  0  0
  2  5  1  0  0  0  0
  3  4  1  0  0  0  0
  3 17  1  0  0  0  0
  5  6  1  0  0  0  0
  7  6  1  1  0  0  0
  7  8  1  0  0  0  0
  7  9  1  0  0  0  0
 10  9  1  6  0  0  0
 10 11  1  0  0  0  0
 10 12  1  0  0  0  0
 11 16  1  0  0  0  0
 12 13  1  6  0  0  0
 12 14  1  0  0  0  0
 14 15  1  1  0  0  0
 14 16  1  0  0  0  0
 16 27  1  6  0  0  0
 18 19  2  0  0  0  0
 18 23  1  0  0  0  0
 19 20  1  0  0  0  0
 20 21  2  0  0  0  0
 21 22  1  0  0  0  0
 21 27  1  0  0  0  0
 22 23  2  0  0  0  0
 22 25  1  0  0  0  0
 23 24  1  0  0  0  0
 25 26  2  0  0  0  0
 26 27  1  0  0  0  0
M  END
>  <CHROM.1>
160.51442962,61.42174452,-168.71506258,58.00078050,-159.25304597,-179.77466619
-47.59874247,9.76038418,-10.64816113,16.83147563,-0.48499814,0.30629735,0.91322085

>  <Name>
ligand

>  <RI>
0

>  <Rbt.Current_Directory>
/home/itssahil/PROJECTS/Mol_Feturizer/New_Systems/rnas/3GX5

>  <Rbt.Executable>
rbdock ($Id: //depot/dev/client3/rdock/2013.1/src/exe/rbdock.cxx#4 $)

>  <Rbt.Library>
libRbt.so (2013.1, Build901 2013/11/27)

>  <Rbt.Parameter_File>
/export/apps/rDock/src/rDock_2013.1_src/data/scripts/dock_solv.prm

>  <Rbt.Receptor>
prm/blind_docking_80.prm

>  <SCORE>
-12.87

>  <SCORE.INTER>
-16.1511

>  <SCORE.INTER.CONST>
1

>  <SCORE.INTER.POLAR>
0

>  <SCORE.INTER.ROT>
7

>  <SCORE.INTER.SOLV>
11.4971

>  <SCORE.INTER.VDW>
-22.8664

>  <SCORE.INTER.norm>
-0.598189

>  <SCORE.INTRA>
3.28113

>  <SCORE.INTRA.DIHEDRAL>
1.85046

>  <SCORE.INTRA.DIHEDRAL.0>
4.28829

>  <SCORE.INTRA.POLAR>
0

>  <SCORE.INTRA.POLAR.0>
0

>  <SCORE.INTRA.REPUL>
0

>  <SCORE.INTRA.REPUL.0>
0

>  <SCORE.INTRA.SOLV>
0.00128355

>  <SCORE.INTRA.SOLV.lig_0>
-48.6018

>  <SCORE.INTRA.VDW>
2.35526

>  <SCORE.INTRA.VDW.0>
-2.1506

>  <SCORE.INTRA.norm>
0.121523

>  <SCORE.RESTR>
0

>  <SCORE.RESTR.CAVITY>
0

>  <SCORE.RESTR.norm>
0

>  <SCORE.SYSTEM>
0

>  <SCORE.SYSTEM.CONST>
0

>  <SCORE.SYSTEM.DIHEDRAL>
0

>  <SCORE.SYSTEM.SOLV>
0

>  <SCORE.SYSTEM.norm>
0

>  <SCORE.heavy>
27

>  <SCORE.norm>
-0.476666

>  <RMSD>
12.240

$$$$
ligand
 OpenBabel11021811483D
libRbt.so/2013.1/901 2013/11/27
 27 29  0  0  0  0  0  0  0  0999 V2000
    9.5147   -9.0350   22.6532 N   0  0  0  0  0  0  0  0  0  0  0  0
   10.7849   -9.1053   21.9282 C   0  0  2  0  0  0  0  0  0  0  0  0
   12.0157   -9.4371   22.7754 C   0  0  0  0  0  0  0  0  0  0  0  0
   12.5943  -10.5063   22.5864 O   0  0  0  0  0  0  0  0  0  0  0  0
   11.0191   -7.8410   21.1186 C   0  0  0  0  0  0  0  0  0  0  0  0
   12.3426   -7.8912   20.3748 C   0  0  0  0  0  0  0  0  0  0  0  0
   12.4136   -9.3340   19.2985 S   0  0  2  0  0  0  0  0  0  0  0  0
   14.0414   -9.0914   18.5566 C   0  0  0  0  0  0  0  0  0  0  0  0
   11.3725   -8.7759   17.9298 C   0  0  0  0  0  0  0  0  0  0  0  0
   11.2836   -9.8376   16.8492 C   0  0  1  0  0  0  0  0  0  0  0  0
   10.3006  -10.7942   17.1726 O   0  0  0  0  0  0  0  0  0  0  0  0
   10.8602   -9.2747   15.5067 C   0  0  1  0  0  0  0  0  0  0  0  0
   12.0170   -8.9622   14.7724 O   0  0  0  0  0  0  0  0  0  0  0  0
   10.1005  -10.4187   14.8661 C   0  0  1  0  0  0  0  0  0  0  0  0
   10.9773  -11.0513   13.9612 O   0  0  0  0  0  0  0  0  0  0  0  0
    9.7272  -11.3647   16.0095 C   0  0  2  0  0  0  0  0  0  0  0  0
   12.4539   -8.6814   23.6471 O   0  0  0  0  0  0  0  0  0  0  0  0
    5.3289   -8.5341   15.7632 N   0  0  0  0  0  0  0  0  0  0  0  0
    6.6024   -8.1439   15.4271 C   0  0  0  0  0  0  0  0  0  0  0  0
    7.6396   -9.0401   15.5640 N   0  0  0  0  0  0  0  0  0  0  0  0
    7.4241  -10.2945   16.0196 C   0  0  0  0  0  0  0  0  0  0  0  0
    6.1416  -10.7076   16.3498 C   0  0  0  0  0  0  0  0  0  0  0  0
    5.0836   -9.8093   16.2265 C   0  0  0  0  0  0  0  0  0  0  0  0
    3.8379  -10.1664   16.5401 N   0  0  0  0  0  0  0  0  0  0  0  0
    6.2126  -11.9986   16.7649 N   0  0  0  0  0  0  0  0  0  0  0  0
    7.5026  -12.3987   16.6840 C   0  0  0  0  0  0  0  0  0  0  0  0
    8.2654  -11.3567   16.2171 N   0  0  0  0  0  0  0  0  0  0  0  0
  2  1  1  1  0  0  0
  2  3  1  0  0  0  0
  2  5  1  0  0  0  0
  3  4  1  0  0  0  0
  3 17  1  0  0  0  0
  5  6  1  0  0  0  0
  7  6  1  1  0  0  0
  7  8  1  0  0  0  0
  7  9  1  0  0  0  0
 10  9  1  1  0  0  0
 10 11  1  0  0  0  0
 10 12  1  0  0  0  0
 11 16  1  0  0  0  0
 12 13  1  6  0  0  0
 12 14  1  0  0  0  0
 14 15  1  6  0  0  0
 14 16  1  0  0  0  0
 16 27  1  1  0  0  0
 18 19  2  0  0  0  0
 18 23  1  0  0  0  0
 19 20  1  0  0  0  0
 20 21  2  0  0  0  0
 21 22  1  0  0  0  0
 21 27  1  0  0  0  0
 22 23  2  0  0  0  0
 22 25  1  0  0  0  0
 23 24  1  0  0  0  0
 25 26  2  0  0  0  0
 26 27  1  0  0  0  0
M  END
>  <CHROM.1>
113.65177411,179.24740790,57.14465191,178.89394745,179.25685203,82.95147381
81.59915293,9.80031687,-9.74185314,17.94885110,0.83852936,0.07658441,1.43587256

>  <Name>
ligand

>  <RI>
0

>  <Rbt.Current_Directory>
/home/itssahil/PROJECTS/Mol_Feturizer/New_Systems/rnas/3GX5

>  <Rbt.Executable>
rbdock ($Id: //depot/dev/client3/rdock/2013.1/src/exe/rbdock.cxx#4 $)

>  <Rbt.Library>
libRbt.so (2013.1, Build901 2013/11/27)

>  <Rbt.Parameter_File>
/export/apps/rDock/src/rDock_2013.1_src/data/scripts/dock_solv.prm

>  <Rbt.Receptor>
prm/blind_docking_60.prm

>  <SCORE>
-10.9233

>  <SCORE.INTER>
-10.9002

>  <SCORE.INTER.CONST>
1

>  <SCORE.INTER.POLAR>
0

>  <SCORE.INTER.ROT>
7

>  <SCORE.INTER.SOLV>
10.3291

>  <SCORE.INTER.VDW>
-18.9765

>  <SCORE.INTER.norm>
-0.403712

>  <SCORE.INTRA>
-0.0230805

>  <SCORE.INTRA.DIHEDRAL>
1.20298

>  <SCORE.INTRA.DIHEDRAL.0>
4.28829

>  <SCORE.INTRA.POLAR>
0

>  <SCORE.INTRA.POLAR.0>
0

>  <SCORE.INTRA.REPUL>
0

>  <SCORE.INTRA.REPUL.0>
0

>  <SCORE.INTRA.SOLV>
-1.04732

>  <SCORE.INTRA.SOLV.lig_0>
-48.6018

>  <SCORE.INTRA.VDW>
-0.100907

>  <SCORE.INTRA.VDW.0>
-2.1506

>  <SCORE.INTRA.norm>
-0.000854833

>  <SCORE.RESTR>
0

>  <SCORE.RESTR.CAVITY>
0

>  <SCORE.RESTR.norm>
0

>  <SCORE.SYSTEM>
0

>  <SCORE.SYSTEM.CONST>
0

>  <SCORE.SYSTEM.DIHEDRAL>
0

>  <SCORE.SYSTEM.SOLV>
0

>  <SCORE.SYSTEM.norm>
0

>  <SCORE.heavy>
27

>  <SCORE.norm>
-0.404567

>  <RMSD>
12.242

$$$$
ligand
 OpenBabel11021811483D
libRbt.so/2013.1/901 2013/11/27
 27 29  0  0  0  0  0  0  0  0999 V2000
    8.0443   -4.7763   23.0481 N   0  0  0  0  0  0  0  0  0  0  0  0
    9.3274   -4.3880   22.4593 C   0  0  2  0  0  0  0  0  0  0  0  0
    9.2719   -3.2499   21.4373 C   0  0  0  0  0  0  0  0  0  0  0  0
    8.1821   -2.9330   20.9622 O   0  0  0  0  0  0  0  0  0  0  0  0
   10.0451   -5.5940   21.8767 C   0  0  0  0  0  0  0  0  0  0  0  0
   10.7069   -6.4275   22.9605 C   0  0  0  0  0  0  0  0  0  0  0  0
   11.4920   -7.8858   22.2518 S   0  0  2  0  0  0  0  0  0  0  0  0
   12.3022   -8.5506   23.7218 C   0  0  0  0  0  0  0  0  0  0  0  0
   12.9183   -7.1295   21.4378 C   0  0  0  0  0  0  0  0  0  0  0  0
   13.4931   -8.0557   20.3819 C   0  0  1  0  0  0  0  0  0  0  0  0
   12.4749   -8.5322   19.5320 O   0  0  0  0  0  0  0  0  0  0  0  0
   14.4793   -7.3596   19.4648 C   0  0  1  0  0  0  0  0  0  0  0  0
   15.7720   -7.5393   19.9860 O   0  0  0  0  0  0  0  0  0  0  0  0
   14.3162   -8.0913   18.1479 C   0  0  1  0  0  0  0  0  0  0  0  0
   15.3731   -9.0193   18.0486 O   0  0  0  0  0  0  0  0  0  0  0  0
   12.9691   -8.8119   18.2341 C   0  0  2  0  0  0  0  0  0  0  0  0
   10.2742   -2.6360   21.0615 O   0  0  0  0  0  0  0  0  0  0  0  0
    8.0549   -7.1637   17.4911 N   0  0  0  0  0  0  0  0  0  0  0  0
    8.6055   -7.6835   18.6373 C   0  0  0  0  0  0  0  0  0  0  0  0
    9.9290   -8.0655   18.6354 N   0  0  0  0  0  0  0  0  0  0  0  0
   10.6930   -7.9346   17.5278 C   0  0  0  0  0  0  0  0  0  0  0  0
   10.1548   -7.3984   16.3670 C   0  0  0  0  0  0  0  0  0  0  0  0
    8.8148   -7.0170   16.3502 C   0  0  0  0  0  0  0  0  0  0  0  0
    8.2594   -6.5038   15.2520 N   0  0  0  0  0  0  0  0  0  0  0  0
   11.1331   -7.3747   15.4255 N   0  0  0  0  0  0  0  0  0  0  0  0
   12.2653   -7.8666   15.9793 C   0  0  0  0  0  0  0  0  0  0  0  0
   12.0115   -8.2116   17.2840 N   0  0  0  0  0  0  0  0  0  0  0  0
  2  1  1  6  0  0  0
  2  3  1  0  0  0  0
  2  5  1  0  0  0  0
  3  4  1  0  0  0  0
  3 17  1  0  0  0  0
  5  6  1  0  0  0  0
  7  6  1  1  0  0  0
  7  8  1  0  0  0  0
  7  9  1  0  0  0  0
 10  9  1  1  0  0  0
 10 11  1  0  0  0  0
 10 12  1  0  0  0  0
 11 16  1  0  0  0  0
 12 13  1  1  0  0  0
 12 14  1  0  0  0  0
 14 15  1  1  0  0  0
 14 16  1  0  0  0  0
 16 27  1  6  0  0  0
 18 19  2  0  0  0  0
 18 23  1  0  0  0  0
 19 20  1  0  0  0  0
 20 21  2  0  0  0  0
 21 22  1  0  0  0  0
 21 27  1  0  0  0  0
 22 23  2  0  0  0  0
 22 25  1  0  0  0  0
 23 24  1  0  0  0  0
 25 26  2  0  0  0  0
 26 27  1  0  0  0  0
M  END
>  <CHROM.1>
-15.34106182,-77.88614397,177.66445594,174.64355673,-160.86055300,49.69561047
-23.88121985,11.22631829,-6.92232816,19.61009005,2.24318921,-0.52796009,1.26760307

>  <Name>
ligand

>  <RI>
0

>  <Rbt.Current_Directory>
/home/itssahil/PROJECTS/Mol_Feturizer/New_Systems/rnas/3GX5

>  <Rbt.Executable>
rbdock ($Id: //depot/dev/client3/rdock/2013.1/src/exe/rbdock.cxx#4 $)

>  <Rbt.Library>
libRbt.so (2013.1, Build901 2013/11/27)

>  <Rbt.Parameter_File>
/export/apps/rDock/src/rDock_2013.1_src/data/scripts/dock_solv.prm

>  <Rbt.Receptor>
prm/blind_docking_60.prm

>  <SCORE>
-10.9981

>  <SCORE.INTER>
-11.4266

>  <SCORE.INTER.CONST>
1

>  <SCORE.INTER.POLAR>
0

>  <SCORE.INTER.ROT>
7

>  <SCORE.INTER.SOLV>
13.6248

>  <SCORE.INTER.VDW>
-20.426

>  <SCORE.INTER.norm>
-0.423209

>  <SCORE.INTRA>
0.428515

>  <SCORE.INTRA.DIHEDRAL>
2.60317

>  <SCORE.INTRA.DIHEDRAL.0>
4.28829

>  <SCORE.INTRA.POLAR>
0

>  <SCORE.INTRA.POLAR.0>
0

>  <SCORE.INTRA.REPUL>
0

>  <SCORE.INTRA.REPUL.0>
0

>  <SCORE.INTRA.SOLV>
-0.676594

>  <SCORE.INTRA.SOLV.lig_0>
-48.6018

>  <SCORE.INTRA.VDW>
-0.534773

>  <SCORE.INTRA.VDW.0>
-2.1506

>  <SCORE.INTRA.norm>
0.0158709

>  <SCORE.RESTR>
0

>  <SCORE.RESTR.CAVITY>
0

>  <SCORE.RESTR.norm>
0

>  <SCORE.SYSTEM>
0

>  <SCORE.SYSTEM.CONST>
0

>  <SCORE.SYSTEM.DIHEDRAL>
0

>  <SCORE.SYSTEM.SOLV>
0

>  <SCORE.SYSTEM.norm>
0

>  <SCORE.heavy>
27

>  <SCORE.norm>
-0.407338

>  <RMSD>
12.321

$$$$
ligand
 OpenBabel11021811483D
libRbt.so/2013.1/901 2013/11/27
 27 29  0  0  0  0  0  0  0  0999 V2000
   15.4438   -9.4469   13.0360 N   0  0  0  0  0  0  0  0  0  0  0  0
   15.3548   -9.7363   14.4686 C   0  0  2  0  0  0  0  0  0  0  0  0
   16.6740  -10.0951   15.1569 C   0  0  0  0  0  0  0  0  0  0  0  0
   16.8153   -9.8189   16.3475 O   0  0  0  0  0  0  0  0  0  0  0  0
   14.3030  -10.7977   14.7442 C   0  0  0  0  0  0  0  0  0  0  0  0
   12.9336  -10.3700   14.2449 C   0  0  0  0  0  0  0  0  0  0  0  0
   11.7076  -11.6476   14.5761 S   0  0  2  0  0  0  0  0  0  0  0  0
   10.5267  -11.2979   13.2561 C   0  0  0  0  0  0  0  0  0  0  0  0
   10.8281  -10.9069   15.9712 C   0  0  0  0  0  0  0  0  0  0  0  0
   10.0000  -11.9469   16.7030 C   0  0  1  0  0  0  0  0  0  0  0  0
    9.3031  -11.3600   17.7782 O   0  0  0  0  0  0  0  0  0  0  0  0
    8.9274  -12.5650   15.8278 C   0  0  1  0  0  0  0  0  0  0  0  0
    9.4485  -13.7338   15.2470 O   0  0  0  0  0  0  0  0  0  0  0  0
    7.8164  -12.8909   16.8053 C   0  0  1  0  0  0  0  0  0  0  0  0
    7.9095  -14.2655   17.1049 O   0  0  0  0  0  0  0  0  0  0  0  0
    8.0934  -12.0453   18.0501 C   0  0  2  0  0  0  0  0  0  0  0  0
   17.6091  -10.6460   14.5697 O   0  0  0  0  0  0  0  0  0  0  0  0
    6.4347   -7.9411   20.8469 N   0  0  0  0  0  0  0  0  0  0  0  0
    7.5746   -8.6842   21.0352 C   0  0  0  0  0  0  0  0  0  0  0  0
    7.8397   -9.7372   20.1876 N   0  0  0  0  0  0  0  0  0  0  0  0
    6.9999  -10.0481   19.1748 C   0  0  0  0  0  0  0  0  0  0  0  0
    5.8520   -9.2983   18.9635 C   0  0  0  0  0  0  0  0  0  0  0  0
    5.5649   -8.2364   19.8188 C   0  0  0  0  0  0  0  0  0  0  0  0
    4.4683   -7.4965   19.6525 N   0  0  0  0  0  0  0  0  0  0  0  0
    5.2058   -9.8181   17.8882 N   0  0  0  0  0  0  0  0  0  0  0  0
    5.9329  -10.8586   17.4200 C   0  0  0  0  0  0  0  0  0  0  0  0
    7.0516  -11.0101   18.2018 N   0  0  0  0  0  0  0  0  0  0  0  0
  2  1  1  6  0  0  0
  2  3  1  0  0  0  0
  2  5  1  0  0  0  0
  3  4  1  0  0  0  0
  3 17  1  0  0  0  0
  5  6  1  0  0  0  0
  7  6  1  6  0  0  0
  7  8  1  0  0  0  0
  7  9  1  0  0  0  0
 10  9  1  6  0  0  0
 10 11  1  0  0  0  0
 10 12  1  0  0  0  0
 11 16  1  0  0  0  0
 12 13  1  1  0  0  0
 12 14  1  0  0  0  0
 14 15  1  1  0  0  0
 14 16  1  0  0  0  0
 16 27  1  6  0  0  0
 18 19  2  0  0  0  0
 18 23  1  0  0  0  0
 19 20  1  0  0  0  0
 20 21  2  0  0  0  0
 21 22  1  0  0  0  0
 21 27  1  0  0  0  0
 22 23  2  0  0  0  0
 22 25  1  0  0  0  0
 23 24  1  0  0  0  0
 25 26  2  0  0  0  0
 26 27  1  0  0  0  0
M  END
>  <CHROM.1>
150.38569943,-58.48510274,179.71900557,-153.32986571,-163.57656501,-179.21772161
-63.99256723,10.07383850,-10.72002908,16.74758187,-0.35580727,0.32957859
0.68642319

>  <Name>
ligand

>  <RI>
0

>  <Rbt.Current_Directory>
/home/itssahil/PROJECTS/Mol_Feturizer/New_Systems/rnas/3GX5

>  <Rbt.Executable>
rbdock ($Id: //depot/dev/client3/rdock/2013.1/src/exe/rbdock.cxx#4 $)

>  <Rbt.Library>
libRbt.so (2013.1, Build901 2013/11/27)

>  <Rbt.Parameter_File>
/export/apps/rDock/src/rDock_2013.1_src/data/scripts/dock_solv.prm

>  <Rbt.Receptor>
prm/blind_docking_80.prm

>  <SCORE>
-14.4524

>  <SCORE.INTER>
-16.3509

>  <SCORE.INTER.CONST>
1

>  <SCORE.INTER.POLAR>
0

>  <SCORE.INTER.ROT>
7

>  <SCORE.INTER.SOLV>
12.1214

>  <SCORE.INTER.VDW>
-23.2077

>  <SCORE.INTER.norm>
-0.60559

>  <SCORE.INTRA>
1.89847

>  <SCORE.INTRA.DIHEDRAL>
3.5827

>  <SCORE.INTRA.DIHEDRAL.0>
4.28829

>  <SCORE.INTRA.POLAR>
0

>  <SCORE.INTRA.POLAR.0>
0

>  <SCORE.INTRA.REPUL>
0

>  <SCORE.INTRA.REPUL.0>
0

>  <SCORE.INTRA.SOLV>
-0.286744

>  <SCORE.INTRA.SOLV.lig_0>
-48.6018

>  <SCORE.INTRA.VDW>
0.250495

>  <SCORE.INTRA.VDW.0>
-2.1506

>  <SCORE.INTRA.norm>
0.0703138

>  <SCORE.RESTR>
0

>  <SCORE.RESTR.CAVITY>
0

>  <SCORE.RESTR.norm>
0

>  <SCORE.SYSTEM>
0

>  <SCORE.SYSTEM.CONST>
0

>  <SCORE.SYSTEM.DIHEDRAL>
0

>  <SCORE.SYSTEM.SOLV>
0

>  <SCORE.SYSTEM.norm>
0

>  <SCORE.heavy>
27

>  <SCORE.norm>
-0.535276

>  <RMSD>
12.339

$$$$
ligand
 OpenBabel11021811483D
libRbt.so/2013.1/901 2013/11/27
 27 29  0  0  0  0  0  0  0  0999 V2000
   11.6316   -8.4446   23.7004 N   0  0  0  0  0  0  0  0  0  0  0  0
   12.4227   -7.9483   22.5728 C   0  0  2  0  0  0  0  0  0  0  0  0
   12.0990   -6.5258   22.1094 C   0  0  0  0  0  0  0  0  0  0  0  0
   13.0116   -5.8196   21.6829 O   0  0  0  0  0  0  0  0  0  0  0  0
   12.3680   -8.9162   21.4028 C   0  0  0  0  0  0  0  0  0  0  0  0
   13.2332   -8.4446   20.2467 C   0  0  0  0  0  0  0  0  0  0  0  0
   13.0059   -9.5044   18.8078 S   0  0  2  0  0  0  0  0  0  0  0  0
   13.6894   -8.4372   17.5220 C   0  0  0  0  0  0  0  0  0  0  0  0
   11.2419   -9.2614   18.4947 C   0  0  0  0  0  0  0  0  0  0  0  0
   10.7066  -10.3278   17.5570 C   0  0  1  0  0  0  0  0  0  0  0  0
    9.3024  -10.4079   17.6462 O   0  0  0  0  0  0  0  0  0  0  0  0
   10.9929  -10.0249   16.0994 C   0  0  1  0  0  0  0  0  0  0  0  0
   12.1982  -10.6544   15.7443 O   0  0  0  0  0  0  0  0  0  0  0  0
    9.8185  -10.6460   15.3707 C   0  0  1  0  0  0  0  0  0  0  0  0
   10.2484  -11.8889   14.8625 O   0  0  0  0  0  0  0  0  0  0  0  0
    8.7274  -10.8406   16.4259 C   0  0  2  0  0  0  0  0  0  0  0  0
   10.9611   -6.0499   22.1488 O   0  0  0  0  0  0  0  0  0  0  0  0
    3.5180  -10.3739   16.1771 N   0  0  0  0  0  0  0  0  0  0  0  0
    4.2493  -11.4834   16.5256 C   0  0  0  0  0  0  0  0  0  0  0  0
    5.6248  -11.4091   16.5302 N   0  0  0  0  0  0  0  0  0  0  0  0
    6.2644  -10.2644   16.2011 C   0  0  0  0  0  0  0  0  0  0  0  0
    5.5392   -9.1318   15.8605 C   0  0  0  0  0  0  0  0  0  0  0  0
    4.1475   -9.1941   15.8412 C   0  0  0  0  0  0  0  0  0  0  0  0
    3.4157   -8.1291   15.5128 N   0  0  0  0  0  0  0  0  0  0  0  0
    6.4225   -8.1369   15.5881 N   0  0  0  0  0  0  0  0  0  0  0  0
    7.6732   -8.6206   15.7675 C   0  0  0  0  0  0  0  0  0  0  0  0
    7.5927   -9.9357   16.1545 N   0  0  0  0  0  0  0  0  0  0  0  0
  2  1  1  1  0  0  0
  2  3  1  0  0  0  0
  2  5  1  0  0  0  0
  3  4  1  0  0  0  0
  3 17  1  0  0  0  0
  5  6  1  0  0  0  0
  7  6  1  1  0  0  0
  7  8  1  0  0  0  0
  7  9  1  0  0  0  0
 10  9  1  1  0  0  0
 10 11  1  0  0  0  0
 10 12  1  0  0  0  0
 11 16  1  0  0  0  0
 12 13  1  6  0  0  0
 12 14  1  0  0  0  0
 14 15  1  1  0  0  0
 14 16  1  0  0  0  0
 16 27  1  6  0  0  0
 18 19  2  0  0  0  0
 18 23  1  0  0  0  0
 19 20  1  0  0  0  0
 20 21  2  0  0  0  0
 21 22  1  0  0  0  0
 21 27  1  0  0  0  0
 22 23  2  0  0  0  0
 22 25  1  0  0  0  0
 23 24  1  0  0  0  0
 25 26  2  0  0  0  0
 26 27  1  0  0  0  0
M  END
>  <CHROM.1>
145.84725750,-177.51709107,-173.52439741,162.76623570,-164.79634301,161.23859559
-110.45686274,9.56013515,-9.28318764,17.95747682,0.65690743,-0.13138028,1.01981661

>  <Name>
ligand

>  <RI>
0

>  <Rbt.Current_Directory>
/home/itssahil/PROJECTS/Mol_Feturizer/New_Systems/rnas/3GX5

>  <Rbt.Executable>
rbdock ($Id: //depot/dev/client3/rdock/2013.1/src/exe/rbdock.cxx#4 $)

>  <Rbt.Library>
libRbt.so (2013.1, Build901 2013/11/27)

>  <Rbt.Parameter_File>
/export/apps/rDock/src/rDock_2013.1_src/data/scripts/dock_solv.prm

>  <Rbt.Receptor>
prm/blind_docking_60.prm

>  <SCORE>
-12.0616

>  <SCORE.INTER>
-13.0149

>  <SCORE.INTER.CONST>
1

>  <SCORE.INTER.POLAR>
0

>  <SCORE.INTER.ROT>
7

>  <SCORE.INTER.SOLV>
10.5736

>  <SCORE.INTER.VDW>
-20.4678

>  <SCORE.INTER.norm>
-0.482032

>  <SCORE.INTRA>
0.953264

>  <SCORE.INTRA.DIHEDRAL>
2.21698

>  <SCORE.INTRA.DIHEDRAL.0>
4.28829

>  <SCORE.INTRA.POLAR>
0

>  <SCORE.INTRA.POLAR.0>
0

>  <SCORE.INTRA.REPUL>
0

>  <SCORE.INTRA.REPUL.0>
0

>  <SCORE.INTRA.SOLV>
-1.06959

>  <SCORE.INTRA.SOLV.lig_0>
-48.6018

>  <SCORE.INTRA.VDW>
0.379571

>  <SCORE.INTRA.VDW.0>
-2.1506

>  <SCORE.INTRA.norm>
0.0353061

>  <SCORE.RESTR>
0

>  <SCORE.RESTR.CAVITY>
0

>  <SCORE.RESTR.norm>
0

>  <SCORE.SYSTEM>
0

>  <SCORE.SYSTEM.CONST>
0

>  <SCORE.SYSTEM.DIHEDRAL>
0

>  <SCORE.SYSTEM.SOLV>
0

>  <SCORE.SYSTEM.norm>
0

>  <SCORE.heavy>
27

>  <SCORE.norm>
-0.446726

>  <RMSD>
12.359

$$$$
ligand
 OpenBabel11021811483D
libRbt.so/2013.1/901 2013/11/27
 27 29  0  0  0  0  0  0  0  0999 V2000
   13.4031   -7.7866   16.3408 N   0  0  0  0  0  0  0  0  0  0  0  0
   13.7244   -9.1688   16.7016 C   0  0  2  0  0  0  0  0  0  0  0  0
   14.6850   -9.3412   17.8807 C   0  0  0  0  0  0  0  0  0  0  0  0
   15.8537   -8.9792   17.7506 O   0  0  0  0  0  0  0  0  0  0  0  0
   14.2185   -9.9452   15.4925 C   0  0  0  0  0  0  0  0  0  0  0  0
   13.1526  -10.0376   14.4142 C   0  0  0  0  0  0  0  0  0  0  0  0
   12.0114  -11.3876   14.7611 S   0  0  2  0  0  0  0  0  0  0  0  0
   10.8951  -11.2238   13.3518 C   0  0  0  0  0  0  0  0  0  0  0  0
   10.9878  -10.6322   16.0457 C   0  0  0  0  0  0  0  0  0  0  0  0
   10.2012  -11.6873   16.8014 C   0  0  1  0  0  0  0  0  0  0  0  0
    9.5756  -11.1252   17.9322 O   0  0  0  0  0  0  0  0  0  0  0  0
    9.0731  -12.2790   15.9794 C   0  0  1  0  0  0  0  0  0  0  0  0
    9.5508  -13.4347   15.3382 O   0  0  0  0  0  0  0  0  0  0  0  0
    8.0231  -12.6253   17.0156 C   0  0  1  0  0  0  0  0  0  0  0  0
    8.1274  -14.0074   17.2744 O   0  0  0  0  0  0  0  0  0  0  0  0
    8.3814  -11.8126   18.2616 C   0  0  2  0  0  0  0  0  0  0  0  0
   14.3423   -9.8338   18.9589 O   0  0  0  0  0  0  0  0  0  0  0  0
    6.9434   -7.7462   21.2306 N   0  0  0  0  0  0  0  0  0  0  0  0
    8.0918   -8.4943   21.3246 C   0  0  0  0  0  0  0  0  0  0  0  0
    8.2912   -9.5354   20.4449 N   0  0  0  0  0  0  0  0  0  0  0  0
    7.3789   -9.8298   19.4916 C   0  0  0  0  0  0  0  0  0  0  0  0
    6.2210   -9.0746   19.3754 C   0  0  0  0  0  0  0  0  0  0  0  0
    6.0002   -8.0248   20.2645 C   0  0  0  0  0  0  0  0  0  0  0  0
    4.8967   -7.2803   20.1892 N   0  0  0  0  0  0  0  0  0  0  0  0
    5.4966   -9.5774   18.3426 N   0  0  0  0  0  0  0  0  0  0  0  0
    6.1844  -10.6125   17.8077 C   0  0  0  0  0  0  0  0  0  0  0  0
    7.3566  -10.7776   18.5037 N   0  0  0  0  0  0  0  0  0  0  0  0
  2  1  1  6  0  0  0
  2  3  1  0  0  0  0
  2  5  1  0  0  0  0
  3  4  1  0  0  0  0
  3 17  1  0  0  0  0
  5  6  1  0  0  0  0
  7  6  1  6  0  0  0
  7  8  1  0  0  0  0
  7  9  1  0  0  0  0
 10  9  1  6  0  0  0
 10 11  1  0  0  0  0
 10 12  1  0  0  0  0
 11 16  1  0  0  0  0
 12 13  1  1  0  0  0
 12 14  1  0  0  0  0
 14 15  1  1  0  0  0
 14 16  1  0  0  0  0
 16 27  1  6  0  0  0
 18 19  2  0  0  0  0
 18 23  1  0  0  0  0
 19 20  1  0  0  0  0
 20 21  2  0  0  0  0
 21 22  1  0  0  0  0
 21 27  1  0  0  0  0
 22 23  2  0  0  0  0
 22 25  1  0  0  0  0
 23 24  1  0  0  0  0
 25 26  2  0  0  0  0
 26 27  1  0  0  0  0
M  END
>  <CHROM.1>
-67.32684586,-62.34820622,-82.98617896,179.45140656,-163.39626531,170.54883164
-63.11777766,9.94508090,-10.33420280,17.48212794,-0.41322144,0.26777800,0.80535798

>  <Name>
ligand

>  <RI>
0

>  <Rbt.Current_Directory>
/home/itssahil/PROJECTS/Mol_Feturizer/New_Systems/rnas/3GX5

>  <Rbt.Executable>
rbdock ($Id: //depot/dev/client3/rdock/2013.1/src/exe/rbdock.cxx#4 $)

>  <Rbt.Library>
libRbt.so (2013.1, Build901 2013/11/27)

>  <Rbt.Parameter_File>
/export/apps/rDock/src/rDock_2013.1_src/data/scripts/dock_solv.prm

>  <Rbt.Receptor>
prm/blind_docking_100.prm

>  <SCORE>
-12.1061

>  <SCORE.INTER>
-14.0797

>  <SCORE.INTER.CONST>
1

>  <SCORE.INTER.POLAR>
0

>  <SCORE.INTER.ROT>
7

>  <SCORE.INTER.SOLV>
11.2034

>  <SCORE.INTER.VDW>
-21.3876

>  <SCORE.INTER.norm>
-0.521471

>  <SCORE.INTRA>
1.97366

>  <SCORE.INTRA.DIHEDRAL>
3.13809

>  <SCORE.INTRA.DIHEDRAL.0>
4.28829

>  <SCORE.INTRA.POLAR>
0

>  <SCORE.INTRA.POLAR.0>
0

>  <SCORE.INTRA.REPUL>
0

>  <SCORE.INTRA.REPUL.0>
0

>  <SCORE.INTRA.SOLV>
0.756908

>  <SCORE.INTRA.SOLV.lig_0>
-48.6018

>  <SCORE.INTRA.VDW>
0.0261619

>  <SCORE.INTRA.VDW.0>
-2.1506

>  <SCORE.INTRA.norm>
0.0730986

>  <SCORE.RESTR>
0

>  <SCORE.RESTR.CAVITY>
0

>  <SCORE.RESTR.norm>
0

>  <SCORE.SYSTEM>
0

>  <SCORE.SYSTEM.CONST>
0

>  <SCORE.SYSTEM.DIHEDRAL>
0

>  <SCORE.SYSTEM.SOLV>
0

>  <SCORE.SYSTEM.norm>
0

>  <SCORE.heavy>
27

>  <SCORE.norm>
-0.448373

>  <RMSD>
12.410

$$$$
ligand
 OpenBabel11021811483D
libRbt.so/2013.1/901 2013/11/27
 27 29  0  0  0  0  0  0  0  0999 V2000
    7.9333   -4.4573   21.1016 N   0  0  0  0  0  0  0  0  0  0  0  0
    8.0154   -5.8785   21.4442 C   0  0  2  0  0  0  0  0  0  0  0  0
    6.7110   -6.6689   21.3162 C   0  0  0  0  0  0  0  0  0  0  0  0
    5.6436   -6.0836   21.4945 O   0  0  0  0  0  0  0  0  0  0  0  0
    8.6230   -6.0708   22.8236 C   0  0  0  0  0  0  0  0  0  0  0  0
   10.1102   -5.7619   22.8269 C   0  0  0  0  0  0  0  0  0  0  0  0
   11.0310   -7.0553   21.9757 S   0  0  2  0  0  0  0  0  0  0  0  0
   11.4832   -8.0942   23.3810 C   0  0  0  0  0  0  0  0  0  0  0  0
   12.6075   -6.2132   21.7038 C   0  0  0  0  0  0  0  0  0  0  0  0
   13.6494   -7.1756   21.1641 C   0  0  1  0  0  0  0  0  0  0  0  0
   13.1450   -7.8817   20.0536 O   0  0  0  0  0  0  0  0  0  0  0  0
   14.8906   -6.4708   20.6532 C   0  0  1  0  0  0  0  0  0  0  0  0
   15.8293   -6.4135   21.6976 O   0  0  0  0  0  0  0  0  0  0  0  0
   15.3745   -7.3710   19.5345 C   0  0  1  0  0  0  0  0  0  0  0  0
   16.4256   -8.1561   20.0511 O   0  0  0  0  0  0  0  0  0  0  0  0
   14.1788   -8.2480   19.1568 C   0  0  2  0  0  0  0  0  0  0  0  0
    6.6796   -7.8727   21.0467 O   0  0  0  0  0  0  0  0  0  0  0  0
   11.1700   -9.6796   15.1175 N   0  0  0  0  0  0  0  0  0  0  0  0
   11.3362  -10.3290   16.3166 C   0  0  0  0  0  0  0  0  0  0  0  0
   12.1805   -9.7905   17.2626 N   0  0  0  0  0  0  0  0  0  0  0  0
   12.8437   -8.6354   17.0315 C   0  0  0  0  0  0  0  0  0  0  0  0
   12.6752   -7.9610   15.8309 C   0  0  0  0  0  0  0  0  0  0  0  0
   11.8326   -8.4983   14.8601 C   0  0  0  0  0  0  0  0  0  0  0  0
   11.6498   -7.8835   13.6912 N   0  0  0  0  0  0  0  0  0  0  0  0
   13.4425   -6.8412   15.8699 N   0  0  0  0  0  0  0  0  0  0  0  0
   14.0674   -6.7980   17.0692 C   0  0  0  0  0  0  0  0  0  0  0  0
   13.7015   -7.8989   17.8039 N   0  0  0  0  0  0  0  0  0  0  0  0
  2  1  1  1  0  0  0
  2  3  1  0  0  0  0
  2  5  1  0  0  0  0
  3  4  1  0  0  0  0
  3 17  1  0  0  0  0
  5  6  1  0  0  0  0
  7  6  1  1  0  0  0
  7  8  1  0  0  0  0
  7  9  1  0  0  0  0
 10  9  1  6  0  0  0
 10 11  1  0  0  0  0
 10 12  1  0  0  0  0
 11 16  1  0  0  0  0
 12 13  1  1  0  0  0
 12 14  1  0  0  0  0
 14 15  1  1  0  0  0
 14 16  1  0  0  0  0
 16 27  1  6  0  0  0
 18 19  2  0  0  0  0
 18 23  1  0  0  0  0
 19 20  1  0  0  0  0
 20 21  2  0  0  0  0
 21 22  1  0  0  0  0
 21 27  1  0  0  0  0
 22 23  2  0  0  0  0
 22 25  1  0  0  0  0
 23 24  1  0  0  0  0
 25 26  2  0  0  0  0
 26 27  1  0  0  0  0
M  END
>  <CHROM.1>
-29.76033975,-71.64462849,-72.35485289,-94.27618424,171.83450778,50.79267418
-80.41983657,11.69656152,-7.37832345,19.57187758,2.36164953,-0.05934768,1.27765943

>  <Name>
ligand

>  <RI>
0

>  <Rbt.Current_Directory>
/home/itssahil/PROJECTS/Mol_Feturizer/New_Systems/rnas/3GX5

>  <Rbt.Executable>
rbdock ($Id: //depot/dev/client3/rdock/2013.1/src/exe/rbdock.cxx#4 $)

>  <Rbt.Library>
libRbt.so (2013.1, Build901 2013/11/27)

>  <Rbt.Parameter_File>
/export/apps/rDock/src/rDock_2013.1_src/data/scripts/dock_solv.prm

>  <Rbt.Receptor>
prm/blind_docking_100.prm

>  <SCORE>
-9.34189

>  <SCORE.INTER>
-10.3696

>  <SCORE.INTER.CONST>
1

>  <SCORE.INTER.POLAR>
0

>  <SCORE.INTER.ROT>
7

>  <SCORE.INTER.SOLV>
11.5751

>  <SCORE.INTER.VDW>
-19.0381

>  <SCORE.INTER.norm>
-0.38406

>  <SCORE.INTRA>
1.02773

>  <SCORE.INTRA.DIHEDRAL>
2.19221

>  <SCORE.INTRA.DIHEDRAL.0>
4.28829

>  <SCORE.INTRA.POLAR>
0

>  <SCORE.INTRA.POLAR.0>
0

>  <SCORE.INTRA.REPUL>
0

>  <SCORE.INTRA.REPUL.0>
0

>  <SCORE.INTRA.SOLV>
-0.260997

>  <SCORE.INTRA.SOLV.lig_0>
-48.6018

>  <SCORE.INTRA.VDW>
0.0621214

>  <SCORE.INTRA.VDW.0>
-2.1506

>  <SCORE.INTRA.norm>
0.038064

>  <SCORE.RESTR>
0

>  <SCORE.RESTR.CAVITY>
0

>  <SCORE.RESTR.norm>
0

>  <SCORE.SYSTEM>
0

>  <SCORE.SYSTEM.CONST>
0

>  <SCORE.SYSTEM.DIHEDRAL>
0

>  <SCORE.SYSTEM.SOLV>
0

>  <SCORE.SYSTEM.norm>
0

>  <SCORE.heavy>
27

>  <SCORE.norm>
-0.345996

>  <RMSD>
12.482

$$$$
ligand
 OpenBabel11021811483D
libRbt.so/2013.1/901 2013/11/27
 27 29  0  0  0  0  0  0  0  0999 V2000
   11.1702  -11.1292   15.7388 N   0  0  0  0  0  0  0  0  0  0  0  0
   10.6781  -11.8224   14.5467 C   0  0  2  0  0  0  0  0  0  0  0  0
   10.9847  -11.1435   13.2095 C   0  0  0  0  0  0  0  0  0  0  0  0
   10.3290  -10.1551   12.8828 O   0  0  0  0  0  0  0  0  0  0  0  0
    9.1929  -12.1206   14.6657 C   0  0  0  0  0  0  0  0  0  0  0  0
    8.9252  -13.2360   15.6615 C   0  0  0  0  0  0  0  0  0  0  0  0
    9.1866  -12.6600   17.3482 S   0  0  2  0  0  0  0  0  0  0  0  0
    8.4187  -14.0132   18.2637 C   0  0  0  0  0  0  0  0  0  0  0  0
    7.8745  -11.4234   17.4813 C   0  0  0  0  0  0  0  0  0  0  0  0
    7.9599  -10.6836   18.8036 C   0  0  1  0  0  0  0  0  0  0  0  0
    9.2637  -10.7615   19.3329 O   0  0  0  0  0  0  0  0  0  0  0  0
    7.6778   -9.2004   18.6656 C   0  0  1  0  0  0  0  0  0  0  0  0
    6.3098   -8.9852   18.9050 O   0  0  0  0  0  0  0  0  0  0  0  0
    8.5265   -8.5752   19.7541 C   0  0  1  0  0  0  0  0  0  0  0  0
    7.6775   -8.3063   20.8472 O   0  0  0  0  0  0  0  0  0  0  0  0
    9.5715   -9.6291   20.1266 C   0  0  2  0  0  0  0  0  0  0  0  0
   11.8592  -11.5461   12.4375 O   0  0  0  0  0  0  0  0  0  0  0  0
   13.7360   -6.7010   21.3518 N   0  0  0  0  0  0  0  0  0  0  0  0
   12.5917   -6.8891   22.0882 C   0  0  0  0  0  0  0  0  0  0  0  0
   11.5975   -7.7033   21.5917 N   0  0  0  0  0  0  0  0  0  0  0  0
   11.7311   -8.3204   20.3963 C   0  0  0  0  0  0  0  0  0  0  0  0
   12.8867   -8.1512   19.6477 C   0  0  0  0  0  0  0  0  0  0  0  0
   13.8969   -7.3226   20.1317 C   0  0  0  0  0  0  0  0  0  0  0  0
   15.0194   -7.1296   19.4387 N   0  0  0  0  0  0  0  0  0  0  0  0
   12.7584   -8.8827   18.5107 N   0  0  0  0  0  0  0  0  0  0  0  0
   11.5612   -9.5121   18.5454 C   0  0  0  0  0  0  0  0  0  0  0  0
   10.9151   -9.1799   19.7106 N   0  0  0  0  0  0  0  0  0  0  0  0
  2  1  1  1  0  0  0
  2  3  1  0  0  0  0
  2  5  1  0  0  0  0
  3  4  1  0  0  0  0
  3 17  1  0  0  0  0
  5  6  1  0  0  0  0
  7  6  1  6  0  0  0
  7  8  1  0  0  0  0
  7  9  1  0  0  0  0
 10  9  1  6  0  0  0
 10 11  1  0  0  0  0
 10 12  1  0  0  0  0
 11 16  1  0  0  0  0
 12 13  1  1  0  0  0
 12 14  1  0  0  0  0
 14 15  1  1  0  0  0
 14 16  1  0  0  0  0
 16 27  1  6  0  0  0
 18 19  2  0  0  0  0
 18 23  1  0  0  0  0
 19 20  1  0  0  0  0
 20 21  2  0  0  0  0
 21 22  1  0  0  0  0
 21 27  1  0  0  0  0
 22 23  2  0  0  0  0
 22 25  1  0  0  0  0
 23 24  1  0  0  0  0
 25 26  2  0  0  0  0
 26 27  1  0  0  0  0
M  END
>  <CHROM.1>
-75.78131317,-72.69434485,72.52755713,166.69125196,-174.84772555,22.57348918
-164.34941663,10.32039268,-10.00433765,18.05261477,-1.93649530,0.42297926
1.07730543

>  <Name>
ligand

>  <RI>
0

>  <Rbt.Current_Directory>
/home/itssahil/PROJECTS/Mol_Feturizer/New_Systems/rnas/3GX5

>  <Rbt.Executable>
rbdock ($Id: //depot/dev/client3/rdock/2013.1/src/exe/rbdock.cxx#4 $)

>  <Rbt.Library>
libRbt.so (2013.1, Build901 2013/11/27)

>  <Rbt.Parameter_File>
/export/apps/rDock/src/rDock_2013.1_src/data/scripts/dock_solv.prm

>  <Rbt.Receptor>
prm/blind_docking_40.prm

>  <SCORE>
-12.3742

>  <SCORE.INTER>
-15.8526

>  <SCORE.INTER.CONST>
1

>  <SCORE.INTER.POLAR>
0

>  <SCORE.INTER.ROT>
7

>  <SCORE.INTER.SOLV>
14.3429

>  <SCORE.INTER.VDW>
-23.616

>  <SCORE.INTER.norm>
-0.587134

>  <SCORE.INTRA>
3.47844

>  <SCORE.INTRA.DIHEDRAL>
4.52667

>  <SCORE.INTRA.DIHEDRAL.0>
4.28829

>  <SCORE.INTRA.POLAR>
0

>  <SCORE.INTRA.POLAR.0>
0

>  <SCORE.INTRA.REPUL>
0.00162457

>  <SCORE.INTRA.REPUL.0>
0

>  <SCORE.INTRA.SOLV>
1.99735

>  <SCORE.INTRA.SOLV.lig_0>
-48.6018

>  <SCORE.INTRA.VDW>
0.208302

>  <SCORE.INTRA.VDW.0>
-2.1506

>  <SCORE.INTRA.norm>
0.128831

>  <SCORE.RESTR>
0

>  <SCORE.RESTR.CAVITY>
0

>  <SCORE.RESTR.norm>
0

>  <SCORE.SYSTEM>
0

>  <SCORE.SYSTEM.CONST>
0

>  <SCORE.SYSTEM.DIHEDRAL>
0

>  <SCORE.SYSTEM.SOLV>
0

>  <SCORE.SYSTEM.norm>
0

>  <SCORE.heavy>
27

>  <SCORE.norm>
-0.458303

>  <RMSD>
12.511

$$$$
ligand
 OpenBabel11021811483D
libRbt.so/2013.1/901 2013/11/27
 27 29  0  0  0  0  0  0  0  0999 V2000
   10.5202   -7.5937   23.8013 N   0  0  0  0  0  0  0  0  0  0  0  0
    9.1477   -7.1509   24.0545 C   0  0  2  0  0  0  0  0  0  0  0  0
    8.3809   -7.9401   25.1184 C   0  0  0  0  0  0  0  0  0  0  0  0
    8.7842   -9.0596   25.4311 O   0  0  0  0  0  0  0  0  0  0  0  0
    8.3512   -7.0839   22.7622 C   0  0  0  0  0  0  0  0  0  0  0  0
    8.2687   -8.4415   22.0859 C   0  0  0  0  0  0  0  0  0  0  0  0
    7.9394   -8.2563   20.3245 S   0  0  2  0  0  0  0  0  0  0  0  0
    6.1467   -8.0472   20.3614 C   0  0  0  0  0  0  0  0  0  0  0  0
    8.0307   -9.9807   19.7889 C   0  0  0  0  0  0  0  0  0  0  0  0
    8.4596  -10.0744   18.3362 C   0  0  1  0  0  0  0  0  0  0  0  0
    9.4692   -9.1322   18.0548 O   0  0  0  0  0  0  0  0  0  0  0  0
    9.0671  -11.4194   17.9893 C   0  0  1  0  0  0  0  0  0  0  0  0
    8.0482  -12.2517   17.4950 O   0  0  0  0  0  0  0  0  0  0  0  0
   10.0720  -11.0858   16.9054 C   0  0  1  0  0  0  0  0  0  0  0  0
    9.4746  -11.3987   15.6672 O   0  0  0  0  0  0  0  0  0  0  0  0
   10.3257   -9.5811   17.0195 C   0  0  2  0  0  0  0  0  0  0  0  0
    7.3691   -7.5065   25.6761 O   0  0  0  0  0  0  0  0  0  0  0  0
   14.7649   -6.9301   16.1926 N   0  0  0  0  0  0  0  0  0  0  0  0
   13.5902   -6.8485   15.4853 C   0  0  0  0  0  0  0  0  0  0  0  0
   12.5232   -7.6358   15.8587 N   0  0  0  0  0  0  0  0  0  0  0  0
   12.6126   -8.4825   16.9088 C   0  0  0  0  0  0  0  0  0  0  0  0
   13.7879   -8.5656   17.6414 C   0  0  0  0  0  0  0  0  0  0  0  0
   14.8792   -7.7833   17.2696 C   0  0  0  0  0  0  0  0  0  0  0  0
   16.0278   -7.8398   17.9443 N   0  0  0  0  0  0  0  0  0  0  0  0
   13.5990   -9.4754   18.6317 N   0  0  0  0  0  0  0  0  0  0  0  0
   12.3330   -9.9439   18.5401 C   0  0  0  0  0  0  0  0  0  0  0  0
   11.7059   -9.3334   17.4819 N   0  0  0  0  0  0  0  0  0  0  0  0
  2  1  1  6  0  0  0
  2  3  1  0  0  0  0
  2  5  1  0  0  0  0
  3  4  1  0  0  0  0
  3 17  1  0  0  0  0
  5  6  1  0  0  0  0
  7  6  1  1  0  0  0
  7  8  1  0  0  0  0
  7  9  1  0  0  0  0
 10  9  1  1  0  0  0
 10 11  1  0  0  0  0
 10 12  1  0  0  0  0
 11 16  1  0  0  0  0
 12 13  1  6  0  0  0
 12 14  1  0  0  0  0
 14 15  1  6  0  0  0
 14 16  1  0  0  0  0
 16 27  1  1  0  0  0
 18 19  2  0  0  0  0
 18 23  1  0  0  0  0
 19 20  1  0  0  0  0
 20 21  2  0  0  0  0
 21 22  1  0  0  0  0
 21 27  1  0  0  0  0
 22 23  2  0  0  0  0
 22 25  1  0  0  0  0
 23 24  1  0  0  0  0
 25 26  2  0  0  0  0
 26 27  1  0  0  0  0
M  END
>  <CHROM.1>
-18.81154715,60.48478879,-157.19692948,-82.51802652,-152.24707038,40.17327448
-116.24462111,10.27782599,-8.84779221,19.47247228,-2.25135478,-0.41011034
-1.97343224

>  <Name>
ligand

>  <RI>
0

>  <Rbt.Current_Directory>
/home/itssahil/PROJECTS/Mol_Feturizer/New_Systems/rnas/3GX5

>  <Rbt.Executable>
rbdock ($Id: //depot/dev/client3/rdock/2013.1/src/exe/rbdock.cxx#4 $)

>  <Rbt.Library>
libRbt.so (2013.1, Build901 2013/11/27)

>  <Rbt.Parameter_File>
/export/apps/rDock/src/rDock_2013.1_src/data/scripts/dock_solv.prm

>  <Rbt.Receptor>
prm/blind_docking_40.prm

>  <SCORE>
-6.5694

>  <SCORE.INTER>
-9.35995

>  <SCORE.INTER.CONST>
1

>  <SCORE.INTER.POLAR>
0

>  <SCORE.INTER.ROT>
7

>  <SCORE.INTER.SOLV>
10.8434

>  <SCORE.INTER.VDW>
-18.1211

>  <SCORE.INTER.norm>
-0.346665

>  <SCORE.INTRA>
2.79054

>  <SCORE.INTRA.DIHEDRAL>
5.57297

>  <SCORE.INTRA.DIHEDRAL.0>
4.28829

>  <SCORE.INTRA.POLAR>
0

>  <SCORE.INTRA.POLAR.0>
0

>  <SCORE.INTRA.REPUL>
0

>  <SCORE.INTRA.REPUL.0>
0

>  <SCORE.INTRA.SOLV>
-0.427817

>  <SCORE.INTRA.SOLV.lig_0>
-48.6018

>  <SCORE.INTRA.VDW>
0.217967

>  <SCORE.INTRA.VDW.0>
-2.1506

>  <SCORE.INTRA.norm>
0.103354

>  <SCORE.RESTR>
0

>  <SCORE.RESTR.CAVITY>
0

>  <SCORE.RESTR.norm>
0

>  <SCORE.SYSTEM>
0

>  <SCORE.SYSTEM.CONST>
0

>  <SCORE.SYSTEM.DIHEDRAL>
0

>  <SCORE.SYSTEM.SOLV>
0

>  <SCORE.SYSTEM.norm>
0

>  <SCORE.heavy>
27

>  <SCORE.norm>
-0.243311

>  <RMSD>
12.515

$$$$
ligand
 OpenBabel11021811483D
libRbt.so/2013.1/901 2013/11/27
 27 29  0  0  0  0  0  0  0  0999 V2000
   10.0780   -8.0494   17.2701 N   0  0  0  0  0  0  0  0  0  0  0  0
   11.4303   -8.5451   17.5337 C   0  0  2  0  0  0  0  0  0  0  0  0
   12.5693   -7.5812   17.1927 C   0  0  0  0  0  0  0  0  0  0  0  0
   12.5695   -7.0298   16.0928 O   0  0  0  0  0  0  0  0  0  0  0  0
   11.6544   -9.8928   16.8686 C   0  0  0  0  0  0  0  0  0  0  0  0
   11.6048   -9.7835   15.3543 C   0  0  0  0  0  0  0  0  0  0  0  0
   11.6388  -11.4175   14.5966 S   0  0  2  0  0  0  0  0  0  0  0  0
   11.8107  -10.9539   12.8604 C   0  0  0  0  0  0  0  0  0  0  0  0
    9.8789  -11.8307   14.6253 C   0  0  0  0  0  0  0  0  0  0  0  0
    9.5417  -12.6794   15.8373 C   0  0  1  0  0  0  0  0  0  0  0  0
    9.5389  -11.8945   17.0078 O   0  0  0  0  0  0  0  0  0  0  0  0
    8.1529  -13.2828   15.7633 C   0  0  1  0  0  0  0  0  0  0  0  0
    8.2557  -14.5627   15.1920 O   0  0  0  0  0  0  0  0  0  0  0  0
    7.7248  -13.3666   17.2144 C   0  0  1  0  0  0  0  0  0  0  0  0
    7.9290  -14.6962   17.6371 O   0  0  0  0  0  0  0  0  0  0  0  0
    8.6428  -12.4090   17.9770 C   0  0  2  0  0  0  0  0  0  0  0  0
   13.4949   -7.3342   17.9705 O   0  0  0  0  0  0  0  0  0  0  0  0
    4.0880   -9.8328   17.7907 N   0  0  0  0  0  0  0  0  0  0  0  0
    4.4333  -10.9838   17.1251 C   0  0  0  0  0  0  0  0  0  0  0  0
    5.6923  -11.5134   17.3042 N   0  0  0  0  0  0  0  0  0  0  0  0
    6.5895  -10.9218   18.1244 C   0  0  0  0  0  0  0  0  0  0  0  0
    6.2506   -9.7668   18.8141 C   0  0  0  0  0  0  0  0  0  0  0  0
    4.9844   -9.2134   18.6354 C   0  0  0  0  0  0  0  0  0  0  0  0
    4.6235   -8.1008   19.2753 N   0  0  0  0  0  0  0  0  0  0  0  0
    7.3223   -9.3975   19.5619 N   0  0  0  0  0  0  0  0  0  0  0  0
    8.3080  -10.3030   19.3648 C   0  0  0  0  0  0  0  0  0  0  0  0
    7.8677  -11.2583   18.4821 N   0  0  0  0  0  0  0  0  0  0  0  0
  2  1  1  6  0  0  0
  2  3  1  0  0  0  0
  2  5  1  0  0  0  0
  3  4  1  0  0  0  0
  3 17  1  0  0  0  0
  5  6  1  0  0  0  0
  7  6  1  1  0  0  0
  7  8  1  0  0  0  0
  7  9  1  0  0  0  0
 10  9  1  6  0  0  0
 10 11  1  0  0  0  0
 10 12  1  0  0  0  0
 11 16  1  0  0  0  0
 12 13  1  1  0  0  0
 12 14  1  0  0  0  0
 14 15  1  1  0  0  0
 14 16  1  0  0  0  0
 16 27  1  6  0  0  0
 18 19  2  0  0  0  0
 18 23  1  0  0  0  0
 19 20  1  0  0  0  0
 20 21  2  0  0  0  0
 21 22  1  0  0  0  0
 21 27  1  0  0  0  0
 22 23  2  0  0  0  0
 22 25  1  0  0  0  0
 23 24  1  0  0  0  0
 25 26  2  0  0  0  0
 26 27  1  0  0  0  0
M  END
>  <CHROM.1>
-48.66279773,65.11043921,-171.98271393,-172.23391532,-96.38059361,74.21129243
101.55692148,8.99175612,-10.67221437,16.92542625,0.05371131,0.41304048,0.48560596

>  <Name>
ligand

>  <RI>
0

>  <Rbt.Current_Directory>
/home/itssahil/PROJECTS/Mol_Feturizer/New_Systems/rnas/3GX5

>  <Rbt.Executable>
rbdock ($Id: //depot/dev/client3/rdock/2013.1/src/exe/rbdock.cxx#4 $)

>  <Rbt.Library>
libRbt.so (2013.1, Build901 2013/11/27)

>  <Rbt.Parameter_File>
/export/apps/rDock/src/rDock_2013.1_src/data/scripts/dock_solv.prm

>  <Rbt.Receptor>
prm/blind_docking_80.prm

>  <SCORE>
-17.1687

>  <SCORE.INTER>
-18.2176

>  <SCORE.INTER.CONST>
1

>  <SCORE.INTER.POLAR>
0

>  <SCORE.INTER.ROT>
7

>  <SCORE.INTER.SOLV>
12.3488

>  <SCORE.INTER.VDW>
-24.528

>  <SCORE.INTER.norm>
-0.674728

>  <SCORE.INTRA>
1.04899

>  <SCORE.INTRA.DIHEDRAL>
2.75553

>  <SCORE.INTRA.DIHEDRAL.0>
4.28829

>  <SCORE.INTRA.POLAR>
0

>  <SCORE.INTRA.POLAR.0>
0

>  <SCORE.INTRA.REPUL>
0

>  <SCORE.INTRA.REPUL.0>
0

>  <SCORE.INTRA.SOLV>
0.291713

>  <SCORE.INTRA.SOLV.lig_0>
-48.6018

>  <SCORE.INTRA.VDW>
-0.474636

>  <SCORE.INTRA.VDW.0>
-2.1506

>  <SCORE.INTRA.norm>
0.0388514

>  <SCORE.RESTR>
0

>  <SCORE.RESTR.CAVITY>
0

>  <SCORE.RESTR.norm>
0

>  <SCORE.SYSTEM>
0

>  <SCORE.SYSTEM.CONST>
0

>  <SCORE.SYSTEM.DIHEDRAL>
0

>  <SCORE.SYSTEM.SOLV>
0

>  <SCORE.SYSTEM.norm>
0

>  <SCORE.heavy>
27

>  <SCORE.norm>
-0.635876

>  <RMSD>
12.516

$$$$
ligand
 OpenBabel11021811483D
libRbt.so/2013.1/901 2013/11/27
 27 29  0  0  0  0  0  0  0  0999 V2000
   13.2942   -6.9818   21.8380 N   0  0  0  0  0  0  0  0  0  0  0  0
   12.1790   -7.9275   21.7621 C   0  0  2  0  0  0  0  0  0  0  0  0
   11.8165   -8.6335   23.0709 C   0  0  0  0  0  0  0  0  0  0  0  0
   12.5634   -8.5047   24.0400 O   0  0  0  0  0  0  0  0  0  0  0  0
   12.4009   -8.9415   20.6524 C   0  0  0  0  0  0  0  0  0  0  0  0
   12.5146   -8.2685   19.2953 C   0  0  0  0  0  0  0  0  0  0  0  0
   12.2543   -9.4603   17.9698 S   0  0  2  0  0  0  0  0  0  0  0  0
   12.0709   -8.3359   16.5694 C   0  0  0  0  0  0  0  0  0  0  0  0
   10.5186   -9.8851   18.2446 C   0  0  0  0  0  0  0  0  0  0  0  0
   10.1512  -11.1622   17.5118 C   0  0  1  0  0  0  0  0  0  0  0  0
    8.8383  -11.5598   17.8348 O   0  0  0  0  0  0  0  0  0  0  0  0
   10.1539  -10.9957   16.0050 C   0  0  1  0  0  0  0  0  0  0  0  0
   11.4209  -11.3635   15.5207 O   0  0  0  0  0  0  0  0  0  0  0  0
    9.0891  -11.9679   15.5389 C   0  0  1  0  0  0  0  0  0  0  0  0
    9.7486  -13.1298   15.0882 O   0  0  0  0  0  0  0  0  0  0  0  0
    8.2342  -12.2737   16.7706 C   0  0  2  0  0  0  0  0  0  0  0  0
   10.8084   -9.3336   23.1987 O   0  0  0  0  0  0  0  0  0  0  0  0
    5.4371   -8.0534   15.4353 N   0  0  0  0  0  0  0  0  0  0  0  0
    6.8037   -8.1940   15.4341 C   0  0  0  0  0  0  0  0  0  0  0  0
    7.3576   -9.3935   15.8241 N   0  0  0  0  0  0  0  0  0  0  0  0
    6.5800  -10.4321   16.2038 C   0  0  0  0  0  0  0  0  0  0  0  0
    5.1981  -10.3098   16.1969 C   0  0  0  0  0  0  0  0  0  0  0  0
    4.6232   -9.0995   15.8149 C   0  0  0  0  0  0  0  0  0  0  0  0
    3.2995   -8.9406   15.8015 N   0  0  0  0  0  0  0  0  0  0  0  0
    4.6723  -11.4918   16.6097 N   0  0  0  0  0  0  0  0  0  0  0  0
    5.6925  -12.3459   16.8555 C   0  0  0  0  0  0  0  0  0  0  0  0
    6.8813  -11.7071   16.6020 N   0  0  0  0  0  0  0  0  0  0  0  0
  2  1  1  1  0  0  0
  2  3  1  0  0  0  0
  2  5  1  0  0  0  0
  3  4  1  0  0  0  0
  3 17  1  0  0  0  0
  5  6  1  0  0  0  0
  7  6  1  1  0  0  0
  7  8  1  0  0  0  0
  7  9  1  0  0  0  0
 10  9  1  1  0  0  0
 10 11  1  0  0  0  0
 10 12  1  0  0  0  0
 11 16  1  0  0  0  0
 12 13  1  6  0  0  0
 12 14  1  0  0  0  0
 14 15  1  1  0  0  0
 14 16  1  0  0  0  0
 16 27  1  6  0  0  0
 18 19  2  0  0  0  0
 18 23  1  0  0  0  0
 19 20  1  0  0  0  0
 20 21  2  0  0  0  0
 21 22  1  0  0  0  0
 21 27  1  0  0  0  0
 22 23  2  0  0  0  0
 22 25  1  0  0  0  0
 23 24  1  0  0  0  0
 25 26  2  0  0  0  0
 26 27  1  0  0  0  0
M  END
>  <CHROM.1>
-9.04604408,-60.44681805,-162.09471688,167.67496157,-163.78830652,174.19306449
65.16321468,9.31504082,-9.93756251,17.89810189,0.73942374,-0.14775584,1.07526239

>  <Name>
ligand

>  <RI>
0

>  <Rbt.Current_Directory>
/home/itssahil/PROJECTS/Mol_Feturizer/New_Systems/rnas/3GX5

>  <Rbt.Executable>
rbdock ($Id: //depot/dev/client3/rdock/2013.1/src/exe/rbdock.cxx#4 $)

>  <Rbt.Library>
libRbt.so (2013.1, Build901 2013/11/27)

>  <Rbt.Parameter_File>
/export/apps/rDock/src/rDock_2013.1_src/data/scripts/dock_solv.prm

>  <Rbt.Receptor>
prm/blind_docking_60.prm

>  <SCORE>
-13.7097

>  <SCORE.INTER>
-14.087

>  <SCORE.INTER.CONST>
1

>  <SCORE.INTER.POLAR>
0

>  <SCORE.INTER.ROT>
7

>  <SCORE.INTER.SOLV>
13.2995

>  <SCORE.INTER.VDW>
-22.0912

>  <SCORE.INTER.norm>
-0.521742

>  <SCORE.INTRA>
0.372827

>  <SCORE.INTRA.DIHEDRAL>
2.01478

>  <SCORE.INTRA.DIHEDRAL.0>
4.28829

>  <SCORE.INTRA.POLAR>
0

>  <SCORE.INTRA.POLAR.0>
0

>  <SCORE.INTRA.REPUL>
0

>  <SCORE.INTRA.REPUL.0>
0

>  <SCORE.INTRA.SOLV>
-0.229836

>  <SCORE.INTRA.SOLV.lig_0>
-48.6018

>  <SCORE.INTRA.VDW>
-0.519644

>  <SCORE.INTRA.VDW.0>
-2.1506

>  <SCORE.INTRA.norm>
0.0138084

>  <SCORE.RESTR>
0.00448015

>  <SCORE.RESTR.CAVITY>
0.00448015

>  <SCORE.RESTR.norm>
0.000165932

>  <SCORE.SYSTEM>
0

>  <SCORE.SYSTEM.CONST>
0

>  <SCORE.SYSTEM.DIHEDRAL>
0

>  <SCORE.SYSTEM.SOLV>
0

>  <SCORE.SYSTEM.norm>
0

>  <SCORE.heavy>
27

>  <SCORE.norm>
-0.507767

>  <RMSD>
12.527

$$$$
ligand
 OpenBabel11021811483D
libRbt.so/2013.1/901 2013/11/27
 27 29  0  0  0  0  0  0  0  0999 V2000
    3.9215  -11.1284   16.5709 N   0  0  0  0  0  0  0  0  0  0  0  0
    4.9845  -10.7988   17.5223 C   0  0  2  0  0  0  0  0  0  0  0  0
    4.9560   -9.3748   18.0829 C   0  0  0  0  0  0  0  0  0  0  0  0
    5.2371   -9.1989   19.2677 O   0  0  0  0  0  0  0  0  0  0  0  0
    6.3519  -11.1162   16.9407 C   0  0  0  0  0  0  0  0  0  0  0  0
    6.6769  -12.5958   17.0527 C   0  0  0  0  0  0  0  0  0  0  0  0
    7.2330  -13.2472   15.4679 S   0  0  2  0  0  0  0  0  0  0  0  0
    7.0047  -15.0143   15.7583 C   0  0  0  0  0  0  0  0  0  0  0  0
    9.0254  -13.1366   15.6767 C   0  0  0  0  0  0  0  0  0  0  0  0
    9.5376  -11.7744   15.2465 C   0  0  1  0  0  0  0  0  0  0  0  0
    9.2969  -10.8140   16.2494 O   0  0  0  0  0  0  0  0  0  0  0  0
   11.0381  -11.7528   15.0312 C   0  0  1  0  0  0  0  0  0  0  0  0
   11.2951  -12.0142   13.6745 O   0  0  0  0  0  0  0  0  0  0  0  0
   11.4284  -10.3348   15.3963 C   0  0  1  0  0  0  0  0  0  0  0  0
   11.5702   -9.6144   14.1926 O   0  0  0  0  0  0  0  0  0  0  0  0
   10.2669   -9.7818   16.2249 C   0  0  2  0  0  0  0  0  0  0  0  0
    4.6574   -8.3909   17.4007 O   0  0  0  0  0  0  0  0  0  0  0  0
    8.8596   -9.9944   21.2640 N   0  0  0  0  0  0  0  0  0  0  0  0
    8.1056  -10.3226   20.1636 C   0  0  0  0  0  0  0  0  0  0  0  0
    8.6571  -10.1970   18.9075 N   0  0  0  0  0  0  0  0  0  0  0  0
    9.9256   -9.7600   18.7413 C   0  0  0  0  0  0  0  0  0  0  0  0
   10.7040   -9.4380   19.8436 C   0  0  0  0  0  0  0  0  0  0  0  0
   10.1568   -9.5500   21.1201 C   0  0  0  0  0  0  0  0  0  0  0  0
   10.8707   -9.2438   22.2037 N   0  0  0  0  0  0  0  0  0  0  0  0
   11.9221   -9.0416   19.3930 N   0  0  0  0  0  0  0  0  0  0  0  0
   11.9218   -9.1261   18.0426 C   0  0  0  0  0  0  0  0  0  0  0  0
   10.6943   -9.5765   17.6231 N   0  0  0  0  0  0  0  0  0  0  0  0
  2  1  1  6  0  0  0
  2  3  1  0  0  0  0
  2  5  1  0  0  0  0
  3  4  1  0  0  0  0
  3 17  1  0  0  0  0
  5  6  1  0  0  0  0
  7  6  1  1  0  0  0
  7  8  1  0  0  0  0
  7  9  1  0  0  0  0
 10  9  1  1  0  0  0
 10 11  1  0  0  0  0
 10 12  1  0  0  0  0
 11 16  1  0  0  0  0
 12 13  1  6  0  0  0
 12 14  1  0  0  0  0
 14 15  1  6  0  0  0
 14 16  1  0  0  0  0
 16 27  1  1  0  0  0
 18 19  2  0  0  0  0
 18 23  1  0  0  0  0
 19 20  1  0  0  0  0
 20 21  2  0  0  0  0
 21 22  1  0  0  0  0
 21 27  1  0  0  0  0
 22 23  2  0  0  0  0
 22 25  1  0  0  0  0
 23 24  1  0  0  0  0
 25 26  2  0  0  0  0
 26 27  1  0  0  0  0
M  END
>  <CHROM.1>
141.14341449,-80.21330590,130.08010699,-162.15780417,-87.75035947,78.70861101
-30.80100740,8.64257129,-10.75128215,17.35128505,2.39046823,-0.14671099,-2.10242666

>  <Name>
ligand

>  <RI>
0

>  <Rbt.Current_Directory>
/home/itssahil/PROJECTS/Mol_Feturizer/New_Systems/rnas/3GX5

>  <Rbt.Executable>
rbdock ($Id: //depot/dev/client3/rdock/2013.1/src/exe/rbdock.cxx#4 $)

>  <Rbt.Library>
libRbt.so (2013.1, Build901 2013/11/27)

>  <Rbt.Parameter_File>
/export/apps/rDock/src/rDock_2013.1_src/data/scripts/dock_solv.prm

>  <Rbt.Receptor>
prm/blind_docking_80.prm

>  <SCORE>
-12.2165

>  <SCORE.INTER>
-15.0593

>  <SCORE.INTER.CONST>
1

>  <SCORE.INTER.POLAR>
0

>  <SCORE.INTER.ROT>
7

>  <SCORE.INTER.SOLV>
14.6007

>  <SCORE.INTER.VDW>
-23.1731

>  <SCORE.INTER.norm>
-0.557752

>  <SCORE.INTRA>
2.84284

>  <SCORE.INTRA.DIHEDRAL>
9.61339

>  <SCORE.INTRA.DIHEDRAL.0>
4.28829

>  <SCORE.INTRA.POLAR>
0

>  <SCORE.INTRA.POLAR.0>
0

>  <SCORE.INTRA.REPUL>
0

>  <SCORE.INTRA.REPUL.0>
0

>  <SCORE.INTRA.SOLV>
-0.240374

>  <SCORE.INTRA.SOLV.lig_0>
-48.6018

>  <SCORE.INTRA.VDW>
-1.84367

>  <SCORE.INTRA.VDW.0>
-2.1506

>  <SCORE.INTRA.norm>
0.10529

>  <SCORE.RESTR>
0

>  <SCORE.RESTR.CAVITY>
0

>  <SCORE.RESTR.norm>
0

>  <SCORE.SYSTEM>
0

>  <SCORE.SYSTEM.CONST>
0

>  <SCORE.SYSTEM.DIHEDRAL>
0

>  <SCORE.SYSTEM.SOLV>
0

>  <SCORE.SYSTEM.norm>
0

>  <SCORE.heavy>
27

>  <SCORE.norm>
-0.452461

>  <RMSD>
12.532

$$$$
ligand
 OpenBabel11021811483D
libRbt.so/2013.1/901 2013/11/27
 27 29  0  0  0  0  0  0  0  0999 V2000
    7.6831  -16.6088   18.7162 N   0  0  0  0  0  0  0  0  0  0  0  0
    8.7223  -15.7111   19.2243 C   0  0  2  0  0  0  0  0  0  0  0  0
    8.9688  -15.7676   20.7339 C   0  0  0  0  0  0  0  0  0  0  0  0
    8.0167  -15.6053   21.4961 O   0  0  0  0  0  0  0  0  0  0  0  0
    8.4707  -14.2807   18.7777 C   0  0  0  0  0  0  0  0  0  0  0  0
    8.5576  -14.1436   17.2674 C   0  0  0  0  0  0  0  0  0  0  0  0
    8.2967  -12.4327   16.7674 S   0  0  2  0  0  0  0  0  0  0  0  0
    8.6496  -12.5653   15.0019 C   0  0  0  0  0  0  0  0  0  0  0  0
    9.8444  -11.6855   17.3287 C   0  0  0  0  0  0  0  0  0  0  0  0
   10.1634  -10.4357   16.5292 C   0  0  1  0  0  0  0  0  0  0  0  0
    9.1346   -9.4824   16.6666 O   0  0  0  0  0  0  0  0  0  0  0  0
   11.4181   -9.7348   17.0117 C   0  0  1  0  0  0  0  0  0  0  0  0
   12.5069  -10.2069   16.2589 O   0  0  0  0  0  0  0  0  0  0  0  0
   11.1441   -8.2740   16.7165 C   0  0  1  0  0  0  0  0  0  0  0  0
   11.8147   -7.9541   15.5181 O   0  0  0  0  0  0  0  0  0  0  0  0
    9.6288   -8.1611   16.5359 C   0  0  2  0  0  0  0  0  0  0  0  0
   10.0838  -15.9637   21.2249 O   0  0  0  0  0  0  0  0  0  0  0  0
    7.3234   -3.6755   17.9439 N   0  0  0  0  0  0  0  0  0  0  0  0
    7.7304   -4.0563   16.6883 C   0  0  0  0  0  0  0  0  0  0  0  0
    8.3248   -5.2872   16.5175 N   0  0  0  0  0  0  0  0  0  0  0  0
    8.5107   -6.1249   17.5621 C   0  0  0  0  0  0  0  0  0  0  0  0
    8.0924   -5.7602   18.8335 C   0  0  0  0  0  0  0  0  0  0  0  0
    7.4989   -4.5141   19.0241 C   0  0  0  0  0  0  0  0  0  0  0  0
    7.0896   -4.1246   20.2318 N   0  0  0  0  0  0  0  0  0  0  0  0
    8.3909   -6.7795   19.6797 N   0  0  0  0  0  0  0  0  0  0  0  0
    8.9673   -7.7707   18.9614 C   0  0  0  0  0  0  0  0  0  0  0  0
    9.0426   -7.3839   17.6459 N   0  0  0  0  0  0  0  0  0  0  0  0
  2  1  1  1  0  0  0
  2  3  1  0  0  0  0
  2  5  1  0  0  0  0
  3  4  1  0  0  0  0
  3 17  1  0  0  0  0
  5  6  1  0  0  0  0
  7  6  1  1  0  0  0
  7  8  1  0  0  0  0
  7  9  1  0  0  0  0
 10  9  1  1  0  0  0
 10 11  1  0  0  0  0
 10 12  1  0  0  0  0
 11 16  1  0  0  0  0
 12 13  1  6  0  0  0
 12 14  1  0  0  0  0
 14 15  1  6  0  0  0
 14 16  1  0  0  0  0
 16 27  1  1  0  0  0
 18 19  2  0  0  0  0
 18 23  1  0  0  0  0
 19 20  1  0  0  0  0
 20 21  2  0  0  0  0
 21 22  1  0  0  0  0
 21 27  1  0  0  0  0
 22 23  2  0  0  0  0
 22 25  1  0  0  0  0
 23 24  1  0  0  0  0
 25 26  2  0  0  0  0
 26 27  1  0  0  0  0
M  END
>  <CHROM.1>
-54.16908005,-64.00863694,-178.58240481,173.64551421,155.06267081,59.72393314
-136.43644377,9.04486124,-10.04508908,17.89087044,1.50743228,-0.97521277
2.95510550

>  <Name>
ligand

>  <RI>
0

>  <Rbt.Current_Directory>
/home/itssahil/PROJECTS/Mol_Feturizer/New_Systems/rnas/3GX5

>  <Rbt.Executable>
rbdock ($Id: //depot/dev/client3/rdock/2013.1/src/exe/rbdock.cxx#4 $)

>  <Rbt.Library>
libRbt.so (2013.1, Build901 2013/11/27)

>  <Rbt.Parameter_File>
/export/apps/rDock/src/rDock_2013.1_src/data/scripts/dock_solv.prm

>  <Rbt.Receptor>
prm/blind_docking_60.prm

>  <SCORE>
-17.9032

>  <SCORE.INTER>
-18.0639

>  <SCORE.INTER.CONST>
1

>  <SCORE.INTER.POLAR>
0

>  <SCORE.INTER.ROT>
7

>  <SCORE.INTER.SOLV>
10.937

>  <SCORE.INTER.VDW>
-23.955

>  <SCORE.INTER.norm>
-0.669034

>  <SCORE.INTRA>
0.16071

>  <SCORE.INTRA.DIHEDRAL>
-0.0721452

>  <SCORE.INTRA.DIHEDRAL.0>
4.28829

>  <SCORE.INTRA.POLAR>
0

>  <SCORE.INTRA.POLAR.0>
0

>  <SCORE.INTRA.REPUL>
0

>  <SCORE.INTRA.REPUL.0>
0

>  <SCORE.INTRA.SOLV>
-0.619088

>  <SCORE.INTRA.SOLV.lig_0>
-48.6018

>  <SCORE.INTRA.VDW>
0.506327

>  <SCORE.INTRA.VDW.0>
-2.1506

>  <SCORE.INTRA.norm>
0.00595223

>  <SCORE.RESTR>
0

>  <SCORE.RESTR.CAVITY>
0

>  <SCORE.RESTR.norm>
0

>  <SCORE.SYSTEM>
0

>  <SCORE.SYSTEM.CONST>
0

>  <SCORE.SYSTEM.DIHEDRAL>
0

>  <SCORE.SYSTEM.SOLV>
0

>  <SCORE.SYSTEM.norm>
0

>  <SCORE.heavy>
27

>  <SCORE.norm>
-0.663082

>  <RMSD>
12.607

$$$$
ligand
 OpenBabel11021811483D
libRbt.so/2013.1/901 2013/11/27
 27 29  0  0  0  0  0  0  0  0999 V2000
    8.7129  -12.7773   16.4376 N   0  0  0  0  0  0  0  0  0  0  0  0
    8.0585  -11.5635   16.9298 C   0  0  2  0  0  0  0  0  0  0  0  0
    6.8317  -11.1030   16.1388 C   0  0  0  0  0  0  0  0  0  0  0  0
    6.5867   -9.8991   16.0731 O   0  0  0  0  0  0  0  0  0  0  0  0
    9.0576  -10.4278   17.0742 C   0  0  0  0  0  0  0  0  0  0  0  0
    9.6864  -10.0640   15.7401 C   0  0  0  0  0  0  0  0  0  0  0  0
   10.8964   -8.7453   15.9451 S   0  0  2  0  0  0  0  0  0  0  0  0
   11.5191   -8.6263   14.2548 C   0  0  0  0  0  0  0  0  0  0  0  0
   12.2576   -9.6619   16.7038 C   0  0  0  0  0  0  0  0  0  0  0  0
   13.3669   -8.7222   17.1390 C   0  0  1  0  0  0  0  0  0  0  0  0
   12.8751   -7.7577   18.0412 O   0  0  0  0  0  0  0  0  0  0  0  0
   14.4779   -9.4324   17.8872 C   0  0  1  0  0  0  0  0  0  0  0  0
   15.4723   -9.7962   16.9632 O   0  0  0  0  0  0  0  0  0  0  0  0
   14.9874   -8.3786   18.8494 C   0  0  1  0  0  0  0  0  0  0  0  0
   16.1571   -7.8267   18.2880 O   0  0  0  0  0  0  0  0  0  0  0  0
   13.8812   -7.3254   18.9401 C   0  0  2  0  0  0  0  0  0  0  0  0
    6.0698  -11.8866   15.5658 O   0  0  0  0  0  0  0  0  0  0  0  0
   10.1706   -9.4000   21.9972 N   0  0  0  0  0  0  0  0  0  0  0  0
   10.4473   -9.7001   20.6855 C   0  0  0  0  0  0  0  0  0  0  0  0
   11.4723   -9.0389   20.0452 N   0  0  0  0  0  0  0  0  0  0  0  0
   12.2098   -8.1046   20.6861 C   0  0  0  0  0  0  0  0  0  0  0  0
   11.9512   -7.8008   22.0148 C   0  0  0  0  0  0  0  0  0  0  0  0
   10.9111   -8.4535   22.6730 C   0  0  0  0  0  0  0  0  0  0  0  0
   10.6275   -8.1844   23.9477 N   0  0  0  0  0  0  0  0  0  0  0  0
   12.8361   -6.8473   22.4048 N   0  0  0  0  0  0  0  0  0  0  0  0
   13.6446   -6.5664   21.3569 C   0  0  0  0  0  0  0  0  0  0  0  0
   13.2744   -7.3421   20.2860 N   0  0  0  0  0  0  0  0  0  0  0  0
  2  1  1  6  0  0  0
  2  3  1  0  0  0  0
  2  5  1  0  0  0  0
  3  4  1  0  0  0  0
  3 17  1  0  0  0  0
  5  6  1  0  0  0  0
  7  6  1  6  0  0  0
  7  8  1  0  0  0  0
  7  9  1  0  0  0  0
 10  9  1  1  0  0  0
 10 11  1  0  0  0  0
 10 12  1  0  0  0  0
 11 16  1  0  0  0  0
 12 13  1  6  0  0  0
 12 14  1  0  0  0  0
 14 15  1  6  0  0  0
 14 16  1  0  0  0  0
 16 27  1  1  0  0  0
 18 19  2  0  0  0  0
 18 23  1  0  0  0  0
 19 20  1  0  0  0  0
 20 21  2  0  0  0  0
 21 22  1  0  0  0  0
 21 27  1  0  0  0  0
 22 23  2  0  0  0  0
 22 25  1  0  0  0  0
 23 24  1  0  0  0  0
 25 26  2  0  0  0  0
 26 27  1  0  0  0  0
M  END
>  <CHROM.1>
-148.50171673,61.58672608,-178.55395542,176.51402239,-173.08933018,57.73143573
24.29945343,11.39325494,-9.09626690,18.40253694,2.40075730,-0.33507760,-1.80395045

>  <Name>
ligand

>  <RI>
0

>  <Rbt.Current_Directory>
/home/itssahil/PROJECTS/Mol_Feturizer/New_Systems/rnas/3GX5

>  <Rbt.Executable>
rbdock ($Id: //depot/dev/client3/rdock/2013.1/src/exe/rbdock.cxx#4 $)

>  <Rbt.Library>
libRbt.so (2013.1, Build901 2013/11/27)

>  <Rbt.Parameter_File>
/export/apps/rDock/src/rDock_2013.1_src/data/scripts/dock_solv.prm

>  <Rbt.Receptor>
prm/blind_docking_40.prm

>  <SCORE>
-9.5765

>  <SCORE.INTER>
-9.32463

>  <SCORE.INTER.CONST>
1

>  <SCORE.INTER.POLAR>
0

>  <SCORE.INTER.ROT>
7

>  <SCORE.INTER.SOLV>
9.72606

>  <SCORE.INTER.VDW>
-17.7251

>  <SCORE.INTER.norm>
-0.345357

>  <SCORE.INTRA>
-0.251868

>  <SCORE.INTRA.DIHEDRAL>
0.0307268

>  <SCORE.INTRA.DIHEDRAL.0>
4.28829

>  <SCORE.INTRA.POLAR>
0

>  <SCORE.INTRA.POLAR.0>
0

>  <SCORE.INTRA.REPUL>
0

>  <SCORE.INTRA.REPUL.0>
0

>  <SCORE.INTRA.SOLV>
-0.579501

>  <SCORE.INTRA.SOLV.lig_0>
-48.6018

>  <SCORE.INTRA.VDW>
0.0225188

>  <SCORE.INTRA.VDW.0>
-2.1506

>  <SCORE.INTRA.norm>
-0.00932845

>  <SCORE.RESTR>
0

>  <SCORE.RESTR.CAVITY>
0

>  <SCORE.RESTR.norm>
0

>  <SCORE.SYSTEM>
0

>  <SCORE.SYSTEM.CONST>
0

>  <SCORE.SYSTEM.DIHEDRAL>
0

>  <SCORE.SYSTEM.SOLV>
0

>  <SCORE.SYSTEM.norm>
0

>  <SCORE.heavy>
27

>  <SCORE.norm>
-0.354685

>  <RMSD>
12.617

$$$$
ligand
 OpenBabel11021811483D
libRbt.so/2013.1/901 2013/11/27
 27 29  0  0  0  0  0  0  0  0999 V2000
   12.2257   -6.8854   22.0042 N   0  0  0  0  0  0  0  0  0  0  0  0
   11.6168   -8.2141   21.9161 C   0  0  2  0  0  0  0  0  0  0  0  0
   11.6021   -9.0253   23.2139 C   0  0  0  0  0  0  0  0  0  0  0  0
   10.7901   -9.9423   23.3303 O   0  0  0  0  0  0  0  0  0  0  0  0
   12.2367   -9.0222   20.7885 C   0  0  0  0  0  0  0  0  0  0  0  0
   12.0332   -8.3496   19.4418 C   0  0  0  0  0  0  0  0  0  0  0  0
   12.7749   -9.3274   18.1232 S   0  0  2  0  0  0  0  0  0  0  0  0
   14.5228   -9.1172   18.5229 C   0  0  0  0  0  0  0  0  0  0  0  0
   12.6411   -8.1710   16.7399 C   0  0  0  0  0  0  0  0  0  0  0  0
   11.3064   -8.3236   16.0339 C   0  0  1  0  0  0  0  0  0  0  0  0
   11.0384   -9.6811   15.7667 O   0  0  0  0  0  0  0  0  0  0  0  0
   10.1390   -7.8491   16.8767 C   0  0  1  0  0  0  0  0  0  0  0  0
    9.8828   -6.5037   16.5617 O   0  0  0  0  0  0  0  0  0  0  0  0
    8.9962   -8.7398   16.4331 C   0  0  1  0  0  0  0  0  0  0  0  0
    8.2181   -8.0014   15.5181 O   0  0  0  0  0  0  0  0  0  0  0  0
    9.6461   -9.9420   15.7447 C   0  0  2  0  0  0  0  0  0  0  0  0
   12.3664   -8.7983   24.1558 O   0  0  0  0  0  0  0  0  0  0  0  0
    7.3492  -14.6418   15.9782 N   0  0  0  0  0  0  0  0  0  0  0  0
    7.3155  -13.7374   14.9447 C   0  0  0  0  0  0  0  0  0  0  0  0
    7.9882  -12.5422   15.0735 N   0  0  0  0  0  0  0  0  0  0  0  0
    8.6812  -12.2473   16.1961 C   0  0  0  0  0  0  0  0  0  0  0  0
    8.7359  -13.1563   17.2427 C   0  0  0  0  0  0  0  0  0  0  0  0
    8.0522  -14.3652   17.1315 C   0  0  0  0  0  0  0  0  0  0  0  0
    8.0752  -15.2618   18.1181 N   0  0  0  0  0  0  0  0  0  0  0  0
    9.4974  -12.6137   18.2275 N   0  0  0  0  0  0  0  0  0  0  0  0
    9.9277  -11.4008   17.8100 C   0  0  0  0  0  0  0  0  0  0  0  0
    9.4367  -11.1616   16.5501 N   0  0  0  0  0  0  0  0  0  0  0  0
  2  1  1  1  0  0  0
  2  3  1  0  0  0  0
  2  5  1  0  0  0  0
  3  4  1  0  0  0  0
  3 17  1  0  0  0  0
  5  6  1  0  0  0  0
  7  6  1  1  0  0  0
  7  8  1  0  0  0  0
  7  9  1  0  0  0  0
 10  9  1  1  0  0  0
 10 11  1  0  0  0  0
 10 12  1  0  0  0  0
 11 16  1  0  0  0  0
 12 13  1  6  0  0  0
 12 14  1  0  0  0  0
 14 15  1  6  0  0  0
 14 16  1  0  0  0  0
 16 27  1  1  0  0  0
 18 19  2  0  0  0  0
 18 23  1  0  0  0  0
 19 20  1  0  0  0  0
 20 21  2  0  0  0  0
 21 22  1  0  0  0  0
 21 27  1  0  0  0  0
 22 23  2  0  0  0  0
 22 25  1  0  0  0  0
 23 24  1  0  0  0  0
 25 26  2  0  0  0  0
 26 27  1  0  0  0  0
M  END
>  <CHROM.1>
158.78930627,-60.75357300,-179.94078096,-68.62706958,-88.00052975,-48.20490893
-132.75477728,10.43168100,-10.12847374,18.13718393,0.32774297,1.01340052
2.06536633

>  <Name>
ligand

>  <RI>
0

>  <Rbt.Current_Directory>
/home/itssahil/PROJECTS/Mol_Feturizer/New_Systems/rnas/3GX5

>  <Rbt.Executable>
rbdock ($Id: //depot/dev/client3/rdock/2013.1/src/exe/rbdock.cxx#4 $)

>  <Rbt.Library>
libRbt.so (2013.1, Build901 2013/11/27)

>  <Rbt.Parameter_File>
/export/apps/rDock/src/rDock_2013.1_src/data/scripts/dock_solv.prm

>  <Rbt.Receptor>
prm/blind_docking_100.prm

>  <SCORE>
-16.1826

>  <SCORE.INTER>
-15.7736

>  <SCORE.INTER.CONST>
1

>  <SCORE.INTER.POLAR>
0

>  <SCORE.INTER.ROT>
7

>  <SCORE.INTER.SOLV>
14.4965

>  <SCORE.INTER.VDW>
-23.6146

>  <SCORE.INTER.norm>
-0.584209

>  <SCORE.INTRA>
-0.408931

>  <SCORE.INTRA.DIHEDRAL>
0.617185

>  <SCORE.INTRA.DIHEDRAL.0>
4.28829

>  <SCORE.INTRA.POLAR>
0

>  <SCORE.INTRA.POLAR.0>
0

>  <SCORE.INTRA.REPUL>
0

>  <SCORE.INTRA.REPUL.0>
0

>  <SCORE.INTRA.SOLV>
-0.297151

>  <SCORE.INTRA.SOLV.lig_0>
-48.6018

>  <SCORE.INTRA.VDW>
-0.568948

>  <SCORE.INTRA.VDW.0>
-2.1506

>  <SCORE.INTRA.norm>
-0.0151456

>  <SCORE.RESTR>
0

>  <SCORE.RESTR.CAVITY>
0

>  <SCORE.RESTR.norm>
0

>  <SCORE.SYSTEM>
0

>  <SCORE.SYSTEM.CONST>
0

>  <SCORE.SYSTEM.DIHEDRAL>
0

>  <SCORE.SYSTEM.SOLV>
0

>  <SCORE.SYSTEM.norm>
0

>  <SCORE.heavy>
27

>  <SCORE.norm>
-0.599355

>  <RMSD>
12.646

$$$$
ligand
 OpenBabel11021811483D
libRbt.so/2013.1/901 2013/11/27
 27 29  0  0  0  0  0  0  0  0999 V2000
    6.8701   -5.0126   22.7135 N   0  0  0  0  0  0  0  0  0  0  0  0
    8.3147   -5.2434   22.6531 C   0  0  2  0  0  0  0  0  0  0  0  0
    9.0125   -4.7564   21.3808 C   0  0  0  0  0  0  0  0  0  0  0  0
    8.6088   -5.1616   20.2916 O   0  0  0  0  0  0  0  0  0  0  0  0
    8.6433   -6.7034   22.9167 C   0  0  0  0  0  0  0  0  0  0  0  0
   10.1046   -6.8889   23.2876 C   0  0  0  0  0  0  0  0  0  0  0  0
   10.5984   -8.6099   23.0885 S   0  0  2  0  0  0  0  0  0  0  0  0
   12.2542   -8.5453   23.8050 C   0  0  0  0  0  0  0  0  0  0  0  0
   11.0302   -8.6279   21.3330 C   0  0  0  0  0  0  0  0  0  0  0  0
    9.7861   -8.5394   20.4685 C   0  0  1  0  0  0  0  0  0  0  0  0
   10.1335   -8.3352   19.1180 O   0  0  0  0  0  0  0  0  0  0  0  0
    8.9728   -9.8188   20.4778 C   0  0  1  0  0  0  0  0  0  0  0  0
    7.9943   -9.7147   21.4812 O   0  0  0  0  0  0  0  0  0  0  0  0
    8.3406   -9.8471   19.1010 C   0  0  1  0  0  0  0  0  0  0  0  0
    7.0155   -9.3847   19.2370 O   0  0  0  0  0  0  0  0  0  0  0  0
    9.1645   -8.8848   18.2428 C   0  0  2  0  0  0  0  0  0  0  0  0
    9.9691   -3.9771   21.3966 O   0  0  0  0  0  0  0  0  0  0  0  0
   12.2396   -8.5604   14.0171 N   0  0  0  0  0  0  0  0  0  0  0  0
   11.7333   -7.5306   14.7722 C   0  0  0  0  0  0  0  0  0  0  0  0
   10.9341   -7.8202   15.8563 N   0  0  0  0  0  0  0  0  0  0  0  0
   10.6436   -9.0977   16.1895 C   0  0  0  0  0  0  0  0  0  0  0  0
   11.1590  -10.1487   15.4448 C   0  0  0  0  0  0  0  0  0  0  0  0
   11.9605   -9.8716   14.3392 C   0  0  0  0  0  0  0  0  0  0  0  0
   12.4690  -10.8539   13.5948 N   0  0  0  0  0  0  0  0  0  0  0  0
   10.7205  -11.3080   15.9996 N   0  0  0  0  0  0  0  0  0  0  0  0
    9.9616  -11.0010   17.0768 C   0  0  0  0  0  0  0  0  0  0  0  0
    9.9097   -9.6355   17.2127 N   0  0  0  0  0  0  0  0  0  0  0  0
  2  1  1  6  0  0  0
  2  3  1  0  0  0  0
  2  5  1  0  0  0  0
  3  4  1  0  0  0  0
  3 17  1  0  0  0  0
  5  6  1  0  0  0  0
  7  6  1  6  0  0  0
  7  8  1  0  0  0  0
  7  9  1  0  0  0  0
 10  9  1  1  0  0  0
 10 11  1  0  0  0  0
 10 12  1  0  0  0  0
 11 16  1  0  0  0  0
 12 13  1  1  0  0  0
 12 14  1  0  0  0  0
 14 15  1  1  0  0  0
 14 16  1  0  0  0  0
 16 27  1  6  0  0  0
 18 19  2  0  0  0  0
 18 23  1  0  0  0  0
 19 20  1  0  0  0  0
 20 21  2  0  0  0  0
 21 22  1  0  0  0  0
 21 27  1  0  0  0  0
 22 23  2  0  0  0  0
 22 25  1  0  0  0  0
 23 24  1  0  0  0  0
 25 26  2  0  0  0  0
 26 27  1  0  0  0  0
M  END
>  <CHROM.1>
-55.76015456,-162.18995751,-162.14833395,-172.58586119,-72.08589087,170.45460629
-73.08002155,9.94017666,-8.26630897,19.38573135,2.91980743,-1.31729974,2.51771159

>  <Name>
ligand

>  <RI>
0

>  <Rbt.Current_Directory>
/home/itssahil/PROJECTS/Mol_Feturizer/New_Systems/rnas/3GX5

>  <Rbt.Executable>
rbdock ($Id: //depot/dev/client3/rdock/2013.1/src/exe/rbdock.cxx#4 $)

>  <Rbt.Library>
libRbt.so (2013.1, Build901 2013/11/27)

>  <Rbt.Parameter_File>
/export/apps/rDock/src/rDock_2013.1_src/data/scripts/dock_solv.prm

>  <Rbt.Receptor>
prm/blind_docking_40.prm

>  <SCORE>
-6.36563

>  <SCORE.INTER>
-6.13289

>  <SCORE.INTER.CONST>
1

>  <SCORE.INTER.POLAR>
0

>  <SCORE.INTER.ROT>
7

>  <SCORE.INTER.SOLV>
8.48354

>  <SCORE.INTER.VDW>
-15.1831

>  <SCORE.INTER.norm>
-0.227144

>  <SCORE.INTRA>
-0.232737

>  <SCORE.INTRA.DIHEDRAL>
2.42002

>  <SCORE.INTRA.DIHEDRAL.0>
4.28829

>  <SCORE.INTRA.POLAR>
0

>  <SCORE.INTRA.POLAR.0>
0

>  <SCORE.INTRA.REPUL>
0

>  <SCORE.INTRA.REPUL.0>
0

>  <SCORE.INTRA.SOLV>
-0.851549

>  <SCORE.INTRA.SOLV.lig_0>
-48.6018

>  <SCORE.INTRA.VDW>
-1.01697

>  <SCORE.INTRA.VDW.0>
-2.1506

>  <SCORE.INTRA.norm>
-0.00861989

>  <SCORE.RESTR>
0

>  <SCORE.RESTR.CAVITY>
0

>  <SCORE.RESTR.norm>
0

>  <SCORE.SYSTEM>
0

>  <SCORE.SYSTEM.CONST>
0

>  <SCORE.SYSTEM.DIHEDRAL>
0

>  <SCORE.SYSTEM.SOLV>
0

>  <SCORE.SYSTEM.norm>
0

>  <SCORE.heavy>
27

>  <SCORE.norm>
-0.235764

>  <RMSD>
12.688

$$$$
ligand
 OpenBabel11021811483D
libRbt.so/2013.1/901 2013/11/27
 27 29  0  0  0  0  0  0  0  0999 V2000
   13.7471   -7.9817   16.7803 N   0  0  0  0  0  0  0  0  0  0  0  0
   12.5765   -8.8412   16.9670 C   0  0  2  0  0  0  0  0  0  0  0  0
   12.4577   -9.5132   18.3371 C   0  0  0  0  0  0  0  0  0  0  0  0
   11.3468   -9.8695   18.7279 O   0  0  0  0  0  0  0  0  0  0  0  0
   12.4772   -9.8731   15.8560 C   0  0  0  0  0  0  0  0  0  0  0  0
   11.0957  -10.5020   15.7997 C   0  0  0  0  0  0  0  0  0  0  0  0
   11.0211  -11.7605   14.5129 S   0  0  2  0  0  0  0  0  0  0  0  0
   11.0726  -10.7107   13.0451 C   0  0  0  0  0  0  0  0  0  0  0  0
    9.2569  -12.1549   14.5395 C   0  0  0  0  0  0  0  0  0  0  0  0
    8.8782  -12.8560   15.8311 C   0  0  1  0  0  0  0  0  0  0  0  0
    8.8348  -11.9383   16.8998 O   0  0  0  0  0  0  0  0  0  0  0  0
    7.4930  -13.4699   15.7813 C   0  0  1  0  0  0  0  0  0  0  0  0
    7.6156  -14.8078   15.3691 O   0  0  0  0  0  0  0  0  0  0  0  0
    7.0150  -13.3835   17.2167 C   0  0  1  0  0  0  0  0  0  0  0  0
    7.2047  -14.6529   17.8002 O   0  0  0  0  0  0  0  0  0  0  0  0
    7.9059  -12.3385   17.8918 C   0  0  2  0  0  0  0  0  0  0  0  0
   13.4276   -9.7103   19.0742 O   0  0  0  0  0  0  0  0  0  0  0  0
    7.3085   -8.3316   21.2092 N   0  0  0  0  0  0  0  0  0  0  0  0
    8.2778   -9.3048   21.2287 C   0  0  0  0  0  0  0  0  0  0  0  0
    8.2667  -10.2858   20.2617 N   0  0  0  0  0  0  0  0  0  0  0  0
    7.3216  -10.3043   19.2952 C   0  0  0  0  0  0  0  0  0  0  0  0
    6.3445   -9.3203   19.2543 C   0  0  0  0  0  0  0  0  0  0  0  0
    6.3364   -8.3272   20.2315 C   0  0  0  0  0  0  0  0  0  0  0  0
    5.4100   -7.3682   20.2301 N   0  0  0  0  0  0  0  0  0  0  0  0
    5.5411   -9.5737   18.1892 N   0  0  0  0  0  0  0  0  0  0  0  0
    6.0062  -10.6786   17.5618 C   0  0  0  0  0  0  0  0  0  0  0  0
    7.1135  -11.1396   18.2304 N   0  0  0  0  0  0  0  0  0  0  0  0
  2  1  1  1  0  0  0
  2  3  1  0  0  0  0
  2  5  1  0  0  0  0
  3  4  1  0  0  0  0
  3 17  1  0  0  0  0
  5  6  1  0  0  0  0
  7  6  1  1  0  0  0
  7  8  1  0  0  0  0
  7  9  1  0  0  0  0
 10  9  1  6  0  0  0
 10 11  1  0  0  0  0
 10 12  1  0  0  0  0
 11 16  1  0  0  0  0
 12 13  1  1  0  0  0
 12 14  1  0  0  0  0
 14 15  1  1  0  0  0
 14 16  1  0  0  0  0
 16 27  1  6  0  0  0
 18 19  2  0  0  0  0
 18 23  1  0  0  0  0
 19 20  1  0  0  0  0
 20 21  2  0  0  0  0
 21 22  1  0  0  0  0
 21 27  1  0  0  0  0
 22 23  2  0  0  0  0
 22 25  1  0  0  0  0
 23 24  1  0  0  0  0
 25 26  2  0  0  0  0
 26 27  1  0  0  0  0
M  END
>  <CHROM.1>
156.36994981,-163.79435364,-178.05548063,-71.14033184,-68.27611907,74.98150334
-97.80135279,9.09758912,-10.80660985,17.43552601,-0.61456970,0.38934819,0.79602135

>  <Name>
ligand

>  <RI>
0

>  <Rbt.Current_Directory>
/home/itssahil/PROJECTS/Mol_Feturizer/New_Systems/rnas/3GX5

>  <Rbt.Executable>
rbdock ($Id: //depot/dev/client3/rdock/2013.1/src/exe/rbdock.cxx#4 $)

>  <Rbt.Library>
libRbt.so (2013.1, Build901 2013/11/27)

>  <Rbt.Parameter_File>
/export/apps/rDock/src/rDock_2013.1_src/data/scripts/dock_solv.prm

>  <Rbt.Receptor>
prm/blind_docking_80.prm

>  <SCORE>
-16.4563

>  <SCORE.INTER>
-16.5047

>  <SCORE.INTER.CONST>
1

>  <SCORE.INTER.POLAR>
0

>  <SCORE.INTER.ROT>
7

>  <SCORE.INTER.SOLV>
11.5812

>  <SCORE.INTER.VDW>
-23.1302

>  <SCORE.INTER.norm>
-0.611285

>  <SCORE.INTRA>
0.0483699

>  <SCORE.INTRA.DIHEDRAL>
0.881713

>  <SCORE.INTRA.DIHEDRAL.0>
4.28829

>  <SCORE.INTRA.POLAR>
0

>  <SCORE.INTRA.POLAR.0>
0

>  <SCORE.INTRA.REPUL>
0

>  <SCORE.INTRA.REPUL.0>
0

>  <SCORE.INTRA.SOLV>
-1.23442

>  <SCORE.INTRA.SOLV.lig_0>
-48.6018

>  <SCORE.INTRA.VDW>
0.224724

>  <SCORE.INTRA.VDW.0>
-2.1506

>  <SCORE.INTRA.norm>
0.00179148

>  <SCORE.RESTR>
0

>  <SCORE.RESTR.CAVITY>
0

>  <SCORE.RESTR.norm>
0

>  <SCORE.SYSTEM>
0

>  <SCORE.SYSTEM.CONST>
0

>  <SCORE.SYSTEM.DIHEDRAL>
0

>  <SCORE.SYSTEM.SOLV>
0

>  <SCORE.SYSTEM.norm>
0

>  <SCORE.heavy>
27

>  <SCORE.norm>
-0.609494

>  <RMSD>
12.716

$$$$
ligand
 OpenBabel11021811483D
libRbt.so/2013.1/901 2013/11/27
 27 29  0  0  0  0  0  0  0  0999 V2000
   14.2637  -10.1308   14.8155 N   0  0  0  0  0  0  0  0  0  0  0  0
   13.2694   -9.1672   15.2916 C   0  0  2  0  0  0  0  0  0  0  0  0
   13.8305   -7.9033   15.9478 C   0  0  0  0  0  0  0  0  0  0  0  0
   13.1919   -6.8556   15.8578 O   0  0  0  0  0  0  0  0  0  0  0  0
   12.2563   -9.8377   16.2042 C   0  0  0  0  0  0  0  0  0  0  0  0
   11.4187  -10.8590   15.4541 C   0  0  0  0  0  0  0  0  0  0  0  0
   10.1215  -11.5208   16.5145 S   0  0  2  0  0  0  0  0  0  0  0  0
    9.2542  -12.5712   15.3297 C   0  0  0  0  0  0  0  0  0  0  0  0
    8.9844  -10.1159   16.5603 C   0  0  0  0  0  0  0  0  0  0  0  0
    7.9105  -10.3226   17.6124 C   0  0  1  0  0  0  0  0  0  0  0  0
    8.4910  -10.5758   18.8714 O   0  0  0  0  0  0  0  0  0  0  0  0
    7.0448   -9.0949   17.8165 C   0  0  1  0  0  0  0  0  0  0  0  0
    5.9171   -9.2045   16.9852 O   0  0  0  0  0  0  0  0  0  0  0  0
    6.6540   -9.1756   19.2784 C   0  0  1  0  0  0  0  0  0  0  0  0
    5.3497   -9.7079   19.3363 O   0  0  0  0  0  0  0  0  0  0  0  0
    7.6580  -10.1307   19.9273 C   0  0  2  0  0  0  0  0  0  0  0  0
   14.9011   -7.8844   16.5611 O   0  0  0  0  0  0  0  0  0  0  0  0
   12.5587   -8.6727   21.0567 N   0  0  0  0  0  0  0  0  0  0  0  0
   12.1242   -9.4043   19.9783 C   0  0  0  0  0  0  0  0  0  0  0  0
   10.7824   -9.6908   19.8554 N   0  0  0  0  0  0  0  0  0  0  0  0
    9.8888   -9.2622   20.7749 C   0  0  0  0  0  0  0  0  0  0  0  0
   10.3107   -8.5105   21.8620 C   0  0  0  0  0  0  0  0  0  0  0  0
   11.6661   -8.2214   22.0056 C   0  0  0  0  0  0  0  0  0  0  0  0
   12.1113   -7.5076   23.0400 N   0  0  0  0  0  0  0  0  0  0  0  0
    9.2184   -8.2103   22.6110 N   0  0  0  0  0  0  0  0  0  0  0  0
    8.1314   -8.7426   22.0063 C   0  0  0  0  0  0  0  0  0  0  0  0
    8.5286   -9.3917   20.8633 N   0  0  0  0  0  0  0  0  0  0  0  0
  2  1  1  1  0  0  0
  2  3  1  0  0  0  0
  2  5  1  0  0  0  0
  3  4  1  0  0  0  0
  3 17  1  0  0  0  0
  5  6  1  0  0  0  0
  7  6  1  6  0  0  0
  7  8  1  0  0  0  0
  7  9  1  0  0  0  0
 10  9  1  6  0  0  0
 10 11  1  0  0  0  0
 10 12  1  0  0  0  0
 11 16  1  0  0  0  0
 12 13  1  6  0  0  0
 12 14  1  0  0  0  0
 14 15  1  6  0  0  0
 14 16  1  0  0  0  0
 16 27  1  1  0  0  0
 18 19  2  0  0  0  0
 18 23  1  0  0  0  0
 19 20  1  0  0  0  0
 20 21  2  0  0  0  0
 21 22  1  0  0  0  0
 21 27  1  0  0  0  0
 22 23  2  0  0  0  0
 22 25  1  0  0  0  0
 23 24  1  0  0  0  0
 25 26  2  0  0  0  0
 26 27  1  0  0  0  0
M  END
>  <CHROM.1>
149.47813365,-65.50014944,-174.42912754,175.87577990,-169.34035518,54.97845793
-4.82280238,10.19073238,-9.47194830,18.42650519,0.69290389,-0.26716962,-1.89596564

>  <Name>
ligand

>  <RI>
0

>  <Rbt.Current_Directory>
/home/itssahil/PROJECTS/Mol_Feturizer/New_Systems/rnas/3GX5

>  <Rbt.Executable>
rbdock ($Id: //depot/dev/client3/rdock/2013.1/src/exe/rbdock.cxx#4 $)

>  <Rbt.Library>
libRbt.so (2013.1, Build901 2013/11/27)

>  <Rbt.Parameter_File>
/export/apps/rDock/src/rDock_2013.1_src/data/scripts/dock_solv.prm

>  <Rbt.Receptor>
prm/blind_docking_100.prm

>  <SCORE>
-9.33368

>  <SCORE.INTER>
-8.57327

>  <SCORE.INTER.CONST>
1

>  <SCORE.INTER.POLAR>
0

>  <SCORE.INTER.ROT>
7

>  <SCORE.INTER.SOLV>
11.0967

>  <SCORE.INTER.VDW>
-17.6811

>  <SCORE.INTER.norm>
-0.317528

>  <SCORE.INTRA>
-0.760414

>  <SCORE.INTRA.DIHEDRAL>
0.602559

>  <SCORE.INTRA.DIHEDRAL.0>
4.28829

>  <SCORE.INTRA.POLAR>
0

>  <SCORE.INTRA.POLAR.0>
0

>  <SCORE.INTRA.REPUL>
0

>  <SCORE.INTRA.REPUL.0>
0

>  <SCORE.INTRA.SOLV>
-0.605377

>  <SCORE.INTRA.SOLV.lig_0>
-48.6018

>  <SCORE.INTRA.VDW>
-0.759005

>  <SCORE.INTRA.VDW.0>
-2.1506

>  <SCORE.INTRA.norm>
-0.0281635

>  <SCORE.RESTR>
0

>  <SCORE.RESTR.CAVITY>
0

>  <SCORE.RESTR.norm>
0

>  <SCORE.SYSTEM>
0

>  <SCORE.SYSTEM.CONST>
0

>  <SCORE.SYSTEM.DIHEDRAL>
0

>  <SCORE.SYSTEM.SOLV>
0

>  <SCORE.SYSTEM.norm>
0

>  <SCORE.heavy>
27

>  <SCORE.norm>
-0.345692

>  <RMSD>
12.717

$$$$
ligand
 OpenBabel11021811483D
libRbt.so/2013.1/901 2013/11/27
 27 29  0  0  0  0  0  0  0  0999 V2000
   17.2262   -7.6993   19.9509 N   0  0  0  0  0  0  0  0  0  0  0  0
   17.2831   -8.9106   19.1303 C   0  0  2  0  0  0  0  0  0  0  0  0
   18.6590   -9.2617   18.5589 C   0  0  0  0  0  0  0  0  0  0  0  0
   18.7202   -9.8393   17.4743 O   0  0  0  0  0  0  0  0  0  0  0  0
   16.2412   -8.8678   18.0252 C   0  0  0  0  0  0  0  0  0  0  0  0
   14.8351   -9.0292   18.5766 C   0  0  0  0  0  0  0  0  0  0  0  0
   13.6140   -8.8768   17.2609 S   0  0  2  0  0  0  0  0  0  0  0  0
   13.7135   -7.1020   16.9456 C   0  0  0  0  0  0  0  0  0  0  0  0
   12.0843   -8.9264   18.2235 C   0  0  0  0  0  0  0  0  0  0  0  0
   11.3684  -10.2511   18.0344 C   0  0  1  0  0  0  0  0  0  0  0  0
   10.3378  -10.3985   18.9843 O   0  0  0  0  0  0  0  0  0  0  0  0
   10.6821  -10.3602   16.6871 C   0  0  1  0  0  0  0  0  0  0  0  0
   11.5663  -10.9808   15.7882 O   0  0  0  0  0  0  0  0  0  0  0  0
    9.4837  -11.2434   16.9700 C   0  0  1  0  0  0  0  0  0  0  0  0
    9.8128  -12.5473   16.5462 O   0  0  0  0  0  0  0  0  0  0  0  0
    9.2823  -11.2015   18.4863 C   0  0  2  0  0  0  0  0  0  0  0  0
   19.7146   -8.9963   19.1402 O   0  0  0  0  0  0  0  0  0  0  0  0
    4.2129  -10.6017   17.3200 N   0  0  0  0  0  0  0  0  0  0  0  0
    5.1138  -11.4648   16.7450 C   0  0  0  0  0  0  0  0  0  0  0  0
    6.4169  -11.4743   17.1920 N   0  0  0  0  0  0  0  0  0  0  0  0
    6.8210  -10.6523   18.1863 C   0  0  0  0  0  0  0  0  0  0  0  0
    5.9195   -9.7851   18.7861 C   0  0  0  0  0  0  0  0  0  0  0  0
    4.6005   -9.7566   18.3380 C   0  0  0  0  0  0  0  0  0  0  0  0
    3.7061   -8.9325   18.8845 N   0  0  0  0  0  0  0  0  0  0  0  0
    6.5829   -9.0925   19.7474 N   0  0  0  0  0  0  0  0  0  0  0  0
    7.8661   -9.5209   19.7682 C   0  0  0  0  0  0  0  0  0  0  0  0
    8.0286  -10.4926   18.8116 N   0  0  0  0  0  0  0  0  0  0  0  0
  2  1  1  6  0  0  0
  2  3  1  0  0  0  0
  2  5  1  0  0  0  0
  3  4  1  0  0  0  0
  3 17  1  0  0  0  0
  5  6  1  0  0  0  0
  7  6  1  1  0  0  0
  7  8  1  0  0  0  0
  7  9  1  0  0  0  0
 10  9  1  6  0  0  0
 10 11  1  0  0  0  0
 10 12  1  0  0  0  0
 11 16  1  0  0  0  0
 12 13  1  6  0  0  0
 12 14  1  0  0  0  0
 14 15  1  1  0  0  0
 14 16  1  0  0  0  0
 16 27  1  6  0  0  0
 18 19  2  0  0  0  0
 18 23  1  0  0  0  0
 19 20  1  0  0  0  0
 20 21  2  0  0  0  0
 21 22  1  0  0  0  0
 21 27  1  0  0  0  0
 22 23  2  0  0  0  0
 22 25  1  0  0  0  0
 23 24  1  0  0  0  0
 25 26  2  0  0  0  0
 26 27  1  0  0  0  0
M  END
>  <CHROM.1>
-148.80410953,-70.97598387,176.62516987,-72.29708009,-107.21548728,167.85309072
157.92082868,11.17359958,-9.81314407,18.03402321,0.10852456,0.07512556,0.78801644

>  <Name>
ligand

>  <RI>
0

>  <Rbt.Current_Directory>
/home/itssahil/PROJECTS/Mol_Feturizer/New_Systems/rnas/3GX5

>  <Rbt.Executable>
rbdock ($Id: //depot/dev/client3/rdock/2013.1/src/exe/rbdock.cxx#4 $)

>  <Rbt.Library>
libRbt.so (2013.1, Build901 2013/11/27)

>  <Rbt.Parameter_File>
/export/apps/rDock/src/rDock_2013.1_src/data/scripts/dock_solv.prm

>  <Rbt.Receptor>
prm/blind_docking_80.prm

>  <SCORE>
-14.294

>  <SCORE.INTER>
-16.5928

>  <SCORE.INTER.CONST>
1

>  <SCORE.INTER.POLAR>
0

>  <SCORE.INTER.ROT>
7

>  <SCORE.INTER.SOLV>
17.4761

>  <SCORE.INTER.VDW>
-25.1539

>  <SCORE.INTER.norm>
-0.614549

>  <SCORE.INTRA>
2.29877

>  <SCORE.INTRA.DIHEDRAL>
3.30716

>  <SCORE.INTRA.DIHEDRAL.0>
4.28829

>  <SCORE.INTRA.POLAR>
0

>  <SCORE.INTRA.POLAR.0>
0

>  <SCORE.INTRA.REPUL>
0

>  <SCORE.INTRA.REPUL.0>
0

>  <SCORE.INTRA.SOLV>
-0.478875

>  <SCORE.INTRA.SOLV.lig_0>
-48.6018

>  <SCORE.INTRA.VDW>
0.884628

>  <SCORE.INTRA.VDW.0>
-2.1506

>  <SCORE.INTRA.norm>
0.0851397

>  <SCORE.RESTR>
0

>  <SCORE.RESTR.CAVITY>
0

>  <SCORE.RESTR.norm>
0

>  <SCORE.SYSTEM>
0

>  <SCORE.SYSTEM.CONST>
0

>  <SCORE.SYSTEM.DIHEDRAL>
0

>  <SCORE.SYSTEM.SOLV>
0

>  <SCORE.SYSTEM.norm>
0

>  <SCORE.heavy>
27

>  <SCORE.norm>
-0.529409

>  <RMSD>
12.725

$$$$
ligand
 OpenBabel11021811483D
libRbt.so/2013.1/901 2013/11/27
 27 29  0  0  0  0  0  0  0  0999 V2000
   13.9968   -7.2138   20.4933 N   0  0  0  0  0  0  0  0  0  0  0  0
   13.4846   -8.5150   20.0595 C   0  0  2  0  0  0  0  0  0  0  0  0
   14.5137   -9.4580   19.4312 C   0  0  0  0  0  0  0  0  0  0  0  0
   14.8556  -10.4620   20.0548 O   0  0  0  0  0  0  0  0  0  0  0  0
   12.2840   -8.3485   19.1432 C   0  0  0  0  0  0  0  0  0  0  0  0
   11.7244   -9.6913   18.7061 C   0  0  0  0  0  0  0  0  0  0  0  0
    9.9670   -9.5576   18.3331 S   0  0  2  0  0  0  0  0  0  0  0  0
    9.2975   -9.4694   20.0073 C   0  0  0  0  0  0  0  0  0  0  0  0
    9.5805  -11.2805   17.9445 C   0  0  0  0  0  0  0  0  0  0  0  0
    8.1138  -11.4393   17.5886 C   0  0  1  0  0  0  0  0  0  0  0  0
    7.2953  -10.9725   18.6365 O   0  0  0  0  0  0  0  0  0  0  0  0
    7.7115  -10.6198   16.3783 C   0  0  1  0  0  0  0  0  0  0  0  0
    7.8317  -11.4288   15.2354 O   0  0  0  0  0  0  0  0  0  0  0  0
    6.2618  -10.2733   16.6506 C   0  0  1  0  0  0  0  0  0  0  0  0
    5.4680  -11.1689   15.9052 O   0  0  0  0  0  0  0  0  0  0  0  0
    6.0557  -10.4873   18.1517 C   0  0  2  0  0  0  0  0  0  0  0  0
   15.0232   -9.2547   18.3259 O   0  0  0  0  0  0  0  0  0  0  0  0
    7.6536   -5.5282   18.6729 N   0  0  0  0  0  0  0  0  0  0  0  0
    8.1708   -6.4983   17.8493 C   0  0  0  0  0  0  0  0  0  0  0  0
    7.6093   -7.7563   17.8552 N   0  0  0  0  0  0  0  0  0  0  0  0
    6.5588   -8.0493   18.6540 C   0  0  0  0  0  0  0  0  0  0  0  0
    6.0167   -7.0762   19.4810 C   0  0  0  0  0  0  0  0  0  0  0  0
    6.5802   -5.8020   19.4938 C   0  0  0  0  0  0  0  0  0  0  0  0
    6.0919   -4.8418   20.2795 N   0  0  0  0  0  0  0  0  0  0  0  0
    4.9796   -7.6336   20.1575 N   0  0  0  0  0  0  0  0  0  0  0  0
    4.8566   -8.9204   19.7579 C   0  0  0  0  0  0  0  0  0  0  0  0
    5.8232   -9.1920   18.8211 N   0  0  0  0  0  0  0  0  0  0  0  0
  2  1  1  6  0  0  0
  2  3  1  0  0  0  0
  2  5  1  0  0  0  0
  3  4  1  0  0  0  0
  3 17  1  0  0  0  0
  5  6  1  0  0  0  0
  7  6  1  1  0  0  0
  7  8  1  0  0  0  0
  7  9  1  0  0  0  0
 10  9  1  1  0  0  0
 10 11  1  0  0  0  0
 10 12  1  0  0  0  0
 11 16  1  0  0  0  0
 12 13  1  6  0  0  0
 12 14  1  0  0  0  0
 14 15  1  6  0  0  0
 14 16  1  0  0  0  0
 16 27  1  1  0  0  0
 18 19  2  0  0  0  0
 18 23  1  0  0  0  0
 19 20  1  0  0  0  0
 20 21  2  0  0  0  0
 21 22  1  0  0  0  0
 21 27  1  0  0  0  0
 22 23  2  0  0  0  0
 22 25  1  0  0  0  0
 23 24  1  0  0  0  0
 25 26  2  0  0  0  0
 26 27  1  0  0  0  0
M  END
>  <CHROM.1>
109.91314610,-178.89348638,152.81692356,-75.23870804,179.89539991,-56.93496395
66.34361356,8.93329509,-9.02136204,18.55675914,0.01794553,-0.15045719,0.53220728

>  <Name>
ligand

>  <RI>
0

>  <Rbt.Current_Directory>
/home/itssahil/PROJECTS/Mol_Feturizer/New_Systems/rnas/3GX5

>  <Rbt.Executable>
rbdock ($Id: //depot/dev/client3/rdock/2013.1/src/exe/rbdock.cxx#4 $)

>  <Rbt.Library>
libRbt.so (2013.1, Build901 2013/11/27)

>  <Rbt.Parameter_File>
/export/apps/rDock/src/rDock_2013.1_src/data/scripts/dock_solv.prm

>  <Rbt.Receptor>
prm/blind_docking_60.prm

>  <SCORE>
-9.71838

>  <SCORE.INTER>
-9.46178

>  <SCORE.INTER.CONST>
1

>  <SCORE.INTER.POLAR>
0

>  <SCORE.INTER.ROT>
7

>  <SCORE.INTER.SOLV>
9.58732

>  <SCORE.INTER.VDW>
-17.7703

>  <SCORE.INTER.norm>
-0.350436

>  <SCORE.INTRA>
-0.256603

>  <SCORE.INTRA.DIHEDRAL>
1.85599

>  <SCORE.INTRA.DIHEDRAL.0>
4.28829

>  <SCORE.INTRA.POLAR>
0

>  <SCORE.INTRA.POLAR.0>
0

>  <SCORE.INTRA.REPUL>
0

>  <SCORE.INTRA.REPUL.0>
0

>  <SCORE.INTRA.SOLV>
-0.966822

>  <SCORE.INTRA.SOLV.lig_0>
-48.6018

>  <SCORE.INTRA.VDW>
-0.701187

>  <SCORE.INTRA.VDW.0>
-2.1506

>  <SCORE.INTRA.norm>
-0.00950382

>  <SCORE.RESTR>
0

>  <SCORE.RESTR.CAVITY>
0

>  <SCORE.RESTR.norm>
0

>  <SCORE.SYSTEM>
0

>  <SCORE.SYSTEM.CONST>
0

>  <SCORE.SYSTEM.DIHEDRAL>
0

>  <SCORE.SYSTEM.SOLV>
0

>  <SCORE.SYSTEM.norm>
0

>  <SCORE.heavy>
27

>  <SCORE.norm>
-0.35994

>  <RMSD>
12.730

$$$$
ligand
 OpenBabel11021811483D
libRbt.so/2013.1/901 2013/11/27
 27 29  0  0  0  0  0  0  0  0999 V2000
    8.0859  -16.0917   21.0678 N   0  0  0  0  0  0  0  0  0  0  0  0
    7.8445  -16.1381   19.6244 C   0  0  2  0  0  0  0  0  0  0  0  0
    8.4606  -17.3289   18.8859 C   0  0  0  0  0  0  0  0  0  0  0  0
    7.9004  -17.7543   17.8765 O   0  0  0  0  0  0  0  0  0  0  0  0
    8.2506  -14.8317   18.9632 C   0  0  0  0  0  0  0  0  0  0  0  0
    7.8746  -14.8099   17.4916 C   0  0  0  0  0  0  0  0  0  0  0  0
    7.7291  -13.1157   16.8968 S   0  0  2  0  0  0  0  0  0  0  0  0
    7.6043  -13.4171   15.1212 C   0  0  0  0  0  0  0  0  0  0  0  0
    9.4544  -12.5838   16.9915 C   0  0  0  0  0  0  0  0  0  0  0  0
    9.6881  -11.3497   16.1397 C   0  0  1  0  0  0  0  0  0  0  0  0
    8.7443  -10.3489   16.4462 O   0  0  0  0  0  0  0  0  0  0  0  0
   11.0387  -10.7093   16.3925 C   0  0  1  0  0  0  0  0  0  0  0  0
   11.9573  -11.2317   15.4660 O   0  0  0  0  0  0  0  0  0  0  0  0
   10.7862   -9.2369   16.1384 C   0  0  1  0  0  0  0  0  0  0  0  0
   11.2531   -8.9480   14.8398 O   0  0  0  0  0  0  0  0  0  0  0  0
    9.2695   -9.0524   16.2222 C   0  0  2  0  0  0  0  0  0  0  0  0
    9.4948  -17.8884   19.2602 O   0  0  0  0  0  0  0  0  0  0  0  0
    7.6698   -4.3896   17.9878 N   0  0  0  0  0  0  0  0  0  0  0  0
    7.8653   -4.7755   16.6839 C   0  0  0  0  0  0  0  0  0  0  0  0
    8.2947   -6.0571   16.4181 N   0  0  0  0  0  0  0  0  0  0  0  0
    8.5234   -6.9392   17.4167 C   0  0  0  0  0  0  0  0  0  0  0  0
    8.3170   -6.5685   18.7376 C   0  0  0  0  0  0  0  0  0  0  0  0
    7.8927   -5.2724   19.0231 C   0  0  0  0  0  0  0  0  0  0  0  0
    7.6896   -4.8763   20.2799 N   0  0  0  0  0  0  0  0  0  0  0  0
    8.6109   -7.6374   19.5220 N   0  0  0  0  0  0  0  0  0  0  0  0
    8.9772   -8.6632   18.7194 C   0  0  0  0  0  0  0  0  0  0  0  0
    8.9215   -8.2493   17.4113 N   0  0  0  0  0  0  0  0  0  0  0  0
  2  1  1  1  0  0  0
  2  3  1  0  0  0  0
  2  5  1  0  0  0  0
  3  4  1  0  0  0  0
  3 17  1  0  0  0  0
  5  6  1  0  0  0  0
  7  6  1  1  0  0  0
  7  8  1  0  0  0  0
  7  9  1  0  0  0  0
 10  9  1  1  0  0  0
 10 11  1  0  0  0  0
 10 12  1  0  0  0  0
 11 16  1  0  0  0  0
 12 13  1  6  0  0  0
 12 14  1  0  0  0  0
 14 15  1  6  0  0  0
 14 16  1  0  0  0  0
 16 27  1  1  0  0  0
 18 19  2  0  0  0  0
 18 23  1  0  0  0  0
 19 20  1  0  0  0  0
 20 21  2  0  0  0  0
 21 22  1  0  0  0  0
 21 27  1  0  0  0  0
 22 23  2  0  0  0  0
 22 25  1  0  0  0  0
 23 24  1  0  0  0  0
 25 26  2  0  0  0  0
 26 27  1  0  0  0  0
M  END
>  <CHROM.1>
150.29803986,-174.12351074,156.99065506,169.63547456,161.80582899,51.48652019
-140.87837283,8.79850186,-10.92866172,17.55858687,1.60013042,-1.03155199
3.09713445

>  <Name>
ligand

>  <RI>
0

>  <Rbt.Current_Directory>
/home/itssahil/PROJECTS/Mol_Feturizer/New_Systems/rnas/3GX5

>  <Rbt.Executable>
rbdock ($Id: //depot/dev/client3/rdock/2013.1/src/exe/rbdock.cxx#4 $)

>  <Rbt.Library>
libRbt.so (2013.1, Build901 2013/11/27)

>  <Rbt.Parameter_File>
/export/apps/rDock/src/rDock_2013.1_src/data/scripts/dock_solv.prm

>  <Rbt.Receptor>
prm/blind_docking_100.prm

>  <SCORE>
-12.5224

>  <SCORE.INTER>
-13.3929

>  <SCORE.INTER.CONST>
1

>  <SCORE.INTER.POLAR>
0

>  <SCORE.INTER.ROT>
7

>  <SCORE.INTER.SOLV>
12.259

>  <SCORE.INTER.VDW>
-21.2816

>  <SCORE.INTER.norm>
-0.496033

>  <SCORE.INTRA>
0.8705

>  <SCORE.INTRA.DIHEDRAL>
1.48847

>  <SCORE.INTRA.DIHEDRAL.0>
4.28829

>  <SCORE.INTRA.POLAR>
0

>  <SCORE.INTRA.POLAR.0>
0

>  <SCORE.INTRA.REPUL>
0

>  <SCORE.INTRA.REPUL.0>
0

>  <SCORE.INTRA.SOLV>
-1.28762

>  <SCORE.INTRA.SOLV.lig_0>
-48.6018

>  <SCORE.INTRA.VDW>
0.770078

>  <SCORE.INTRA.VDW.0>
-2.1506

>  <SCORE.INTRA.norm>
0.0322407

>  <SCORE.RESTR>
0

>  <SCORE.RESTR.CAVITY>
0

>  <SCORE.RESTR.norm>
0

>  <SCORE.SYSTEM>
0

>  <SCORE.SYSTEM.CONST>
0

>  <SCORE.SYSTEM.DIHEDRAL>
0

>  <SCORE.SYSTEM.SOLV>
0

>  <SCORE.SYSTEM.norm>
0

>  <SCORE.heavy>
27

>  <SCORE.norm>
-0.463793

>  <RMSD>
12.779

$$$$
ligand
 OpenBabel11021811483D
libRbt.so/2013.1/901 2013/11/27
 27 29  0  0  0  0  0  0  0  0999 V2000
   10.4995   -6.5705   24.2851 N   0  0  0  0  0  0  0  0  0  0  0  0
   11.6051   -7.0230   23.4384 C   0  0  2  0  0  0  0  0  0  0  0  0
   11.7679   -6.2844   22.1077 C   0  0  0  0  0  0  0  0  0  0  0  0
   12.7722   -6.4989   21.4301 O   0  0  0  0  0  0  0  0  0  0  0  0
   11.5362   -8.5238   23.2109 C   0  0  0  0  0  0  0  0  0  0  0  0
   10.1328   -8.9682   22.8362 C   0  0  0  0  0  0  0  0  0  0  0  0
    9.7228   -8.4393   21.1636 S   0  0  2  0  0  0  0  0  0  0  0  0
    8.3990   -7.2654   21.5222 C   0  0  0  0  0  0  0  0  0  0  0  0
    8.7346   -9.8467   20.6057 C   0  0  0  0  0  0  0  0  0  0  0  0
    8.7294   -9.9380   19.0909 C   0  0  1  0  0  0  0  0  0  0  0  0
    7.8721   -8.9658   18.5378 O   0  0  0  0  0  0  0  0  0  0  0  0
   10.0890   -9.6581   18.4814 C   0  0  1  0  0  0  0  0  0  0  0  0
   10.7608  -10.8814   18.3158 O   0  0  0  0  0  0  0  0  0  0  0  0
    9.7553   -9.0340   17.1416 C   0  0  1  0  0  0  0  0  0  0  0  0
    9.8833  -10.0422   16.1643 O   0  0  0  0  0  0  0  0  0  0  0  0
    8.3027   -8.5652   17.2490 C   0  0  2  0  0  0  0  0  0  0  0  0
   10.9381   -5.4758   21.6831 O   0  0  0  0  0  0  0  0  0  0  0  0
    6.1615   -4.2824   19.3683 N   0  0  0  0  0  0  0  0  0  0  0  0
    5.9519   -5.5931   19.7223 C   0  0  0  0  0  0  0  0  0  0  0  0
    6.6128   -6.5895   19.0381 N   0  0  0  0  0  0  0  0  0  0  0  0
    7.4639   -6.2986   18.0288 C   0  0  0  0  0  0  0  0  0  0  0  0
    7.6964   -4.9791   17.6691 C   0  0  0  0  0  0  0  0  0  0  0  0
    7.0276   -3.9606   18.3449 C   0  0  0  0  0  0  0  0  0  0  0  0
    7.2193   -2.6808   18.0241 N   0  0  0  0  0  0  0  0  0  0  0  0
    8.5891   -4.9765   16.6457 N   0  0  0  0  0  0  0  0  0  0  0  0
    8.9264   -6.2586   16.3752 C   0  0  0  0  0  0  0  0  0  0  0  0
    8.2433   -7.0900   17.2282 N   0  0  0  0  0  0  0  0  0  0  0  0
  2  1  1  6  0  0  0
  2  3  1  0  0  0  0
  2  5  1  0  0  0  0
  3  4  1  0  0  0  0
  3 17  1  0  0  0  0
  5  6  1  0  0  0  0
  7  6  1  1  0  0  0
  7  8  1  0  0  0  0
  7  9  1  0  0  0  0
 10  9  1  1  0  0  0
 10 11  1  0  0  0  0
 10 12  1  0  0  0  0
 11 16  1  0  0  0  0
 12 13  1  6  0  0  0
 12 14  1  0  0  0  0
 14 15  1  6  0  0  0
 14 16  1  0  0  0  0
 16 27  1  1  0  0  0
 18 19  2  0  0  0  0
 18 23  1  0  0  0  0
 19 20  1  0  0  0  0
 20 21  2  0  0  0  0
 21 22  1  0  0  0  0
 21 27  1  0  0  0  0
 22 23  2  0  0  0  0
 22 25  1  0  0  0  0
 23 24  1  0  0  0  0
 25 26  2  0  0  0  0
 26 27  1  0  0  0  0
M  END
>  <CHROM.1>
170.92077712,46.65912856,71.87532792,-114.15495450,-156.88735510,-76.16284427
-23.42854993,9.17237845,-7.32754463,19.64866221,0.27720060,-0.96418286,0.73416680

>  <Name>
ligand

>  <RI>
0

>  <Rbt.Current_Directory>
/home/itssahil/PROJECTS/Mol_Feturizer/New_Systems/rnas/3GX5

>  <Rbt.Executable>
rbdock ($Id: //depot/dev/client3/rdock/2013.1/src/exe/rbdock.cxx#4 $)

>  <Rbt.Library>
libRbt.so (2013.1, Build901 2013/11/27)

>  <Rbt.Parameter_File>
/export/apps/rDock/src/rDock_2013.1_src/data/scripts/dock_solv.prm

>  <Rbt.Receptor>
prm/blind_docking_40.prm

>  <SCORE>
-5.74169

>  <SCORE.INTER>
-9.32223

>  <SCORE.INTER.CONST>
1

>  <SCORE.INTER.POLAR>
0

>  <SCORE.INTER.ROT>
7

>  <SCORE.INTER.SOLV>
10.5908

>  <SCORE.INTER.VDW>
-18.0117

>  <SCORE.INTER.norm>
-0.345268

>  <SCORE.INTRA>
3.58054

>  <SCORE.INTRA.DIHEDRAL>
7.19574

>  <SCORE.INTRA.DIHEDRAL.0>
4.28829

>  <SCORE.INTRA.POLAR>
0

>  <SCORE.INTRA.POLAR.0>
0

>  <SCORE.INTRA.REPUL>
0

>  <SCORE.INTRA.REPUL.0>
0

>  <SCORE.INTRA.SOLV>
1.40729

>  <SCORE.INTRA.SOLV.lig_0>
-48.6018

>  <SCORE.INTRA.VDW>
-0.720976

>  <SCORE.INTRA.VDW.0>
-2.1506

>  <SCORE.INTRA.norm>
0.132612

>  <SCORE.RESTR>
0

>  <SCORE.RESTR.CAVITY>
0

>  <SCORE.RESTR.norm>
0

>  <SCORE.SYSTEM>
0

>  <SCORE.SYSTEM.CONST>
0

>  <SCORE.SYSTEM.DIHEDRAL>
0

>  <SCORE.SYSTEM.SOLV>
0

>  <SCORE.SYSTEM.norm>
0

>  <SCORE.heavy>
27

>  <SCORE.norm>
-0.212655

>  <RMSD>
12.790

$$$$
ligand
 OpenBabel11021811483D
libRbt.so/2013.1/901 2013/11/27
 27 29  0  0  0  0  0  0  0  0999 V2000
    5.0052   -5.5459   21.0525 N   0  0  0  0  0  0  0  0  0  0  0  0
    6.1315   -4.7296   21.5098 C   0  0  2  0  0  0  0  0  0  0  0  0
    5.8557   -3.2295   21.6382 C   0  0  0  0  0  0  0  0  0  0  0  0
    5.7443   -2.7418   22.7622 O   0  0  0  0  0  0  0  0  0  0  0  0
    7.3629   -4.9746   20.6539 C   0  0  0  0  0  0  0  0  0  0  0  0
    8.0272   -6.2970   20.9965 C   0  0  0  0  0  0  0  0  0  0  0  0
    7.0262   -7.6800   20.4216 S   0  0  2  0  0  0  0  0  0  0  0  0
    8.0329   -9.0596   21.0067 C   0  0  0  0  0  0  0  0  0  0  0  0
    7.4717   -7.7036   18.6696 C   0  0  0  0  0  0  0  0  0  0  0  0
    6.4973   -8.5531   17.8745 C   0  0  1  0  0  0  0  0  0  0  0  0
    6.9868   -8.7836   16.5732 O   0  0  0  0  0  0  0  0  0  0  0  0
    6.2984   -9.9323   18.4717 C   0  0  1  0  0  0  0  0  0  0  0  0
    5.1882   -9.8868   19.3321 O   0  0  0  0  0  0  0  0  0  0  0  0
    6.0170  -10.8041   17.2647 C   0  0  1  0  0  0  0  0  0  0  0  0
    4.6207  -10.9867   17.1941 O   0  0  0  0  0  0  0  0  0  0  0  0
    6.5222  -10.0170   16.0536 C   0  0  2  0  0  0  0  0  0  0  0  0
    5.7337   -2.4838   20.6627 O   0  0  0  0  0  0  0  0  0  0  0  0
   11.2898   -9.3965   13.9792 N   0  0  0  0  0  0  0  0  0  0  0  0
   10.4546   -8.4264   14.4777 C   0  0  0  0  0  0  0  0  0  0  0  0
    9.2265   -8.7906   14.9846 N   0  0  0  0  0  0  0  0  0  0  0  0
    8.8327  -10.0837   15.0019 C   0  0  0  0  0  0  0  0  0  0  0  0
    9.6709  -11.0761   14.5148 C   0  0  0  0  0  0  0  0  0  0  0  0
   10.9119  -10.7224   13.9894 C   0  0  0  0  0  0  0  0  0  0  0  0
   11.7428  -11.6463   13.5058 N   0  0  0  0  0  0  0  0  0  0  0  0
    9.0359  -12.2676   14.6606 N   0  0  0  0  0  0  0  0  0  0  0  0
    7.8349  -12.0388   15.2400 C   0  0  0  0  0  0  0  0  0  0  0  0
    7.6962  -10.6912   15.4646 N   0  0  0  0  0  0  0  0  0  0  0  0
  2  1  1  6  0  0  0
  2  3  1  0  0  0  0
  2  5  1  0  0  0  0
  3  4  1  0  0  0  0
  3 17  1  0  0  0  0
  5  6  1  0  0  0  0
  7  6  1  1  0  0  0
  7  8  1  0  0  0  0
  7  9  1  0  0  0  0
 10  9  1  1  0  0  0
 10 11  1  0  0  0  0
 10 12  1  0  0  0  0
 11 16  1  0  0  0  0
 12 13  1  1  0  0  0
 12 14  1  0  0  0  0
 14 15  1  6  0  0  0
 14 16  1  0  0  0  0
 16 27  1  1  0  0  0
 18 19  2  0  0  0  0
 18 23  1  0  0  0  0
 19 20  1  0  0  0  0
 20 21  2  0  0  0  0
 21 22  1  0  0  0  0
 21 27  1  0  0  0  0
 22 23  2  0  0  0  0
 22 25  1  0  0  0  0
 23 24  1  0  0  0  0
 25 26  2  0  0  0  0
 26 27  1  0  0  0  0
M  END
>  <CHROM.1>
106.76100983,-76.00453278,71.44706473,-178.44255737,-165.33896276,-168.53388540
-24.69291208,7.50143867,-8.36289567,17.92912484,1.99930855,0.63165020,0.56441996

>  <Name>
ligand

>  <RI>
0

>  <Rbt.Current_Directory>
/home/itssahil/PROJECTS/Mol_Feturizer/New_Systems/rnas/3GX5

>  <Rbt.Executable>
rbdock ($Id: //depot/dev/client3/rdock/2013.1/src/exe/rbdock.cxx#4 $)

>  <Rbt.Library>
libRbt.so (2013.1, Build901 2013/11/27)

>  <Rbt.Parameter_File>
/export/apps/rDock/src/rDock_2013.1_src/data/scripts/dock_solv.prm

>  <Rbt.Receptor>
prm/blind_docking_60.prm

>  <SCORE>
-4.68751

>  <SCORE.INTER>
-7.0637

>  <SCORE.INTER.CONST>
1

>  <SCORE.INTER.POLAR>
0

>  <SCORE.INTER.ROT>
7

>  <SCORE.INTER.SOLV>
12.2539

>  <SCORE.INTER.VDW>
-17.0604

>  <SCORE.INTER.norm>
-0.261619

>  <SCORE.INTRA>
2.37619

>  <SCORE.INTRA.DIHEDRAL>
2.75111

>  <SCORE.INTRA.DIHEDRAL.0>
4.28829

>  <SCORE.INTRA.POLAR>
0

>  <SCORE.INTRA.POLAR.0>
0

>  <SCORE.INTRA.REPUL>
0

>  <SCORE.INTRA.REPUL.0>
0

>  <SCORE.INTRA.SOLV>
1.4166

>  <SCORE.INTRA.SOLV.lig_0>
-48.6018

>  <SCORE.INTRA.VDW>
0.292334

>  <SCORE.INTRA.VDW.0>
-2.1506

>  <SCORE.INTRA.norm>
0.088007

>  <SCORE.RESTR>
0

>  <SCORE.RESTR.CAVITY>
0

>  <SCORE.RESTR.norm>
0

>  <SCORE.SYSTEM>
0

>  <SCORE.SYSTEM.CONST>
0

>  <SCORE.SYSTEM.DIHEDRAL>
0

>  <SCORE.SYSTEM.SOLV>
0

>  <SCORE.SYSTEM.norm>
0

>  <SCORE.heavy>
27

>  <SCORE.norm>
-0.173611

>  <RMSD>
12.798

$$$$
ligand
 OpenBabel11021811483D
libRbt.so/2013.1/901 2013/11/27
 27 29  0  0  0  0  0  0  0  0999 V2000
    5.0076   -6.4228   19.2213 N   0  0  0  0  0  0  0  0  0  0  0  0
    6.0516   -7.4492   19.2267 C   0  0  2  0  0  0  0  0  0  0  0  0
    6.8776   -7.5633   17.9431 C   0  0  0  0  0  0  0  0  0  0  0  0
    6.4630   -7.0175   16.9214 O   0  0  0  0  0  0  0  0  0  0  0  0
    5.4811   -8.8026   19.6163 C   0  0  0  0  0  0  0  0  0  0  0  0
    4.3926   -9.2477   18.6548 C   0  0  0  0  0  0  0  0  0  0  0  0
    5.1108   -9.8755   17.1267 S   0  0  2  0  0  0  0  0  0  0  0  0
    3.6260  -10.5134   16.3219 C   0  0  0  0  0  0  0  0  0  0  0  0
    5.8268  -11.4288   17.7127 C   0  0  0  0  0  0  0  0  0  0  0  0
    6.7847  -12.0047   16.6861 C   0  0  1  0  0  0  0  0  0  0  0  0
    7.7983  -11.0757   16.3767 O   0  0  0  0  0  0  0  0  0  0  0  0
    7.5158  -13.2334   17.1901 C   0  0  1  0  0  0  0  0  0  0  0  0
    6.7895  -14.3720   16.8013 O   0  0  0  0  0  0  0  0  0  0  0  0
    8.8511  -13.1691   16.4767 C   0  0  1  0  0  0  0  0  0  0  0  0
    8.7858  -14.0541   15.3811 O   0  0  0  0  0  0  0  0  0  0  0  0
    8.9996  -11.7236   15.9972 C   0  0  2  0  0  0  0  0  0  0  0  0
    7.9422   -8.1845   17.8832 O   0  0  0  0  0  0  0  0  0  0  0  0
   10.4154   -9.4197   20.4812 N   0  0  0  0  0  0  0  0  0  0  0  0
    9.2046   -9.9906   20.1723 C   0  0  0  0  0  0  0  0  0  0  0  0
    9.0222  -10.5505   18.9270 N   0  0  0  0  0  0  0  0  0  0  0  0
   10.0136  -10.5497   18.0079 C   0  0  0  0  0  0  0  0  0  0  0  0
   11.2463   -9.9894   18.3101 C   0  0  0  0  0  0  0  0  0  0  0  0
   11.4428   -9.4100   19.5618 C   0  0  0  0  0  0  0  0  0  0  0  0
   12.6108   -8.8556   19.8875 N   0  0  0  0  0  0  0  0  0  0  0  0
   12.0477  -10.1327   17.2232 N   0  0  0  0  0  0  0  0  0  0  0  0
   11.3478  -10.7813   16.2640 C   0  0  0  0  0  0  0  0  0  0  0  0
   10.0876  -11.0534   16.7368 N   0  0  0  0  0  0  0  0  0  0  0  0
  2  1  1  6  0  0  0
  2  3  1  0  0  0  0
  2  5  1  0  0  0  0
  3  4  1  0  0  0  0
  3 17  1  0  0  0  0
  5  6  1  0  0  0  0
  7  6  1  1  0  0  0
  7  8  1  0  0  0  0
  7  9  1  0  0  0  0
 10  9  1  1  0  0  0
 10 11  1  0  0  0  0
 10 12  1  0  0  0  0
 11 16  1  0  0  0  0
 12 13  1  6  0  0  0
 12 14  1  0  0  0  0
 14 15  1  6  0  0  0
 14 16  1  0  0  0  0
 16 27  1  1  0  0  0
 18 19  2  0  0  0  0
 18 23  1  0  0  0  0
 19 20  1  0  0  0  0
 20 21  2  0  0  0  0
 21 22  1  0  0  0  0
 21 27  1  0  0  0  0
 22 23  2  0  0  0  0
 22 25  1  0  0  0  0
 23 24  1  0  0  0  0
 25 26  2  0  0  0  0
 26 27  1  0  0  0  0
M  END
>  <CHROM.1>
-14.83403045,59.60358644,77.60441163,172.67077308,-166.36791482,56.82836196
35.34365371,7.91992997,-10.25568665,17.74557535,-2.86666425,0.15668872,-2.63681084

>  <Name>
ligand

>  <RI>
0

>  <Rbt.Current_Directory>
/home/itssahil/PROJECTS/Mol_Feturizer/New_Systems/rnas/3GX5

>  <Rbt.Executable>
rbdock ($Id: //depot/dev/client3/rdock/2013.1/src/exe/rbdock.cxx#4 $)

>  <Rbt.Library>
libRbt.so (2013.1, Build901 2013/11/27)

>  <Rbt.Parameter_File>
/export/apps/rDock/src/rDock_2013.1_src/data/scripts/dock_solv.prm

>  <Rbt.Receptor>
prm/blind_docking_80.prm

>  <SCORE>
-14.0473

>  <SCORE.INTER>
-12.1974

>  <SCORE.INTER.CONST>
1

>  <SCORE.INTER.POLAR>
0

>  <SCORE.INTER.ROT>
7

>  <SCORE.INTER.SOLV>
9.57497

>  <SCORE.INTER.VDW>
-19.5899

>  <SCORE.INTER.norm>
-0.451754

>  <SCORE.INTRA>
-1.8499

>  <SCORE.INTRA.DIHEDRAL>
1.68424

>  <SCORE.INTRA.DIHEDRAL.0>
4.28829

>  <SCORE.INTRA.POLAR>
0

>  <SCORE.INTRA.POLAR.0>
0

>  <SCORE.INTRA.REPUL>
0

>  <SCORE.INTRA.REPUL.0>
0

>  <SCORE.INTRA.SOLV>
0.059055

>  <SCORE.INTRA.SOLV.lig_0>
-48.6018

>  <SCORE.INTRA.VDW>
-2.72154

>  <SCORE.INTRA.VDW.0>
-2.1506

>  <SCORE.INTRA.norm>
-0.0685148

>  <SCORE.RESTR>
0

>  <SCORE.RESTR.CAVITY>
0

>  <SCORE.RESTR.norm>
0

>  <SCORE.SYSTEM>
0

>  <SCORE.SYSTEM.CONST>
0

>  <SCORE.SYSTEM.DIHEDRAL>
0

>  <SCORE.SYSTEM.SOLV>
0

>  <SCORE.SYSTEM.norm>
0

>  <SCORE.heavy>
27

>  <SCORE.norm>
-0.520269

>  <RMSD>
12.799

$$$$
ligand
 OpenBabel11021811483D
libRbt.so/2013.1/901 2013/11/27
 27 29  0  0  0  0  0  0  0  0999 V2000
    7.2531  -17.1763   19.4323 N   0  0  0  0  0  0  0  0  0  0  0  0
    8.2365  -16.0964   19.3305 C   0  0  2  0  0  0  0  0  0  0  0  0
    8.7534  -15.5413   20.6599 C   0  0  0  0  0  0  0  0  0  0  0  0
    9.8627  -15.8942   21.0581 O   0  0  0  0  0  0  0  0  0  0  0  0
    7.7202  -14.9727   18.4475 C   0  0  0  0  0  0  0  0  0  0  0  0
    8.8153  -13.9726   18.1187 C   0  0  0  0  0  0  0  0  0  0  0  0
    8.1876  -12.6729   17.0408 S   0  0  2  0  0  0  0  0  0  0  0  0
    8.1070  -13.5737   15.4784 C   0  0  0  0  0  0  0  0  0  0  0  0
    9.6977  -11.7189   16.7609 C   0  0  0  0  0  0  0  0  0  0  0  0
    9.4624  -10.6194   15.7417 C   0  0  1  0  0  0  0  0  0  0  0  0
    8.4430   -9.7489   16.1768 O   0  0  0  0  0  0  0  0  0  0  0  0
   10.6775   -9.7353   15.5410 C   0  0  1  0  0  0  0  0  0  0  0  0
   11.4243  -10.2459   14.4655 O   0  0  0  0  0  0  0  0  0  0  0  0
   10.0811   -8.3853   15.1980 C   0  0  1  0  0  0  0  0  0  0  0  0
   10.1457   -8.2406   13.7969 O   0  0  0  0  0  0  0  0  0  0  0  0
    8.6267   -8.4385   15.6705 C   0  0  2  0  0  0  0  0  0  0  0  0
    8.1044  -14.7569   21.3573 O   0  0  0  0  0  0  0  0  0  0  0  0
    7.2989   -8.0101   20.7174 N   0  0  0  0  0  0  0  0  0  0  0  0
    7.3938   -9.1555   19.9650 C   0  0  0  0  0  0  0  0  0  0  0  0
    7.7602   -9.0627   18.6403 N   0  0  0  0  0  0  0  0  0  0  0  0
    8.0297   -7.8662   18.0716 C   0  0  0  0  0  0  0  0  0  0  0  0
    7.9517   -6.7022   18.8222 C   0  0  0  0  0  0  0  0  0  0  0  0
    7.5725   -6.7788   20.1607 C   0  0  0  0  0  0  0  0  0  0  0  0
    7.4796   -5.6820   20.9132 N   0  0  0  0  0  0  0  0  0  0  0  0
    8.2781   -5.6612   18.0135 N   0  0  0  0  0  0  0  0  0  0  0  0
    8.5717   -6.1535   16.7879 C   0  0  0  0  0  0  0  0  0  0  0  0
    8.4295   -7.5192   16.8088 N   0  0  0  0  0  0  0  0  0  0  0  0
  2  1  1  1  0  0  0
  2  3  1  0  0  0  0
  2  5  1  0  0  0  0
  3  4  1  0  0  0  0
  3 17  1  0  0  0  0
  5  6  1  0  0  0  0
  7  6  1  1  0  0  0
  7  8  1  0  0  0  0
  7  9  1  0  0  0  0
 10  9  1  1  0  0  0
 10 11  1  0  0  0  0
 10 12  1  0  0  0  0
 11 16  1  0  0  0  0
 12 13  1  6  0  0  0
 12 14  1  0  0  0  0
 14 15  1  6  0  0  0
 14 16  1  0  0  0  0
 16 27  1  1  0  0  0
 18 19  2  0  0  0  0
 18 23  1  0  0  0  0
 19 20  1  0  0  0  0
 20 21  2  0  0  0  0
 21 22  1  0  0  0  0
 21 27  1  0  0  0  0
 22 23  2  0  0  0  0
 22 25  1  0  0  0  0
 23 24  1  0  0  0  0
 25 26  2  0  0  0  0
 26 27  1  0  0  0  0
M  END
>  <CHROM.1>
101.87940217,-169.30637774,178.68501589,-75.24303746,174.03711203,58.89519775
-5.32046724,8.61765243,-10.72654058,17.82003947,1.65192740,-1.20735719,2.97406358

>  <Name>
ligand

>  <RI>
0

>  <Rbt.Current_Directory>
/home/itssahil/PROJECTS/Mol_Feturizer/New_Systems/rnas/3GX5

>  <Rbt.Executable>
rbdock ($Id: //depot/dev/client3/rdock/2013.1/src/exe/rbdock.cxx#4 $)

>  <Rbt.Library>
libRbt.so (2013.1, Build901 2013/11/27)

>  <Rbt.Parameter_File>
/export/apps/rDock/src/rDock_2013.1_src/data/scripts/dock_solv.prm

>  <Rbt.Receptor>
prm/blind_docking_100.prm

>  <SCORE>
-16.0257

>  <SCORE.INTER>
-15.4258

>  <SCORE.INTER.CONST>
1

>  <SCORE.INTER.POLAR>
0

>  <SCORE.INTER.ROT>
7

>  <SCORE.INTER.SOLV>
9.87706

>  <SCORE.INTER.VDW>
-21.8429

>  <SCORE.INTER.norm>
-0.571327

>  <SCORE.INTRA>
-0.599872

>  <SCORE.INTRA.DIHEDRAL>
-0.354547

>  <SCORE.INTRA.DIHEDRAL.0>
4.28829

>  <SCORE.INTRA.POLAR>
0

>  <SCORE.INTRA.POLAR.0>
0

>  <SCORE.INTRA.REPUL>
0

>  <SCORE.INTRA.REPUL.0>
0

>  <SCORE.INTRA.SOLV>
-1.27161

>  <SCORE.INTRA.SOLV.lig_0>
-48.6018

>  <SCORE.INTRA.VDW>
0.213204

>  <SCORE.INTRA.VDW.0>
-2.1506

>  <SCORE.INTRA.norm>
-0.0222175

>  <SCORE.RESTR>
0

>  <SCORE.RESTR.CAVITY>
0

>  <SCORE.RESTR.norm>
0

>  <SCORE.SYSTEM>
0

>  <SCORE.SYSTEM.CONST>
0

>  <SCORE.SYSTEM.DIHEDRAL>
0

>  <SCORE.SYSTEM.SOLV>
0

>  <SCORE.SYSTEM.norm>
0

>  <SCORE.heavy>
27

>  <SCORE.norm>
-0.593544

>  <RMSD>
12.846

$$$$
ligand
 OpenBabel11021811483D
libRbt.so/2013.1/901 2013/11/27
 27 29  0  0  0  0  0  0  0  0999 V2000
   13.8834   -9.3243   15.0983 N   0  0  0  0  0  0  0  0  0  0  0  0
   13.1464   -8.0666   15.2356 C   0  0  2  0  0  0  0  0  0  0  0  0
   13.2622   -7.0968   14.0571 C   0  0  0  0  0  0  0  0  0  0  0  0
   12.3215   -7.0068   13.2693 O   0  0  0  0  0  0  0  0  0  0  0  0
   13.5006   -7.3686   16.5380 C   0  0  0  0  0  0  0  0  0  0  0  0
   13.0567   -8.1781   17.7442 C   0  0  0  0  0  0  0  0  0  0  0  0
   13.8938   -7.6104   19.2349 S   0  0  2  0  0  0  0  0  0  0  0  0
   15.5654   -8.2050   18.9009 C   0  0  0  0  0  0  0  0  0  0  0  0
   13.3562   -8.8703   20.4150 C   0  0  0  0  0  0  0  0  0  0  0  0
   12.2032   -8.3626   21.2612 C   0  0  1  0  0  0  0  0  0  0  0  0
   11.0809   -8.0842   20.4555 O   0  0  0  0  0  0  0  0  0  0  0  0
   11.7208   -9.3859   22.2703 C   0  0  1  0  0  0  0  0  0  0  0  0
   12.3964   -9.1654   23.4828 O   0  0  0  0  0  0  0  0  0  0  0  0
   10.2429   -9.0802   22.4065 C   0  0  1  0  0  0  0  0  0  0  0  0
   10.0774   -8.3194   23.5820 O   0  0  0  0  0  0  0  0  0  0  0  0
    9.8708   -8.2569   21.1716 C   0  0  2  0  0  0  0  0  0  0  0  0
   14.2618   -6.4018   13.8557 O   0  0  0  0  0  0  0  0  0  0  0  0
    9.0150  -10.0257   16.3181 N   0  0  0  0  0  0  0  0  0  0  0  0
   10.0814   -9.2872   16.7704 C   0  0  0  0  0  0  0  0  0  0  0  0
   10.1271   -8.9117   18.0950 N   0  0  0  0  0  0  0  0  0  0  0  0
    9.1437   -9.2599   18.9548 C   0  0  0  0  0  0  0  0  0  0  0  0
    8.0674  -10.0173   18.5159 C   0  0  0  0  0  0  0  0  0  0  0  0
    8.0018  -10.3960   17.1766 C   0  0  0  0  0  0  0  0  0  0  0  0
    6.9806  -11.1184   16.7153 N   0  0  0  0  0  0  0  0  0  0  0  0
    7.2448  -10.2272   19.5758 N   0  0  0  0  0  0  0  0  0  0  0  0
    7.7930   -9.6334   20.6609 C   0  0  0  0  0  0  0  0  0  0  0  0
    8.9737   -9.0355   20.2948 N   0  0  0  0  0  0  0  0  0  0  0  0
  2  1  1  6  0  0  0
  2  3  1  0  0  0  0
  2  5  1  0  0  0  0
  3  4  1  0  0  0  0
  3 17  1  0  0  0  0
  5  6  1  0  0  0  0
  7  6  1  6  0  0  0
  7  8  1  0  0  0  0
  7  9  1  0  0  0  0
 10  9  1  6  0  0  0
 10 11  1  0  0  0  0
 10 12  1  0  0  0  0
 11 16  1  0  0  0  0
 12 13  1  1  0  0  0
 12 14  1  0  0  0  0
 14 15  1  1  0  0  0
 14 16  1  0  0  0  0
 16 27  1  6  0  0  0
 18 19  2  0  0  0  0
 18 23  1  0  0  0  0
 19 20  1  0  0  0  0
 20 21  2  0  0  0  0
 21 22  1  0  0  0  0
 21 27  1  0  0  0  0
 22 23  2  0  0  0  0
 22 25  1  0  0  0  0
 23 24  1  0  0  0  0
 25 26  2  0  0  0  0
 26 27  1  0  0  0  0
M  END
>  <CHROM.1>
103.08529567,-64.95210172,163.10412293,-70.77683658,-99.31832991,62.80194959
-14.45059248,11.29765681,-8.67259338,18.63763140,-1.02867845,0.35432365,1.61410481

>  <Name>
ligand

>  <RI>
0

>  <Rbt.Current_Directory>
/home/itssahil/PROJECTS/Mol_Feturizer/New_Systems/rnas/3GX5

>  <Rbt.Executable>
rbdock ($Id: //depot/dev/client3/rdock/2013.1/src/exe/rbdock.cxx#4 $)

>  <Rbt.Library>
libRbt.so (2013.1, Build901 2013/11/27)

>  <Rbt.Parameter_File>
/export/apps/rDock/src/rDock_2013.1_src/data/scripts/dock_solv.prm

>  <Rbt.Receptor>
prm/blind_docking_80.prm

>  <SCORE>
-9.18932

>  <SCORE.INTER>
-9.65173

>  <SCORE.INTER.CONST>
1

>  <SCORE.INTER.POLAR>
0

>  <SCORE.INTER.ROT>
7

>  <SCORE.INTER.SOLV>
7.46875

>  <SCORE.INTER.VDW>
-17.1907

>  <SCORE.INTER.norm>
-0.357471

>  <SCORE.INTRA>
0.462401

>  <SCORE.INTRA.DIHEDRAL>
2.45856

>  <SCORE.INTRA.DIHEDRAL.0>
4.28829

>  <SCORE.INTRA.POLAR>
0

>  <SCORE.INTRA.POLAR.0>
0

>  <SCORE.INTRA.REPUL>
0

>  <SCORE.INTRA.REPUL.0>
0

>  <SCORE.INTRA.SOLV>
-0.148917

>  <SCORE.INTRA.SOLV.lig_0>
-48.6018

>  <SCORE.INTRA.VDW>
-0.692423

>  <SCORE.INTRA.VDW.0>
-2.1506

>  <SCORE.INTRA.norm>
0.017126

>  <SCORE.RESTR>
0

>  <SCORE.RESTR.CAVITY>
0

>  <SCORE.RESTR.norm>
0

>  <SCORE.SYSTEM>
0

>  <SCORE.SYSTEM.CONST>
0

>  <SCORE.SYSTEM.DIHEDRAL>
0

>  <SCORE.SYSTEM.SOLV>
0

>  <SCORE.SYSTEM.norm>
0

>  <SCORE.heavy>
27

>  <SCORE.norm>
-0.340345

>  <RMSD>
12.864

$$$$
ligand
 OpenBabel11021811483D
libRbt.so/2013.1/901 2013/11/27
 27 29  0  0  0  0  0  0  0  0999 V2000
    2.0365   -3.8576   22.5956 N   0  0  0  0  0  0  0  0  0  0  0  0
    3.2717   -4.6263   22.4309 C   0  0  2  0  0  0  0  0  0  0  0  0
    4.5423   -3.9655   22.9710 C   0  0  0  0  0  0  0  0  0  0  0  0
    4.8150   -2.8217   22.6089 O   0  0  0  0  0  0  0  0  0  0  0  0
    3.4621   -5.0453   20.9828 C   0  0  0  0  0  0  0  0  0  0  0  0
    4.5606   -6.0849   20.8419 C   0  0  0  0  0  0  0  0  0  0  0  0
    4.7091   -6.6262   19.1301 S   0  0  2  0  0  0  0  0  0  0  0  0
    3.1413   -7.5011   18.9413 C   0  0  0  0  0  0  0  0  0  0  0  0
    5.8206   -8.0385   19.3262 C   0  0  0  0  0  0  0  0  0  0  0  0
    6.1074   -8.6918   17.9868 C   0  0  1  0  0  0  0  0  0  0  0  0
    7.0537   -7.9411   17.2607 O   0  0  0  0  0  0  0  0  0  0  0  0
    6.7206  -10.0713   18.1259 C   0  0  1  0  0  0  0  0  0  0  0  0
    5.6852  -11.0212   18.0995 O   0  0  0  0  0  0  0  0  0  0  0  0
    7.6029  -10.1926   16.9000 C   0  0  1  0  0  0  0  0  0  0  0  0
    6.8969  -10.9558   15.9476 O   0  0  0  0  0  0  0  0  0  0  0  0
    7.8182   -8.7636   16.3969 C   0  0  2  0  0  0  0  0  0  0  0  0
    5.3127   -4.5307   23.7519 O   0  0  0  0  0  0  0  0  0  0  0  0
   12.3111   -7.4876   14.0296 N   0  0  0  0  0  0  0  0  0  0  0  0
   11.1064   -7.7919   13.4438 C   0  0  0  0  0  0  0  0  0  0  0  0
   10.0294   -8.1067   14.2429 N   0  0  0  0  0  0  0  0  0  0  0  0
   10.1381   -8.1179   15.5904 C   0  0  0  0  0  0  0  0  0  0  0  0
   11.3444   -7.7992   16.1969 C   0  0  0  0  0  0  0  0  0  0  0  0
   12.4457   -7.4887   15.4017 C   0  0  0  0  0  0  0  0  0  0  0  0
   13.6235   -7.1836   15.9469 N   0  0  0  0  0  0  0  0  0  0  0  0
   11.1699   -7.8796   17.5412 N   0  0  0  0  0  0  0  0  0  0  0  0
    9.8835   -8.2234   17.7810 C   0  0  0  0  0  0  0  0  0  0  0  0
    9.2285   -8.3679   16.5828 N   0  0  0  0  0  0  0  0  0  0  0  0
  2  1  1  6  0  0  0
  2  3  1  0  0  0  0
  2  5  1  0  0  0  0
  3  4  1  0  0  0  0
  3 17  1  0  0  0  0
  5  6  1  0  0  0  0
  7  6  1  1  0  0  0
  7  8  1  0  0  0  0
  7  9  1  0  0  0  0
 10  9  1  1  0  0  0
 10 11  1  0  0  0  0
 10 12  1  0  0  0  0
 11 16  1  0  0  0  0
 12 13  1  6  0  0  0
 12 14  1  0  0  0  0
 14 15  1  6  0  0  0
 14 16  1  0  0  0  0
 16 27  1  1  0  0  0
 18 19  2  0  0  0  0
 18 23  1  0  0  0  0
 19 20  1  0  0  0  0
 20 21  2  0  0  0  0
 21 22  1  0  0  0  0
 21 27  1  0  0  0  0
 22 23  2  0  0  0  0
 22 25  1  0  0  0  0
 23 24  1  0  0  0  0
 25 26  2  0  0  0  0
 26 27  1  0  0  0  0
M  END
>  <CHROM.1>
-52.83549933,-167.65167235,177.10491293,-67.81370847,179.83195195,77.79300199
-132.97012219,7.20106589,-7.33517121,18.30479984,-2.42482233,-0.40975087
-2.48705605

>  <Name>
ligand

>  <RI>
0

>  <Rbt.Current_Directory>
/home/itssahil/PROJECTS/Mol_Feturizer/New_Systems/rnas/3GX5

>  <Rbt.Executable>
rbdock ($Id: //depot/dev/client3/rdock/2013.1/src/exe/rbdock.cxx#4 $)

>  <Rbt.Library>
libRbt.so (2013.1, Build901 2013/11/27)

>  <Rbt.Parameter_File>
/export/apps/rDock/src/rDock_2013.1_src/data/scripts/dock_solv.prm

>  <Rbt.Receptor>
prm/blind_docking_60.prm

>  <SCORE>
-6.10934

>  <SCORE.INTER>
-6.1288

>  <SCORE.INTER.CONST>
1

>  <SCORE.INTER.POLAR>
0

>  <SCORE.INTER.ROT>
7

>  <SCORE.INTER.SOLV>
17.7568

>  <SCORE.INTER.VDW>
-18.2715

>  <SCORE.INTER.norm>
-0.226992

>  <SCORE.INTRA>
0.019451

>  <SCORE.INTRA.DIHEDRAL>
0.936077

>  <SCORE.INTRA.DIHEDRAL.0>
4.28829

>  <SCORE.INTRA.POLAR>
0

>  <SCORE.INTRA.POLAR.0>
0

>  <SCORE.INTRA.REPUL>
0

>  <SCORE.INTRA.REPUL.0>
0

>  <SCORE.INTRA.SOLV>
-1.33554

>  <SCORE.INTRA.SOLV.lig_0>
-48.6018

>  <SCORE.INTRA.VDW>
0.219185

>  <SCORE.INTRA.VDW.0>
-2.1506

>  <SCORE.INTRA.norm>
0.000720408

>  <SCORE.RESTR>
0

>  <SCORE.RESTR.CAVITY>
0

>  <SCORE.RESTR.norm>
0

>  <SCORE.SYSTEM>
0

>  <SCORE.SYSTEM.CONST>
0

>  <SCORE.SYSTEM.DIHEDRAL>
0

>  <SCORE.SYSTEM.SOLV>
0

>  <SCORE.SYSTEM.norm>
0

>  <SCORE.heavy>
27

>  <SCORE.norm>
-0.226272

>  <RMSD>
12.899

$$$$
ligand
 OpenBabel11021811483D
libRbt.so/2013.1/901 2013/11/27
 27 29  0  0  0  0  0  0  0  0999 V2000
   11.0864  -11.3032   15.8971 N   0  0  0  0  0  0  0  0  0  0  0  0
   10.6214  -11.8887   14.6382 C   0  0  2  0  0  0  0  0  0  0  0  0
   10.7906  -11.0115   13.3953 C   0  0  0  0  0  0  0  0  0  0  0  0
   10.1800   -9.9450   13.3353 O   0  0  0  0  0  0  0  0  0  0  0  0
    9.1853  -12.3699   14.7604 C   0  0  0  0  0  0  0  0  0  0  0  0
    8.3166  -11.3571   15.4862 C   0  0  0  0  0  0  0  0  0  0  0  0
    8.2622  -11.7139   17.2512 S   0  0  2  0  0  0  0  0  0  0  0  0
    6.9968  -13.0013   17.2713 C   0  0  0  0  0  0  0  0  0  0  0  0
    7.2788  -10.3157   17.8400 C   0  0  0  0  0  0  0  0  0  0  0  0
    7.5776  -10.0195   19.2981 C   0  0  1  0  0  0  0  0  0  0  0  0
    8.9056  -10.3697   19.6138 O   0  0  0  0  0  0  0  0  0  0  0  0
    7.4681   -8.5447   19.6317 C   0  0  1  0  0  0  0  0  0  0  0  0
    6.1653   -8.2902   20.0932 O   0  0  0  0  0  0  0  0  0  0  0  0
    8.4851   -8.3552   20.7389 C   0  0  1  0  0  0  0  0  0  0  0  0
    7.7814   -8.3533   21.9607 O   0  0  0  0  0  0  0  0  0  0  0  0
    9.4230   -9.5614   20.6560 C   0  0  2  0  0  0  0  0  0  0  0  0
   11.5096  -11.3277   12.4436 O   0  0  0  0  0  0  0  0  0  0  0  0
   13.4613   -6.3625   21.5927 N   0  0  0  0  0  0  0  0  0  0  0  0
   12.2986   -6.4858   22.3138 C   0  0  0  0  0  0  0  0  0  0  0  0
   11.3446   -7.3910   21.9039 N   0  0  0  0  0  0  0  0  0  0  0  0
   11.5352   -8.1597   20.8082 C   0  0  0  0  0  0  0  0  0  0  0  0
   12.7101   -8.0565   20.0779 C   0  0  0  0  0  0  0  0  0  0  0  0
   13.6801   -7.1381   20.4740 C   0  0  0  0  0  0  0  0  0  0  0  0
   14.8194   -7.0048   19.7944 N   0  0  0  0  0  0  0  0  0  0  0  0
   12.6403   -8.9389   19.0480 N   0  0  0  0  0  0  0  0  0  0  0  0
   11.4606   -9.5958   19.1328 C   0  0  0  0  0  0  0  0  0  0  0  0
   10.7668   -9.1298   20.2224 N   0  0  0  0  0  0  0  0  0  0  0  0
  2  1  1  1  0  0  0
  2  3  1  0  0  0  0
  2  5  1  0  0  0  0
  3  4  1  0  0  0  0
  3 17  1  0  0  0  0
  5  6  1  0  0  0  0
  7  6  1  6  0  0  0
  7  8  1  0  0  0  0
  7  9  1  0  0  0  0
 10  9  1  6  0  0  0
 10 11  1  0  0  0  0
 10 12  1  0  0  0  0
 11 16  1  0  0  0  0
 12 13  1  1  0  0  0
 12 14  1  0  0  0  0
 14 15  1  1  0  0  0
 14 16  1  0  0  0  0
 16 27  1  6  0  0  0
 18 19  2  0  0  0  0
 18 23  1  0  0  0  0
 19 20  1  0  0  0  0
 20 21  2  0  0  0  0
 21 22  1  0  0  0  0
 21 27  1  0  0  0  0
 22 23  2  0  0  0  0
 22 25  1  0  0  0  0
 23 24  1  0  0  0  0
 25 26  2  0  0  0  0
 26 27  1  0  0  0  0
M  END
>  <CHROM.1>
-63.20147471,43.74736243,-92.64587316,-81.85057682,-154.88261891,29.96367334
168.11615957,10.00653235,-9.62893631,18.38642670,-1.87022444,0.32600214,1.10232253

>  <Name>
ligand

>  <RI>
0

>  <Rbt.Current_Directory>
/home/itssahil/PROJECTS/Mol_Feturizer/New_Systems/rnas/3GX5

>  <Rbt.Executable>
rbdock ($Id: //depot/dev/client3/rdock/2013.1/src/exe/rbdock.cxx#4 $)

>  <Rbt.Library>
libRbt.so (2013.1, Build901 2013/11/27)

>  <Rbt.Parameter_File>
/export/apps/rDock/src/rDock_2013.1_src/data/scripts/dock_solv.prm

>  <Rbt.Receptor>
prm/blind_docking_100.prm

>  <SCORE>
-8.10426

>  <SCORE.INTER>
-13.6681

>  <SCORE.INTER.CONST>
1

>  <SCORE.INTER.POLAR>
0

>  <SCORE.INTER.ROT>
7

>  <SCORE.INTER.SOLV>
15.1426

>  <SCORE.INTER.VDW>
-22.4262

>  <SCORE.INTER.norm>
-0.506224

>  <SCORE.INTRA>
5.5638

>  <SCORE.INTRA.DIHEDRAL>
8.98231

>  <SCORE.INTRA.DIHEDRAL.0>
4.28829

>  <SCORE.INTRA.POLAR>
0

>  <SCORE.INTRA.POLAR.0>
0

>  <SCORE.INTRA.REPUL>
0.0127606

>  <SCORE.INTRA.REPUL.0>
0

>  <SCORE.INTRA.SOLV>
1.16522

>  <SCORE.INTRA.SOLV.lig_0>
-48.6018

>  <SCORE.INTRA.VDW>
0.426228

>  <SCORE.INTRA.VDW.0>
-2.1506

>  <SCORE.INTRA.norm>
0.206067

>  <SCORE.RESTR>
0

>  <SCORE.RESTR.CAVITY>
0

>  <SCORE.RESTR.norm>
0

>  <SCORE.SYSTEM>
0

>  <SCORE.SYSTEM.CONST>
0

>  <SCORE.SYSTEM.DIHEDRAL>
0

>  <SCORE.SYSTEM.SOLV>
0

>  <SCORE.SYSTEM.norm>
0

>  <SCORE.heavy>
27

>  <SCORE.norm>
-0.300158

>  <RMSD>
12.907

$$$$
ligand
 OpenBabel11021811483D
libRbt.so/2013.1/901 2013/11/27
 27 29  0  0  0  0  0  0  0  0999 V2000
    8.4046  -17.2196   18.8870 N   0  0  0  0  0  0  0  0  0  0  0  0
    8.1575  -15.9478   19.5691 C   0  0  2  0  0  0  0  0  0  0  0  0
    7.2639  -16.0221   20.8096 C   0  0  0  0  0  0  0  0  0  0  0  0
    7.3722  -15.1501   21.6708 O   0  0  0  0  0  0  0  0  0  0  0  0
    7.6359  -14.9024   18.5974 C   0  0  0  0  0  0  0  0  0  0  0  0
    8.7697  -14.2048   17.8658 C   0  0  0  0  0  0  0  0  0  0  0  0
    8.1400  -12.8481   16.8618 S   0  0  2  0  0  0  0  0  0  0  0  0
    7.6903  -13.7498   15.3638 C   0  0  0  0  0  0  0  0  0  0  0  0
    9.6903  -12.0998   16.3092 C   0  0  0  0  0  0  0  0  0  0  0  0
    9.4252  -10.9136   15.4004 C   0  0  1  0  0  0  0  0  0  0  0  0
    8.4781  -10.0459   15.9803 O   0  0  0  0  0  0  0  0  0  0  0  0
   10.6574  -10.0597   15.1756 C   0  0  1  0  0  0  0  0  0  0  0  0
   11.3000  -10.5074   14.0086 O   0  0  0  0  0  0  0  0  0  0  0  0
   10.0934   -8.6660   14.9866 C   0  0  1  0  0  0  0  0  0  0  0  0
   10.0590   -8.4106   13.6004 O   0  0  0  0  0  0  0  0  0  0  0  0
    8.6774   -8.7061   15.5652 C   0  0  2  0  0  0  0  0  0  0  0  0
    6.4400  -16.9228   20.9901 O   0  0  0  0  0  0  0  0  0  0  0  0
    7.7972   -8.6501   20.7266 N   0  0  0  0  0  0  0  0  0  0  0  0
    7.7952   -9.7341   19.8828 C   0  0  0  0  0  0  0  0  0  0  0  0
    8.0498   -9.5446   18.5423 N   0  0  0  0  0  0  0  0  0  0  0  0
    8.3037   -8.3129   18.0461 C   0  0  0  0  0  0  0  0  0  0  0  0
    8.3230   -7.2106   18.8882 C   0  0  0  0  0  0  0  0  0  0  0  0
    8.0571   -7.3847   20.2447 C   0  0  0  0  0  0  0  0  0  0  0  0
    8.0599   -6.3493   21.0847 N   0  0  0  0  0  0  0  0  0  0  0  0
    8.6086   -6.1162   18.1366 N   0  0  0  0  0  0  0  0  0  0  0  0
    8.7826   -6.5161   16.8558 C   0  0  0  0  0  0  0  0  0  0  0  0
    8.6042   -7.8757   16.7838 N   0  0  0  0  0  0  0  0  0  0  0  0
  2  1  1  6  0  0  0
  2  3  1  0  0  0  0
  2  5  1  0  0  0  0
  3  4  1  0  0  0  0
  3 17  1  0  0  0  0
  5  6  1  0  0  0  0
  7  6  1  1  0  0  0
  7  8  1  0  0  0  0
  7  9  1  0  0  0  0
 10  9  1  1  0  0  0
 10 11  1  0  0  0  0
 10 12  1  0  0  0  0
 11 16  1  0  0  0  0
 12 13  1  6  0  0  0
 12 14  1  0  0  0  0
 14 15  1  6  0  0  0
 14 16  1  0  0  0  0
 16 27  1  1  0  0  0
 18 19  2  0  0  0  0
 18 23  1  0  0  0  0
 19 20  1  0  0  0  0
 20 21  2  0  0  0  0
 21 22  1  0  0  0  0
 21 27  1  0  0  0  0
 22 23  2  0  0  0  0
 22 25  1  0  0  0  0
 23 24  1  0  0  0  0
 25 26  2  0  0  0  0
 26 27  1  0  0  0  0
M  END
>  <CHROM.1>
155.38792243,-84.51943622,-173.61502330,-85.20992478,178.99031661,49.06651482
-4.35955430,8.52912991,-11.07595029,17.72498822,-2.08058335,1.21490274,0.15545152

>  <Name>
ligand

>  <RI>
0

>  <Rbt.Current_Directory>
/home/itssahil/PROJECTS/Mol_Feturizer/New_Systems/rnas/3GX5

>  <Rbt.Executable>
rbdock ($Id: //depot/dev/client3/rdock/2013.1/src/exe/rbdock.cxx#4 $)

>  <Rbt.Library>
libRbt.so (2013.1, Build901 2013/11/27)

>  <Rbt.Parameter_File>
/export/apps/rDock/src/rDock_2013.1_src/data/scripts/dock_solv.prm

>  <Rbt.Receptor>
prm/blind_docking_60.prm

>  <SCORE>
-13.3843

>  <SCORE.INTER>
-13.8061

>  <SCORE.INTER.CONST>
1

>  <SCORE.INTER.POLAR>
0

>  <SCORE.INTER.ROT>
7

>  <SCORE.INTER.SOLV>
10.2185

>  <SCORE.INTER.VDW>
-20.8769

>  <SCORE.INTER.norm>
-0.511336

>  <SCORE.INTRA>
0.42174

>  <SCORE.INTRA.DIHEDRAL>
2.62124

>  <SCORE.INTRA.DIHEDRAL.0>
4.28829

>  <SCORE.INTRA.POLAR>
0

>  <SCORE.INTRA.POLAR.0>
0

>  <SCORE.INTRA.REPUL>
0

>  <SCORE.INTRA.REPUL.0>
0

>  <SCORE.INTRA.SOLV>
-0.746592

>  <SCORE.INTRA.SOLV.lig_0>
-48.6018

>  <SCORE.INTRA.VDW>
-0.515584

>  <SCORE.INTRA.VDW.0>
-2.1506

>  <SCORE.INTRA.norm>
0.01562

>  <SCORE.RESTR>
0

>  <SCORE.RESTR.CAVITY>
0

>  <SCORE.RESTR.norm>
0

>  <SCORE.SYSTEM>
0

>  <SCORE.SYSTEM.CONST>
0

>  <SCORE.SYSTEM.DIHEDRAL>
0

>  <SCORE.SYSTEM.SOLV>
0

>  <SCORE.SYSTEM.norm>
0

>  <SCORE.heavy>
27

>  <SCORE.norm>
-0.495716

>  <RMSD>
12.968

$$$$
ligand
 OpenBabel11021811483D
libRbt.so/2013.1/901 2013/11/27
 27 29  0  0  0  0  0  0  0  0999 V2000
   11.8505  -10.1229   15.9115 N   0  0  0  0  0  0  0  0  0  0  0  0
   11.1255  -11.2425   15.3077 C   0  0  2  0  0  0  0  0  0  0  0  0
   10.6807  -11.0409   13.8571 C   0  0  0  0  0  0  0  0  0  0  0  0
   10.0680  -10.0155   13.5624 O   0  0  0  0  0  0  0  0  0  0  0  0
    9.9484  -11.6581   16.1741 C   0  0  0  0  0  0  0  0  0  0  0  0
    9.2504  -12.8864   15.6161 C   0  0  0  0  0  0  0  0  0  0  0  0
    7.8559  -13.3538   16.6564 S   0  0  2  0  0  0  0  0  0  0  0  0
    7.1048  -14.6267   15.6198 C   0  0  0  0  0  0  0  0  0  0  0  0
    6.7223  -11.9856   16.3224 C   0  0  0  0  0  0  0  0  0  0  0  0
    6.3574  -11.2595   17.6041 C   0  0  1  0  0  0  0  0  0  0  0  0
    7.4420  -11.2655   18.5041 O   0  0  0  0  0  0  0  0  0  0  0  0
    6.0396   -9.7944   17.3786 C   0  0  1  0  0  0  0  0  0  0  0  0
    4.6528   -9.6655   17.1910 O   0  0  0  0  0  0  0  0  0  0  0  0
    6.4786   -9.1335   18.6696 C   0  0  1  0  0  0  0  0  0  0  0  0
    5.3235   -8.9309   19.4523 O   0  0  0  0  0  0  0  0  0  0  0  0
    7.4246  -10.1272   19.3473 C   0  0  2  0  0  0  0  0  0  0  0  0
   10.9040  -11.8649   12.9661 O   0  0  0  0  0  0  0  0  0  0  0  0
   11.7552   -9.3453   22.1850 N   0  0  0  0  0  0  0  0  0  0  0  0
   10.5905   -9.9598   22.5762 C   0  0  0  0  0  0  0  0  0  0  0  0
    9.5520  -10.0690   21.6777 N   0  0  0  0  0  0  0  0  0  0  0  0
    9.6617   -9.5853   20.4201 C   0  0  0  0  0  0  0  0  0  0  0  0
   10.8366   -8.9746   20.0062 C   0  0  0  0  0  0  0  0  0  0  0  0
   11.8922   -8.8473   20.9066 C   0  0  0  0  0  0  0  0  0  0  0  0
   13.0348   -8.2609   20.5486 N   0  0  0  0  0  0  0  0  0  0  0  0
   10.6766   -8.5957   18.7119 N   0  0  0  0  0  0  0  0  0  0  0  0
    9.4401   -8.9711   18.3109 C   0  0  0  0  0  0  0  0  0  0  0  0
    8.8007   -9.5921   19.3555 N   0  0  0  0  0  0  0  0  0  0  0  0
  2  1  1  1  0  0  0
  2  3  1  0  0  0  0
  2  5  1  0  0  0  0
  3  4  1  0  0  0  0
  3 17  1  0  0  0  0
  5  6  1  0  0  0  0
  7  6  1  6  0  0  0
  7  8  1  0  0  0  0
  7  9  1  0  0  0  0
 10  9  1  6  0  0  0
 10 11  1  0  0  0  0
 10 12  1  0  0  0  0
 11 16  1  0  0  0  0
 12 13  1  1  0  0  0
 12 14  1  0  0  0  0
 14 15  1  1  0  0  0
 14 16  1  0  0  0  0
 16 27  1  6  0  0  0
 18 19  2  0  0  0  0
 18 23  1  0  0  0  0
 19 20  1  0  0  0  0
 20 21  2  0  0  0  0
 21 22  1  0  0  0  0
 21 27  1  0  0  0  0
 22 23  2  0  0  0  0
 22 25  1  0  0  0  0
 23 24  1  0  0  0  0
 25 26  2  0  0  0  0
 26 27  1  0  0  0  0
M  END
>  <CHROM.1>
-50.62786877,-175.60403216,-179.75656471,171.42903206,-121.84651032,33.46151845
-112.15208416,8.96953382,-10.58693068,17.81013168,-1.86838025,0.16585498
1.14130947

>  <Name>
ligand

>  <RI>
0

>  <Rbt.Current_Directory>
/home/itssahil/PROJECTS/Mol_Feturizer/New_Systems/rnas/3GX5

>  <Rbt.Executable>
rbdock ($Id: //depot/dev/client3/rdock/2013.1/src/exe/rbdock.cxx#4 $)

>  <Rbt.Library>
libRbt.so (2013.1, Build901 2013/11/27)

>  <Rbt.Parameter_File>
/export/apps/rDock/src/rDock_2013.1_src/data/scripts/dock_solv.prm

>  <Rbt.Receptor>
prm/blind_docking_100.prm

>  <SCORE>
-13.3387

>  <SCORE.INTER>
-15.2316

>  <SCORE.INTER.CONST>
1

>  <SCORE.INTER.POLAR>
0

>  <SCORE.INTER.ROT>
7

>  <SCORE.INTER.SOLV>
11.4948

>  <SCORE.INTER.VDW>
-22.2527

>  <SCORE.INTER.norm>
-0.564132

>  <SCORE.INTRA>
1.89286

>  <SCORE.INTRA.DIHEDRAL>
5.51289

>  <SCORE.INTRA.DIHEDRAL.0>
4.28829

>  <SCORE.INTRA.POLAR>
0

>  <SCORE.INTRA.POLAR.0>
0

>  <SCORE.INTRA.REPUL>
0

>  <SCORE.INTRA.REPUL.0>
0

>  <SCORE.INTRA.SOLV>
-0.557809

>  <SCORE.INTRA.SOLV.lig_0>
-48.6018

>  <SCORE.INTRA.VDW>
-0.584681

>  <SCORE.INTRA.VDW.0>
-2.1506

>  <SCORE.INTRA.norm>
0.0701059

>  <SCORE.RESTR>
0

>  <SCORE.RESTR.CAVITY>
0

>  <SCORE.RESTR.norm>
0

>  <SCORE.SYSTEM>
0

>  <SCORE.SYSTEM.CONST>
0

>  <SCORE.SYSTEM.DIHEDRAL>
0

>  <SCORE.SYSTEM.SOLV>
0

>  <SCORE.SYSTEM.norm>
0

>  <SCORE.heavy>
27

>  <SCORE.norm>
-0.494026

>  <RMSD>
12.978

$$$$
ligand
 OpenBabel11021811483D
libRbt.so/2013.1/901 2013/11/27
 27 29  0  0  0  0  0  0  0  0999 V2000
   10.9236   -9.6308   19.9652 N   0  0  0  0  0  0  0  0  0  0  0  0
   11.9494   -9.3856   18.9496 C   0  0  2  0  0  0  0  0  0  0  0  0
   13.2586   -8.7794   19.4609 C   0  0  0  0  0  0  0  0  0  0  0  0
   14.3050   -9.4056   19.2978 O   0  0  0  0  0  0  0  0  0  0  0  0
   11.3917   -8.5608   17.8018 C   0  0  0  0  0  0  0  0  0  0  0  0
   10.3610   -9.3402   17.0032 C   0  0  0  0  0  0  0  0  0  0  0  0
   11.1343  -10.7198   16.1407 S   0  0  2  0  0  0  0  0  0  0  0  0
   11.9014   -9.8382   14.7646 C   0  0  0  0  0  0  0  0  0  0  0  0
    9.7019  -11.4204   15.2886 C   0  0  0  0  0  0  0  0  0  0  0  0
    8.9435  -12.3710   16.1965 C   0  0  1  0  0  0  0  0  0  0  0  0
    8.2360  -11.6562   17.1838 O   0  0  0  0  0  0  0  0  0  0  0  0
    7.8896  -13.1725   15.4580 C   0  0  1  0  0  0  0  0  0  0  0  0
    8.4614  -14.3913   15.0550 O   0  0  0  0  0  0  0  0  0  0  0  0
    6.8153  -13.3938   16.5034 C   0  0  1  0  0  0  0  0  0  0  0  0
    6.9866  -14.6971   17.0132 O   0  0  0  0  0  0  0  0  0  0  0  0
    7.0694  -12.3488   17.5918 C   0  0  2  0  0  0  0  0  0  0  0  0
   13.3135   -7.6894   20.0368 O   0  0  0  0  0  0  0  0  0  0  0  0
    5.1455   -8.0525   19.8850 N   0  0  0  0  0  0  0  0  0  0  0  0
    6.3129   -8.7141   20.1792 C   0  0  0  0  0  0  0  0  0  0  0  0
    6.6499   -9.8384   19.4579 N   0  0  0  0  0  0  0  0  0  0  0  0
    5.8539  -10.2977   18.4664 C   0  0  0  0  0  0  0  0  0  0  0  0
    4.6789   -9.6322   18.1485 C   0  0  0  0  0  0  0  0  0  0  0  0
    4.3193   -8.4995   18.8759 C   0  0  0  0  0  0  0  0  0  0  0  0
    3.1947   -7.8364   18.6049 N   0  0  0  0  0  0  0  0  0  0  0  0
    4.0876  -10.2962   17.1221 N   0  0  0  0  0  0  0  0  0  0  0  0
    4.8748  -11.3444   16.7870 C   0  0  0  0  0  0  0  0  0  0  0  0
    5.9771  -11.3555   17.6058 N   0  0  0  0  0  0  0  0  0  0  0  0
  2  1  1  1  0  0  0
  2  3  1  0  0  0  0
  2  5  1  0  0  0  0
  3  4  1  0  0  0  0
  3 17  1  0  0  0  0
  5  6  1  0  0  0  0
  7  6  1  1  0  0  0
  7  8  1  0  0  0  0
  7  9  1  0  0  0  0
 10  9  1  6  0  0  0
 10 11  1  0  0  0  0
 10 12  1  0  0  0  0
 11 16  1  0  0  0  0
 12 13  1  1  0  0  0
 12 14  1  0  0  0  0
 14 15  1  1  0  0  0
 14 16  1  0  0  0  0
 16 27  1  6  0  0  0
 18 19  2  0  0  0  0
 18 23  1  0  0  0  0
 19 20  1  0  0  0  0
 20 21  2  0  0  0  0
 21 22  1  0  0  0  0
 21 27  1  0  0  0  0
 22 23  2  0  0  0  0
 22 25  1  0  0  0  0
 23 24  1  0  0  0  0
 25 26  2  0  0  0  0
 26 27  1  0  0  0  0
M  END
>  <CHROM.1>
119.90482932,-67.79769104,-66.88298739,-77.50593288,-84.60654590,73.06654944
-67.94349708,8.52865064,-10.51433619,17.63469274,0.15091638,0.06976185,0.67249496

>  <Name>
ligand

>  <RI>
0

>  <Rbt.Current_Directory>
/home/itssahil/PROJECTS/Mol_Feturizer/New_Systems/rnas/3GX5

>  <Rbt.Executable>
rbdock ($Id: //depot/dev/client3/rdock/2013.1/src/exe/rbdock.cxx#4 $)

>  <Rbt.Library>
libRbt.so (2013.1, Build901 2013/11/27)

>  <Rbt.Parameter_File>
/export/apps/rDock/src/rDock_2013.1_src/data/scripts/dock_solv.prm

>  <Rbt.Receptor>
prm/blind_docking_60.prm

>  <SCORE>
-15.31

>  <SCORE.INTER>
-15.5412

>  <SCORE.INTER.CONST>
1

>  <SCORE.INTER.POLAR>
0

>  <SCORE.INTER.ROT>
7

>  <SCORE.INTER.SOLV>
11.1555

>  <SCORE.INTER.VDW>
-22.346

>  <SCORE.INTER.norm>
-0.5756

>  <SCORE.INTRA>
0.231151

>  <SCORE.INTRA.DIHEDRAL>
1.10405

>  <SCORE.INTRA.DIHEDRAL.0>
4.28829

>  <SCORE.INTRA.POLAR>
0

>  <SCORE.INTRA.POLAR.0>
0

>  <SCORE.INTRA.REPUL>
0

>  <SCORE.INTRA.REPUL.0>
0

>  <SCORE.INTRA.SOLV>
-0.118813

>  <SCORE.INTRA.SOLV.lig_0>
-48.6018

>  <SCORE.INTRA.VDW>
-0.261469

>  <SCORE.INTRA.VDW.0>
-2.1506

>  <SCORE.INTRA.norm>
0.00856116

>  <SCORE.RESTR>
0

>  <SCORE.RESTR.CAVITY>
0

>  <SCORE.RESTR.norm>
0

>  <SCORE.SYSTEM>
0

>  <SCORE.SYSTEM.CONST>
0

>  <SCORE.SYSTEM.DIHEDRAL>
0

>  <SCORE.SYSTEM.SOLV>
0

>  <SCORE.SYSTEM.norm>
0

>  <SCORE.heavy>
27

>  <SCORE.norm>
-0.567039

>  <RMSD>
12.989

$$$$
ligand
 OpenBabel11021811483D
libRbt.so/2013.1/901 2013/11/27
 27 29  0  0  0  0  0  0  0  0999 V2000
    9.8934   -9.6819   17.4003 N   0  0  0  0  0  0  0  0  0  0  0  0
    9.5664  -10.5706   18.5170 C   0  0  2  0  0  0  0  0  0  0  0  0
    8.7133  -11.7920   18.1661 C   0  0  0  0  0  0  0  0  0  0  0  0
    9.2416  -12.9031   18.1652 O   0  0  0  0  0  0  0  0  0  0  0  0
    8.9411   -9.7945   19.6640 C   0  0  0  0  0  0  0  0  0  0  0  0
    9.9074   -8.7740   20.2403 C   0  0  0  0  0  0  0  0  0  0  0  0
   11.1876   -9.5874   21.2123 S   0  0  2  0  0  0  0  0  0  0  0  0
   10.3770   -9.6295   22.8248 C   0  0  0  0  0  0  0  0  0  0  0  0
   12.3237   -8.2072   21.4820 C   0  0  0  0  0  0  0  0  0  0  0  0
   13.1520   -7.9369   20.2395 C   0  0  1  0  0  0  0  0  0  0  0  0
   13.9290   -6.7728   20.4043 O   0  0  0  0  0  0  0  0  0  0  0  0
   14.1503   -9.0400   19.9483 C   0  0  1  0  0  0  0  0  0  0  0  0
   13.5545   -9.9547   19.0632 O   0  0  0  0  0  0  0  0  0  0  0  0
   15.3012   -8.3108   19.2851 C   0  0  1  0  0  0  0  0  0  0  0  0
   15.1737   -8.5008   17.8938 O   0  0  0  0  0  0  0  0  0  0  0  0
   15.1257   -6.8348   19.6485 C   0  0  2  0  0  0  0  0  0  0  0  0
    7.5162  -11.7137   17.8771 O   0  0  0  0  0  0  0  0  0  0  0  0
   20.1756   -7.3756   20.9227 N   0  0  0  0  0  0  0  0  0  0  0  0
   19.4910   -7.9985   19.9076 C   0  0  0  0  0  0  0  0  0  0  0  0
   18.1526   -7.7244   19.7308 N   0  0  0  0  0  0  0  0  0  0  0  0
   17.5050   -6.8527   20.5360 C   0  0  0  0  0  0  0  0  0  0  0  0
   18.1863   -6.2054   21.5565 C   0  0  0  0  0  0  0  0  0  0  0  0
   19.5379   -6.4800   21.7545 C   0  0  0  0  0  0  0  0  0  0  0  0
   20.2255   -5.8833   22.7286 N   0  0  0  0  0  0  0  0  0  0  0  0
   17.3069   -5.3905   22.1942 N   0  0  0  0  0  0  0  0  0  0  0  0
   16.1048   -5.5051   21.5840 C   0  0  0  0  0  0  0  0  0  0  0  0
   16.2122   -6.4020   20.5497 N   0  0  0  0  0  0  0  0  0  0  0  0
  2  1  1  6  0  0  0
  2  3  1  0  0  0  0
  2  5  1  0  0  0  0
  3  4  1  0  0  0  0
  3 17  1  0  0  0  0
  5  6  1  0  0  0  0
  7  6  1  6  0  0  0
  7  8  1  0  0  0  0
  7  9  1  0  0  0  0
 10  9  1  1  0  0  0
 10 11  1  0  0  0  0
 10 12  1  0  0  0  0
 11 16  1  0  0  0  0
 12 13  1  6  0  0  0
 12 14  1  0  0  0  0
 14 15  1  6  0  0  0
 14 16  1  0  0  0  0
 16 27  1  1  0  0  0
 18 19  2  0  0  0  0
 18 23  1  0  0  0  0
 19 20  1  0  0  0  0
 20 21  2  0  0  0  0
 21 22  1  0  0  0  0
 21 27  1  0  0  0  0
 22 23  2  0  0  0  0
 22 25  1  0  0  0  0
 23 24  1  0  0  0  0
 25 26  2  0  0  0  0
 26 27  1  0  0  0  0
M  END
>  <CHROM.1>
107.90573399,-63.16726460,-73.59023393,-88.52816182,-77.46317886,173.60719658
147.20747965,13.83911982,-8.48990953,20.14340201,-2.74154693,0.25331518,0.99293018

>  <Name>
ligand

>  <RI>
0

>  <Rbt.Current_Directory>
/home/itssahil/PROJECTS/Mol_Feturizer/New_Systems/rnas/3GX5

>  <Rbt.Executable>
rbdock ($Id: //depot/dev/client3/rdock/2013.1/src/exe/rbdock.cxx#4 $)

>  <Rbt.Library>
libRbt.so (2013.1, Build901 2013/11/27)

>  <Rbt.Parameter_File>
/export/apps/rDock/src/rDock_2013.1_src/data/scripts/dock_solv.prm

>  <Rbt.Receptor>
prm/blind_docking_80.prm

>  <SCORE>
-18.2684

>  <SCORE.INTER>
-18.744

>  <SCORE.INTER.CONST>
1

>  <SCORE.INTER.POLAR>
0

>  <SCORE.INTER.ROT>
7

>  <SCORE.INTER.SOLV>
11.537

>  <SCORE.INTER.VDW>
-24.6084

>  <SCORE.INTER.norm>
-0.694224

>  <SCORE.INTRA>
0.475599

>  <SCORE.INTRA.DIHEDRAL>
1.30675

>  <SCORE.INTRA.DIHEDRAL.0>
4.28829

>  <SCORE.INTRA.POLAR>
0

>  <SCORE.INTRA.POLAR.0>
0

>  <SCORE.INTRA.REPUL>
0

>  <SCORE.INTRA.REPUL.0>
0

>  <SCORE.INTRA.SOLV>
0.344997

>  <SCORE.INTRA.SOLV.lig_0>
-48.6018

>  <SCORE.INTRA.VDW>
-0.350274

>  <SCORE.INTRA.VDW.0>
-2.1506

>  <SCORE.INTRA.norm>
0.0176148

>  <SCORE.RESTR>
0

>  <SCORE.RESTR.CAVITY>
0

>  <SCORE.RESTR.norm>
0

>  <SCORE.SYSTEM>
0

>  <SCORE.SYSTEM.CONST>
0

>  <SCORE.SYSTEM.DIHEDRAL>
0

>  <SCORE.SYSTEM.SOLV>
0

>  <SCORE.SYSTEM.norm>
0

>  <SCORE.heavy>
27

>  <SCORE.norm>
-0.676609

>  <RMSD>
13.018

$$$$
ligand
 OpenBabel11021811483D
libRbt.so/2013.1/901 2013/11/27
 27 29  0  0  0  0  0  0  0  0999 V2000
    7.9553  -12.7417   16.2205 N   0  0  0  0  0  0  0  0  0  0  0  0
    8.0289  -11.4475   16.9011 C   0  0  2  0  0  0  0  0  0  0  0  0
    7.9488  -10.2156   15.9961 C   0  0  0  0  0  0  0  0  0  0  0  0
    8.9208   -9.9289   15.2984 O   0  0  0  0  0  0  0  0  0  0  0  0
    9.2543  -11.3732   17.7964 C   0  0  0  0  0  0  0  0  0  0  0  0
    9.2530  -10.1111   18.6416 C   0  0  0  0  0  0  0  0  0  0  0  0
    8.0536  -10.2420   19.9794 S   0  0  2  0  0  0  0  0  0  0  0  0
    6.6145   -9.4971   19.1836 C   0  0  0  0  0  0  0  0  0  0  0  0
    8.5708   -8.8588   21.0224 C   0  0  0  0  0  0  0  0  0  0  0  0
    9.8284   -9.2059   21.7976 C   0  0  1  0  0  0  0  0  0  0  0  0
   10.8723   -9.5579   20.9186 O   0  0  0  0  0  0  0  0  0  0  0  0
   10.3650   -8.0366   22.5996 C   0  0  1  0  0  0  0  0  0  0  0  0
    9.8310   -8.1071   23.8976 O   0  0  0  0  0  0  0  0  0  0  0  0
   11.8618   -8.2726   22.6126 C   0  0  1  0  0  0  0  0  0  0  0  0
   12.1848   -8.8560   23.8549 O   0  0  0  0  0  0  0  0  0  0  0  0
   12.1412   -9.2481   21.4672 C   0  0  2  0  0  0  0  0  0  0  0  0
    6.9526   -9.4899   15.9372 O   0  0  0  0  0  0  0  0  0  0  0  0
   13.2309   -9.0939   16.3480 N   0  0  0  0  0  0  0  0  0  0  0  0
   12.3665   -9.9388   17.0008 C   0  0  0  0  0  0  0  0  0  0  0  0
   12.2149   -9.8244   18.3652 N   0  0  0  0  0  0  0  0  0  0  0  0
   12.8990   -8.8950   19.0693 C   0  0  0  0  0  0  0  0  0  0  0  0
   13.7649   -8.0255   18.4221 C   0  0  0  0  0  0  0  0  0  0  0  0
   13.9368   -8.1355   17.0438 C   0  0  0  0  0  0  0  0  0  0  0  0
   14.7648   -7.3229   16.3868 N   0  0  0  0  0  0  0  0  0  0  0  0
   14.3048   -7.2014   19.3567 N   0  0  0  0  0  0  0  0  0  0  0  0
   13.7826   -7.5282   20.5613 C   0  0  0  0  0  0  0  0  0  0  0  0
   12.9041   -8.5712   20.3997 N   0  0  0  0  0  0  0  0  0  0  0  0
  2  1  1  6  0  0  0
  2  3  1  0  0  0  0
  2  5  1  0  0  0  0
  3  4  1  0  0  0  0
  3 17  1  0  0  0  0
  5  6  1  0  0  0  0
  7  6  1  6  0  0  0
  7  8  1  0  0  0  0
  7  9  1  0  0  0  0
 10  9  1  6  0  0  0
 10 11  1  0  0  0  0
 10 12  1  0  0  0  0
 11 16  1  0  0  0  0
 12 13  1  1  0  0  0
 12 14  1  0  0  0  0
 14 15  1  1  0  0  0
 14 16  1  0  0  0  0
 16 27  1  6  0  0  0
 18 19  2  0  0  0  0
 18 23  1  0  0  0  0
 19 20  1  0  0  0  0
 20 21  2  0  0  0  0
 21 22  1  0  0  0  0
 21 27  1  0  0  0  0
 22 23  2  0  0  0  0
 22 25  1  0  0  0  0
 23 24  1  0  0  0  0
 25 26  2  0  0  0  0
 26 27  1  0  0  0  0
M  END
>  <CHROM.1>
-73.30588734,-172.79912855,74.47596037,-92.30462915,-76.09045666,57.89150150
-39.18922246,10.63212680,-9.30846163,19.22111227,-2.37392317,0.34213378,1.39625548

>  <Name>
ligand

>  <RI>
0

>  <Rbt.Current_Directory>
/home/itssahil/PROJECTS/Mol_Feturizer/New_Systems/rnas/3GX5

>  <Rbt.Executable>
rbdock ($Id: //depot/dev/client3/rdock/2013.1/src/exe/rbdock.cxx#4 $)

>  <Rbt.Library>
libRbt.so (2013.1, Build901 2013/11/27)

>  <Rbt.Parameter_File>
/export/apps/rDock/src/rDock_2013.1_src/data/scripts/dock_solv.prm

>  <Rbt.Receptor>
prm/blind_docking_80.prm

>  <SCORE>
-11.8536

>  <SCORE.INTER>
-11.7411

>  <SCORE.INTER.CONST>
1

>  <SCORE.INTER.POLAR>
0

>  <SCORE.INTER.ROT>
7

>  <SCORE.INTER.SOLV>
11.8011

>  <SCORE.INTER.VDW>
-20.0278

>  <SCORE.INTER.norm>
-0.434856

>  <SCORE.INTRA>
-0.112507

>  <SCORE.INTRA.DIHEDRAL>
1.57397

>  <SCORE.INTRA.DIHEDRAL.0>
4.28829

>  <SCORE.INTRA.POLAR>
0

>  <SCORE.INTRA.POLAR.0>
0

>  <SCORE.INTRA.REPUL>
0

>  <SCORE.INTRA.REPUL.0>
0

>  <SCORE.INTRA.SOLV>
-0.886682

>  <SCORE.INTRA.SOLV.lig_0>
-48.6018

>  <SCORE.INTRA.VDW>
-0.456151

>  <SCORE.INTRA.VDW.0>
-2.1506

>  <SCORE.INTRA.norm>
-0.00416692

>  <SCORE.RESTR>
0

>  <SCORE.RESTR.CAVITY>
0

>  <SCORE.RESTR.norm>
0

>  <SCORE.SYSTEM>
0

>  <SCORE.SYSTEM.CONST>
0

>  <SCORE.SYSTEM.DIHEDRAL>
0

>  <SCORE.SYSTEM.SOLV>
0

>  <SCORE.SYSTEM.norm>
0

>  <SCORE.heavy>
27

>  <SCORE.norm>
-0.439023

>  <RMSD>
13.103

$$$$
ligand
 OpenBabel11021811483D
libRbt.so/2013.1/901 2013/11/27
 27 29  0  0  0  0  0  0  0  0999 V2000
    9.2245   -9.9959   16.1460 N   0  0  0  0  0  0  0  0  0  0  0  0
   10.3513   -9.0844   16.3541 C   0  0  2  0  0  0  0  0  0  0  0  0
   11.5283   -9.6541   17.1497 C   0  0  0  0  0  0  0  0  0  0  0  0
   12.6665   -9.2749   16.8770 O   0  0  0  0  0  0  0  0  0  0  0  0
    9.8835   -7.7714   16.9593 C   0  0  0  0  0  0  0  0  0  0  0  0
    8.8931   -7.0603   16.0533 C   0  0  0  0  0  0  0  0  0  0  0  0
    7.2766   -7.8514   16.1321 S   0  0  2  0  0  0  0  0  0  0  0  0
    6.4169   -6.9367   14.8347 C   0  0  0  0  0  0  0  0  0  0  0  0
    6.5808   -7.0354   17.5877 C   0  0  0  0  0  0  0  0  0  0  0  0
    7.2749   -7.5026   18.8538 C   0  0  1  0  0  0  0  0  0  0  0  0
    8.4065   -6.7066   19.1223 O   0  0  0  0  0  0  0  0  0  0  0  0
    6.3998   -7.3727   20.0849 C   0  0  1  0  0  0  0  0  0  0  0  0
    5.7317   -8.5929   20.2845 O   0  0  0  0  0  0  0  0  0  0  0  0
    7.3919   -7.1061   21.1988 C   0  0  1  0  0  0  0  0  0  0  0  0
    7.6039   -8.3255   21.8741 O   0  0  0  0  0  0  0  0  0  0  0  0
    8.6761   -6.6373   20.5114 C   0  0  2  0  0  0  0  0  0  0  0  0
   11.3891  -10.4839   18.0523 O   0  0  0  0  0  0  0  0  0  0  0  0
    7.4339   -1.6771   19.3840 N   0  0  0  0  0  0  0  0  0  0  0  0
    6.9063   -2.8228   18.8398 C   0  0  0  0  0  0  0  0  0  0  0  0
    7.3686   -4.0472   19.2695 N   0  0  0  0  0  0  0  0  0  0  0  0
    8.3281   -4.1390   20.2174 C   0  0  0  0  0  0  0  0  0  0  0  0
    8.8606   -2.9911   20.7862 C   0  0  0  0  0  0  0  0  0  0  0  0
    8.4106   -1.7451   20.3547 C   0  0  0  0  0  0  0  0  0  0  0  0
    8.9024   -0.6191   20.8722 N   0  0  0  0  0  0  0  0  0  0  0  0
    9.7865   -3.3710   21.7041 N   0  0  0  0  0  0  0  0  0  0  0  0
    9.8280   -4.7231   21.7287 C   0  0  0  0  0  0  0  0  0  0  0  0
    8.9251   -5.2147   20.8184 N   0  0  0  0  0  0  0  0  0  0  0  0
  2  1  1  1  0  0  0
  2  3  1  0  0  0  0
  2  5  1  0  0  0  0
  3  4  1  0  0  0  0
  3 17  1  0  0  0  0
  5  6  1  0  0  0  0
  7  6  1  6  0  0  0
  7  8  1  0  0  0  0
  7  9  1  0  0  0  0
 10  9  1  6  0  0  0
 10 11  1  0  0  0  0
 10 12  1  0  0  0  0
 11 16  1  0  0  0  0
 12 13  1  1  0  0  0
 12 14  1  0  0  0  0
 14 15  1  6  0  0  0
 14 16  1  0  0  0  0
 16 27  1  1  0  0  0
 18 19  2  0  0  0  0
 18 23  1  0  0  0  0
 19 20  1  0  0  0  0
 20 21  2  0  0  0  0
 21 22  1  0  0  0  0
 21 27  1  0  0  0  0
 22 23  2  0  0  0  0
 22 25  1  0  0  0  0
 23 24  1  0  0  0  0
 25 26  2  0  0  0  0
 26 27  1  0  0  0  0
M  END
>  <CHROM.1>
147.15458166,-60.58174809,75.63849271,-173.32317949,-70.68594302,88.26975479
33.75474814,8.48014296,-6.42977165,18.79718512,1.34564916,0.64273784,-2.44843146

>  <Name>
ligand

>  <RI>
0

>  <Rbt.Current_Directory>
/home/itssahil/PROJECTS/Mol_Feturizer/New_Systems/rnas/3GX5

>  <Rbt.Executable>
rbdock ($Id: //depot/dev/client3/rdock/2013.1/src/exe/rbdock.cxx#4 $)

>  <Rbt.Library>
libRbt.so (2013.1, Build901 2013/11/27)

>  <Rbt.Parameter_File>
/export/apps/rDock/src/rDock_2013.1_src/data/scripts/dock_solv.prm

>  <Rbt.Receptor>
prm/blind_docking_100.prm

>  <SCORE>
-3.23155

>  <SCORE.INTER>
-4.88427

>  <SCORE.INTER.CONST>
1

>  <SCORE.INTER.POLAR>
0

>  <SCORE.INTER.ROT>
7

>  <SCORE.INTER.SOLV>
7.63546

>  <SCORE.INTER.VDW>
-14.068

>  <SCORE.INTER.norm>
-0.180899

>  <SCORE.INTRA>
1.6507

>  <SCORE.INTRA.DIHEDRAL>
3.21575

>  <SCORE.INTRA.DIHEDRAL.0>
4.28829

>  <SCORE.INTRA.POLAR>
0

>  <SCORE.INTRA.POLAR.0>
0

>  <SCORE.INTRA.REPUL>
0

>  <SCORE.INTRA.REPUL.0>
0

>  <SCORE.INTRA.SOLV>
1.85797

>  <SCORE.INTRA.SOLV.lig_0>
-48.6018

>  <SCORE.INTRA.VDW>
-0.886157

>  <SCORE.INTRA.VDW.0>
-2.1506

>  <SCORE.INTRA.norm>
0.0611371

>  <SCORE.RESTR>
0.00201342

>  <SCORE.RESTR.CAVITY>
0.00201342

>  <SCORE.RESTR.norm>
7.4571e-05

>  <SCORE.SYSTEM>
0

>  <SCORE.SYSTEM.CONST>
0

>  <SCORE.SYSTEM.DIHEDRAL>
0

>  <SCORE.SYSTEM.SOLV>
0

>  <SCORE.SYSTEM.norm>
0

>  <SCORE.heavy>
27

>  <SCORE.norm>
-0.119687

>  <RMSD>
13.171

$$$$
ligand
 OpenBabel11021811483D
libRbt.so/2013.1/901 2013/11/27
 27 29  0  0  0  0  0  0  0  0999 V2000
   13.6839   -9.9291   14.1734 N   0  0  0  0  0  0  0  0  0  0  0  0
   13.0037  -11.0749   13.5665 C   0  0  2  0  0  0  0  0  0  0  0  0
   12.4128  -10.8359   12.1750 C   0  0  0  0  0  0  0  0  0  0  0  0
   12.9412  -11.3790   11.2057 O   0  0  0  0  0  0  0  0  0  0  0  0
   11.9500  -11.6403   14.5040 C   0  0  0  0  0  0  0  0  0  0  0  0
   10.9264  -10.5877   14.8937 C   0  0  0  0  0  0  0  0  0  0  0  0
    9.7862  -11.2351   16.1290 S   0  0  2  0  0  0  0  0  0  0  0  0
    8.9085  -12.4592   15.1338 C   0  0  0  0  0  0  0  0  0  0  0  0
    8.5452   -9.9206   16.1532 C   0  0  0  0  0  0  0  0  0  0  0  0
    7.3380  -10.3308   16.9762 C   0  0  1  0  0  0  0  0  0  0  0  0
    7.6540  -10.3422   18.3496 O   0  0  0  0  0  0  0  0  0  0  0  0
    6.1811   -9.3598   16.8453 C   0  0  1  0  0  0  0  0  0  0  0  0
    5.3366   -9.8125   15.8172 O   0  0  0  0  0  0  0  0  0  0  0  0
    5.4929   -9.4444   18.1926 C   0  0  1  0  0  0  0  0  0  0  0  0
    4.3767  -10.2925   18.0423 O   0  0  0  0  0  0  0  0  0  0  0  0
    6.5173  -10.0614   19.1473 C   0  0  2  0  0  0  0  0  0  0  0  0
   11.4300  -10.1161   11.9779 O   0  0  0  0  0  0  0  0  0  0  0  0
    9.9419   -8.9124   22.9381 N   0  0  0  0  0  0  0  0  0  0  0  0
    9.8962  -10.0417   22.1572 C   0  0  0  0  0  0  0  0  0  0  0  0
    8.9085  -10.1622   21.2046 N   0  0  0  0  0  0  0  0  0  0  0  0
    7.9881   -9.1885   21.0245 C   0  0  0  0  0  0  0  0  0  0  0  0
    8.0297   -8.0362   21.7959 C   0  0  0  0  0  0  0  0  0  0  0  0
    9.0165   -7.9041   22.7707 C   0  0  0  0  0  0  0  0  0  0  0  0
    9.0856   -6.8149   23.5364 N   0  0  0  0  0  0  0  0  0  0  0  0
    7.0069   -7.2338   21.4033 N   0  0  0  0  0  0  0  0  0  0  0  0
    6.3450   -7.8530   20.3988 C   0  0  0  0  0  0  0  0  0  0  0  0
    6.9447   -9.0624   20.1469 N   0  0  0  0  0  0  0  0  0  0  0  0
  2  1  1  1  0  0  0
  2  3  1  0  0  0  0
  2  5  1  0  0  0  0
  3  4  1  0  0  0  0
  3 17  1  0  0  0  0
  5  6  1  0  0  0  0
  7  6  1  6  0  0  0
  7  8  1  0  0  0  0
  7  9  1  0  0  0  0
 10  9  1  6  0  0  0
 10 11  1  0  0  0  0
 10 12  1  0  0  0  0
 11 16  1  0  0  0  0
 12 13  1  6  0  0  0
 12 14  1  0  0  0  0
 14 15  1  6  0  0  0
 14 16  1  0  0  0  0
 16 27  1  1  0  0  0
 18 19  2  0  0  0  0
 18 23  1  0  0  0  0
 19 20  1  0  0  0  0
 20 21  2  0  0  0  0
 21 22  1  0  0  0  0
 21 27  1  0  0  0  0
 22 23  2  0  0  0  0
 22 25  1  0  0  0  0
 23 24  1  0  0  0  0
 25 26  2  0  0  0  0
 26 27  1  0  0  0  0
M  END
>  <CHROM.1>
109.49566111,57.46266127,-174.39342490,-68.01471588,171.10276346,71.84561645
-55.62226598,8.91736338,-9.89015219,17.58962584,-1.11761341,0.01031486,1.27901604

>  <Name>
ligand

>  <RI>
0

>  <Rbt.Current_Directory>
/home/itssahil/PROJECTS/Mol_Feturizer/New_Systems/rnas/3GX5

>  <Rbt.Executable>
rbdock ($Id: //depot/dev/client3/rdock/2013.1/src/exe/rbdock.cxx#4 $)

>  <Rbt.Library>
libRbt.so (2013.1, Build901 2013/11/27)

>  <Rbt.Parameter_File>
/export/apps/rDock/src/rDock_2013.1_src/data/scripts/dock_solv.prm

>  <Rbt.Receptor>
prm/blind_docking_100.prm

>  <SCORE>
-12.9739

>  <SCORE.INTER>
-13.5626

>  <SCORE.INTER.CONST>
1

>  <SCORE.INTER.POLAR>
0

>  <SCORE.INTER.ROT>
7

>  <SCORE.INTER.SOLV>
7.33738

>  <SCORE.INTER.VDW>
-19.7542

>  <SCORE.INTER.norm>
-0.50232

>  <SCORE.INTRA>
0.58869

>  <SCORE.INTRA.DIHEDRAL>
-0.207323

>  <SCORE.INTRA.DIHEDRAL.0>
4.28829

>  <SCORE.INTRA.POLAR>
0

>  <SCORE.INTRA.POLAR.0>
0

>  <SCORE.INTRA.REPUL>
0

>  <SCORE.INTRA.REPUL.0>
0

>  <SCORE.INTRA.SOLV>
-0.560703

>  <SCORE.INTRA.SOLV.lig_0>
-48.6018

>  <SCORE.INTRA.VDW>
0.972703

>  <SCORE.INTRA.VDW.0>
-2.1506

>  <SCORE.INTRA.norm>
0.0218033

>  <SCORE.RESTR>
0

>  <SCORE.RESTR.CAVITY>
0

>  <SCORE.RESTR.norm>
0

>  <SCORE.SYSTEM>
0

>  <SCORE.SYSTEM.CONST>
0

>  <SCORE.SYSTEM.DIHEDRAL>
0

>  <SCORE.SYSTEM.SOLV>
0

>  <SCORE.SYSTEM.norm>
0

>  <SCORE.heavy>
27

>  <SCORE.norm>
-0.480517

>  <RMSD>
13.172

$$$$
ligand
 OpenBabel11021811483D
libRbt.so/2013.1/901 2013/11/27
 27 29  0  0  0  0  0  0  0  0999 V2000
    6.8847   -4.2679   19.2793 N   0  0  0  0  0  0  0  0  0  0  0  0
    7.6208   -4.6326   20.4913 C   0  0  2  0  0  0  0  0  0  0  0  0
    8.4981   -3.5316   21.0921 C   0  0  0  0  0  0  0  0  0  0  0  0
    9.4217   -3.8517   21.8393 O   0  0  0  0  0  0  0  0  0  0  0  0
    8.4292   -5.9009   20.2750 C   0  0  0  0  0  0  0  0  0  0  0  0
    7.5431   -7.0654   19.8674 C   0  0  0  0  0  0  0  0  0  0  0  0
    8.4953   -8.5926   19.7882 S   0  0  2  0  0  0  0  0  0  0  0  0
    7.1952   -9.7472   19.3025 C   0  0  0  0  0  0  0  0  0  0  0  0
    8.6163   -8.9972   21.5461 C   0  0  0  0  0  0  0  0  0  0  0  0
   10.0534   -8.9057   22.0250 C   0  0  1  0  0  0  0  0  0  0  0  0
   10.8886   -9.7358   21.2508 O   0  0  0  0  0  0  0  0  0  0  0  0
   10.6339   -7.5131   21.8768 C   0  0  1  0  0  0  0  0  0  0  0  0
   10.4374   -6.8202   23.0835 O   0  0  0  0  0  0  0  0  0  0  0  0
   12.1068   -7.7675   21.6280 C   0  0  1  0  0  0  0  0  0  0  0  0
   12.7804   -7.5681   22.8505 O   0  0  0  0  0  0  0  0  0  0  0  0
   12.2097   -9.2285   21.1851 C   0  0  2  0  0  0  0  0  0  0  0  0
    8.3184   -2.3320   20.8657 O   0  0  0  0  0  0  0  0  0  0  0  0
   16.1784   -8.8758   17.7875 N   0  0  0  0  0  0  0  0  0  0  0  0
   16.2269   -8.7596   19.1554 C   0  0  0  0  0  0  0  0  0  0  0  0
   15.0639   -8.8825   19.8834 N   0  0  0  0  0  0  0  0  0  0  0  0
   13.8798   -9.1179   19.2751 C   0  0  0  0  0  0  0  0  0  0  0  0
   13.8171   -9.2516   17.8957 C   0  0  0  0  0  0  0  0  0  0  0  0
   14.9832   -9.1196   17.1447 C   0  0  0  0  0  0  0  0  0  0  0  0
   14.9628   -9.2348   15.8166 N   0  0  0  0  0  0  0  0  0  0  0  0
   12.5235   -9.4892   17.5576 N   0  0  0  0  0  0  0  0  0  0  0  0
   11.7886   -9.5221   18.6932 C   0  0  0  0  0  0  0  0  0  0  0  0
   12.6152   -9.3010   19.7672 N   0  0  0  0  0  0  0  0  0  0  0  0
  2  1  1  6  0  0  0
  2  3  1  0  0  0  0
  2  5  1  0  0  0  0
  3  4  1  0  0  0  0
  3 17  1  0  0  0  0
  5  6  1  0  0  0  0
  7  6  1  1  0  0  0
  7  8  1  0  0  0  0
  7  9  1  0  0  0  0
 10  9  1  6  0  0  0
 10 11  1  0  0  0  0
 10 12  1  0  0  0  0
 11 16  1  0  0  0  0
 12 13  1  1  0  0  0
 12 14  1  0  0  0  0
 14 15  1  1  0  0  0
 14 16  1  0  0  0  0
 16 27  1  6  0  0  0
 18 19  2  0  0  0  0
 18 23  1  0  0  0  0
 19 20  1  0  0  0  0
 20 21  2  0  0  0  0
 21 22  1  0  0  0  0
 21 27  1  0  0  0  0
 22 23  2  0  0  0  0
 22 25  1  0  0  0  0
 23 24  1  0  0  0  0
 25 26  2  0  0  0  0
 26 27  1  0  0  0  0
M  END
>  <CHROM.1>
-158.75835143,-58.32779513,-173.97412947,179.70983380,-113.78735320,-56.03953984
-168.81668299,10.98176253,-7.69408832,20.09906134,-2.53783059,-0.13399914
-2.77750836

>  <Name>
ligand

>  <RI>
0

>  <Rbt.Current_Directory>
/home/itssahil/PROJECTS/Mol_Feturizer/New_Systems/rnas/3GX5

>  <Rbt.Executable>
rbdock ($Id: //depot/dev/client3/rdock/2013.1/src/exe/rbdock.cxx#4 $)

>  <Rbt.Library>
libRbt.so (2013.1, Build901 2013/11/27)

>  <Rbt.Parameter_File>
/export/apps/rDock/src/rDock_2013.1_src/data/scripts/dock_solv.prm

>  <Rbt.Receptor>
prm/blind_docking_80.prm

>  <SCORE>
-8.34489

>  <SCORE.INTER>
-9.4043

>  <SCORE.INTER.CONST>
1

>  <SCORE.INTER.POLAR>
0

>  <SCORE.INTER.ROT>
7

>  <SCORE.INTER.SOLV>
8.05365

>  <SCORE.INTER.VDW>
-17.2208

>  <SCORE.INTER.norm>
-0.348307

>  <SCORE.INTRA>
1.05941

>  <SCORE.INTRA.DIHEDRAL>
3.17948

>  <SCORE.INTRA.DIHEDRAL.0>
4.28829

>  <SCORE.INTRA.POLAR>
0

>  <SCORE.INTRA.POLAR.0>
0

>  <SCORE.INTRA.REPUL>
0

>  <SCORE.INTRA.REPUL.0>
0

>  <SCORE.INTRA.SOLV>
-0.112184

>  <SCORE.INTRA.SOLV.lig_0>
-48.6018

>  <SCORE.INTRA.VDW>
-0.474236

>  <SCORE.INTRA.VDW.0>
-2.1506

>  <SCORE.INTRA.norm>
0.0392374

>  <SCORE.RESTR>
0

>  <SCORE.RESTR.CAVITY>
0

>  <SCORE.RESTR.norm>
0

>  <SCORE.SYSTEM>
0

>  <SCORE.SYSTEM.CONST>
0

>  <SCORE.SYSTEM.DIHEDRAL>
0

>  <SCORE.SYSTEM.SOLV>
0

>  <SCORE.SYSTEM.norm>
0

>  <SCORE.heavy>
27

>  <SCORE.norm>
-0.30907

>  <RMSD>
13.173

$$$$
ligand
 OpenBabel11021811483D
libRbt.so/2013.1/901 2013/11/27
 27 29  0  0  0  0  0  0  0  0999 V2000
    7.1789  -16.4153   21.7144 N   0  0  0  0  0  0  0  0  0  0  0  0
    7.8493  -16.5308   20.4179 C   0  0  2  0  0  0  0  0  0  0  0  0
    9.2931  -17.0374   20.4595 C   0  0  0  0  0  0  0  0  0  0  0  0
   10.1108  -16.4395   21.1578 O   0  0  0  0  0  0  0  0  0  0  0  0
    7.7635  -15.2262   19.6435 C   0  0  0  0  0  0  0  0  0  0  0  0
    7.8183  -15.4621   18.1440 C   0  0  0  0  0  0  0  0  0  0  0  0
    7.3700  -13.9654   17.2473 S   0  0  2  0  0  0  0  0  0  0  0  0
    7.2932  -14.6188   15.5661 C   0  0  0  0  0  0  0  0  0  0  0  0
    8.9730  -13.1324   17.1738 C   0  0  0  0  0  0  0  0  0  0  0  0
    8.9317  -11.9631   16.2074 C   0  0  1  0  0  0  0  0  0  0  0  0
    7.8848  -11.0804   16.5406 O   0  0  0  0  0  0  0  0  0  0  0  0
   10.1899  -11.1186   16.2539 C   0  0  1  0  0  0  0  0  0  0  0  0
   11.0775  -11.5914   15.2723 O   0  0  0  0  0  0  0  0  0  0  0  0
    9.6954   -9.7266   15.9164 C   0  0  1  0  0  0  0  0  0  0  0  0
    9.9797   -9.4980   14.5545 O   0  0  0  0  0  0  0  0  0  0  0  0
    8.1846   -9.7497   16.1578 C   0  0  2  0  0  0  0  0  0  0  0  0
    9.6786  -18.0186   19.8182 O   0  0  0  0  0  0  0  0  0  0  0  0
    7.8056   -4.8495   17.9641 N   0  0  0  0  0  0  0  0  0  0  0  0
    8.1697   -5.2576   16.7039 C   0  0  0  0  0  0  0  0  0  0  0  0
    8.2124   -6.6046   16.4184 N   0  0  0  0  0  0  0  0  0  0  0  0
    7.8998   -7.5282   17.3548 C   0  0  0  0  0  0  0  0  0  0  0  0
    7.5168   -7.1309   18.6277 C   0  0  0  0  0  0  0  0  0  0  0  0
    7.4787   -5.7724   18.9348 C   0  0  0  0  0  0  0  0  0  0  0  0
    7.1221   -5.3513   20.1485 N   0  0  0  0  0  0  0  0  0  0  0  0
    7.2544   -8.2488   19.3526 N   0  0  0  0  0  0  0  0  0  0  0  0
    7.4494   -9.3250   18.5562 C   0  0  0  0  0  0  0  0  0  0  0  0
    7.8427   -8.8955   17.3126 N   0  0  0  0  0  0  0  0  0  0  0  0
  2  1  1  1  0  0  0
  2  3  1  0  0  0  0
  2  5  1  0  0  0  0
  3  4  1  0  0  0  0
  3 17  1  0  0  0  0
  5  6  1  0  0  0  0
  7  6  1  1  0  0  0
  7  8  1  0  0  0  0
  7  9  1  0  0  0  0
 10  9  1  1  0  0  0
 10 11  1  0  0  0  0
 10 12  1  0  0  0  0
 11 16  1  0  0  0  0
 12 13  1  6  0  0  0
 12 14  1  0  0  0  0
 14 15  1  6  0  0  0
 14 16  1  0  0  0  0
 16 27  1  1  0  0  0
 18 19  2  0  0  0  0
 18 23  1  0  0  0  0
 19 20  1  0  0  0  0
 20 21  2  0  0  0  0
 21 22  1  0  0  0  0
 21 27  1  0  0  0  0
 22 23  2  0  0  0  0
 22 25  1  0  0  0  0
 23 24  1  0  0  0  0
 25 26  2  0  0  0  0
 26 27  1  0  0  0  0
M  END
>  <CHROM.1>
-55.64732535,-152.66635847,168.05336067,-172.16465268,168.13015282,54.68706475
-175.90375892,8.36197914,-11.39450150,17.85912516,1.41244545,-1.21853538
2.79114235

>  <Name>
ligand

>  <RI>
0

>  <Rbt.Current_Directory>
/home/itssahil/PROJECTS/Mol_Feturizer/New_Systems/rnas/3GX5

>  <Rbt.Executable>
rbdock ($Id: //depot/dev/client3/rdock/2013.1/src/exe/rbdock.cxx#4 $)

>  <Rbt.Library>
libRbt.so (2013.1, Build901 2013/11/27)

>  <Rbt.Parameter_File>
/export/apps/rDock/src/rDock_2013.1_src/data/scripts/dock_solv.prm

>  <Rbt.Receptor>
prm/blind_docking_40.prm

>  <SCORE>
-14.3745

>  <SCORE.INTER>
-15.086

>  <SCORE.INTER.CONST>
1

>  <SCORE.INTER.POLAR>
0

>  <SCORE.INTER.ROT>
7

>  <SCORE.INTER.SOLV>
13.054

>  <SCORE.INTER.VDW>
-22.6753

>  <SCORE.INTER.norm>
-0.55874

>  <SCORE.INTRA>
0.711451

>  <SCORE.INTRA.DIHEDRAL>
2.78304

>  <SCORE.INTRA.DIHEDRAL.0>
4.28829

>  <SCORE.INTRA.POLAR>
0

>  <SCORE.INTRA.POLAR.0>
0

>  <SCORE.INTRA.REPUL>
0

>  <SCORE.INTRA.REPUL.0>
0

>  <SCORE.INTRA.SOLV>
-1.25052

>  <SCORE.INTRA.SOLV.lig_0>
-48.6018

>  <SCORE.INTRA.VDW>
-0.0548084

>  <SCORE.INTRA.VDW.0>
-2.1506

>  <SCORE.INTRA.norm>
0.02635

>  <SCORE.RESTR>
0

>  <SCORE.RESTR.CAVITY>
0

>  <SCORE.RESTR.norm>
0

>  <SCORE.SYSTEM>
0

>  <SCORE.SYSTEM.CONST>
0

>  <SCORE.SYSTEM.DIHEDRAL>
0

>  <SCORE.SYSTEM.SOLV>
0

>  <SCORE.SYSTEM.norm>
0

>  <SCORE.heavy>
27

>  <SCORE.norm>
-0.53239

>  <RMSD>
13.197

$$$$
ligand
 OpenBabel11021811483D
libRbt.so/2013.1/901 2013/11/27
 27 29  0  0  0  0  0  0  0  0999 V2000
   14.3153   -9.7845   20.0754 N   0  0  0  0  0  0  0  0  0  0  0  0
   14.8569   -9.0957   18.9023 C   0  0  2  0  0  0  0  0  0  0  0  0
   16.3794   -8.9428   18.8660 C   0  0  0  0  0  0  0  0  0  0  0  0
   16.9796   -8.7378   19.9202 O   0  0  0  0  0  0  0  0  0  0  0  0
   14.1804   -7.7500   18.7020 C   0  0  0  0  0  0  0  0  0  0  0  0
   12.7221   -7.9109   18.3083 C   0  0  0  0  0  0  0  0  0  0  0  0
   12.5811   -8.7215   16.7057 S   0  0  2  0  0  0  0  0  0  0  0  0
   13.0654   -7.3605   15.6229 C   0  0  0  0  0  0  0  0  0  0  0  0
   10.7895   -8.6727   16.4681 C   0  0  0  0  0  0  0  0  0  0  0  0
   10.1204   -9.8509   17.1515 C   0  0  1  0  0  0  0  0  0  0  0  0
   10.2605   -9.7583   18.5508 O   0  0  0  0  0  0  0  0  0  0  0  0
    8.6251   -9.8996   16.9068 C   0  0  1  0  0  0  0  0  0  0  0  0
    8.3853  -10.7167   15.7888 O   0  0  0  0  0  0  0  0  0  0  0  0
    8.0792  -10.5320   18.1710 C   0  0  1  0  0  0  0  0  0  0  0  0
    7.8432  -11.8938   17.8920 O   0  0  0  0  0  0  0  0  0  0  0  0
    9.1786  -10.3776   19.2240 C   0  0  2  0  0  0  0  0  0  0  0  0
   17.0359   -9.0103   17.8232 O   0  0  0  0  0  0  0  0  0  0  0  0
    9.7328   -8.8952   24.2154 N   0  0  0  0  0  0  0  0  0  0  0  0
   10.4021   -9.8960   23.5539 C   0  0  0  0  0  0  0  0  0  0  0  0
   10.1129  -10.1381   22.2290 N   0  0  0  0  0  0  0  0  0  0  0  0
    9.1859   -9.4068   21.5707 C   0  0  0  0  0  0  0  0  0  0  0  0
    8.5118   -8.3837   22.2214 C   0  0  0  0  0  0  0  0  0  0  0  0
    8.7858   -8.1334   23.5643 C   0  0  0  0  0  0  0  0  0  0  0  0
    8.1542   -7.1635   24.2261 N   0  0  0  0  0  0  0  0  0  0  0  0
    7.6561   -7.8162   21.3326 N   0  0  0  0  0  0  0  0  0  0  0  0
    7.7961   -8.4510   20.1460 C   0  0  0  0  0  0  0  0  0  0  0  0
    8.7455   -9.4348   20.2745 N   0  0  0  0  0  0  0  0  0  0  0  0
  2  1  1  1  0  0  0
  2  3  1  0  0  0  0
  2  5  1  0  0  0  0
  3  4  1  0  0  0  0
  3 17  1  0  0  0  0
  5  6  1  0  0  0  0
  7  6  1  1  0  0  0
  7  8  1  0  0  0  0
  7  9  1  0  0  0  0
 10  9  1  6  0  0  0
 10 11  1  0  0  0  0
 10 12  1  0  0  0  0
 11 16  1  0  0  0  0
 12 13  1  6  0  0  0
 12 14  1  0  0  0  0
 14 15  1  6  0  0  0
 14 16  1  0  0  0  0
 16 27  1  1  0  0  0
 18 19  2  0  0  0  0
 18 23  1  0  0  0  0
 19 20  1  0  0  0  0
 20 21  2  0  0  0  0
 21 22  1  0  0  0  0
 21 27  1  0  0  0  0
 22 23  2  0  0  0  0
 22 25  1  0  0  0  0
 23 24  1  0  0  0  0
 25 26  2  0  0  0  0
 26 27  1  0  0  0  0
M  END
>  <CHROM.1>
-36.26843511,-67.75151822,-64.37153677,-74.69113496,-84.88830410,66.19557846
-92.04992580,11.05226320,-9.13476890,19.34253423,-0.49278168,0.15299629,1.40912253

>  <Name>
ligand

>  <RI>
0

>  <Rbt.Current_Directory>
/home/itssahil/PROJECTS/Mol_Feturizer/New_Systems/rnas/3GX5

>  <Rbt.Executable>
rbdock ($Id: //depot/dev/client3/rdock/2013.1/src/exe/rbdock.cxx#4 $)

>  <Rbt.Library>
libRbt.so (2013.1, Build901 2013/11/27)

>  <Rbt.Parameter_File>
/export/apps/rDock/src/rDock_2013.1_src/data/scripts/dock_solv.prm

>  <Rbt.Receptor>
prm/blind_docking_60.prm

>  <SCORE>
-10.4227

>  <SCORE.INTER>
-10.4202

>  <SCORE.INTER.CONST>
1

>  <SCORE.INTER.POLAR>
0

>  <SCORE.INTER.ROT>
7

>  <SCORE.INTER.SOLV>
12.5004

>  <SCORE.INTER.VDW>
-19.3803

>  <SCORE.INTER.norm>
-0.385935

>  <SCORE.INTRA>
-0.00246771

>  <SCORE.INTRA.DIHEDRAL>
0.481801

>  <SCORE.INTRA.DIHEDRAL.0>
4.28829

>  <SCORE.INTRA.POLAR>
0

>  <SCORE.INTRA.POLAR.0>
0

>  <SCORE.INTRA.REPUL>
0

>  <SCORE.INTRA.REPUL.0>
0

>  <SCORE.INTRA.SOLV>
-0.0510344

>  <SCORE.INTRA.SOLV.lig_0>
-48.6018

>  <SCORE.INTRA.VDW>
-0.217851

>  <SCORE.INTRA.VDW.0>
-2.1506

>  <SCORE.INTRA.norm>
-9.13967e-05

>  <SCORE.RESTR>
0

>  <SCORE.RESTR.CAVITY>
0

>  <SCORE.RESTR.norm>
0

>  <SCORE.SYSTEM>
0

>  <SCORE.SYSTEM.CONST>
0

>  <SCORE.SYSTEM.DIHEDRAL>
0

>  <SCORE.SYSTEM.SOLV>
0

>  <SCORE.SYSTEM.norm>
0

>  <SCORE.heavy>
27

>  <SCORE.norm>
-0.386026

>  <RMSD>
13.223

$$$$
ligand
 OpenBabel11021811483D
libRbt.so/2013.1/901 2013/11/27
 27 29  0  0  0  0  0  0  0  0999 V2000
   13.4801   -7.6213   14.8188 N   0  0  0  0  0  0  0  0  0  0  0  0
   13.4192   -8.4934   15.9934 C   0  0  2  0  0  0  0  0  0  0  0  0
   14.3751   -9.6888   15.9835 C   0  0  0  0  0  0  0  0  0  0  0  0
   14.2393  -10.5486   15.1140 O   0  0  0  0  0  0  0  0  0  0  0  0
   11.9945   -8.9513   16.2570 C   0  0  0  0  0  0  0  0  0  0  0  0
   11.8682   -9.6343   17.6079 C   0  0  0  0  0  0  0  0  0  0  0  0
   12.1942   -8.4697   18.9430 S   0  0  2  0  0  0  0  0  0  0  0  0
   13.8249   -9.0413   19.4657 C   0  0  0  0  0  0  0  0  0  0  0  0
   11.1864   -9.1884   20.2608 C   0  0  0  0  0  0  0  0  0  0  0  0
    9.8204   -8.5299   20.3180 C   0  0  1  0  0  0  0  0  0  0  0  0
    9.0932   -8.7916   19.1395 O   0  0  0  0  0  0  0  0  0  0  0  0
    8.9566   -9.0669   21.4423 C   0  0  1  0  0  0  0  0  0  0  0  0
    9.1362   -8.2470   22.5695 O   0  0  0  0  0  0  0  0  0  0  0  0
    7.5481   -8.9433   20.8974 C   0  0  1  0  0  0  0  0  0  0  0  0
    6.9828   -7.7775   21.4535 O   0  0  0  0  0  0  0  0  0  0  0  0
    7.6973   -8.8026   19.3810 C   0  0  2  0  0  0  0  0  0  0  0  0
   15.2762   -9.8343   16.8138 O   0  0  0  0  0  0  0  0  0  0  0  0
    8.8643  -13.3783   17.1185 N   0  0  0  0  0  0  0  0  0  0  0  0
    9.7267  -12.4822   17.7020 C   0  0  0  0  0  0  0  0  0  0  0  0
    9.2241  -11.3213   18.2475 N   0  0  0  0  0  0  0  0  0  0  0  0
    7.8996  -11.0523   18.2204 C   0  0  0  0  0  0  0  0  0  0  0  0
    7.0148  -11.9541   17.6471 C   0  0  0  0  0  0  0  0  0  0  0  0
    7.5091  -13.1278   17.0820 C   0  0  0  0  0  0  0  0  0  0  0  0
    6.6916  -14.0160   16.5159 N   0  0  0  0  0  0  0  0  0  0  0  0
    5.7625  -11.4423   17.7645 N   0  0  0  0  0  0  0  0  0  0  0  0
    5.8489  -10.2562   18.4099 C   0  0  0  0  0  0  0  0  0  0  0  0
    7.1657  -10.0032   18.7058 N   0  0  0  0  0  0  0  0  0  0  0  0
  2  1  1  6  0  0  0
  2  3  1  0  0  0  0
  2  5  1  0  0  0  0
  3  4  1  0  0  0  0
  3 17  1  0  0  0  0
  5  6  1  0  0  0  0
  7  6  1  6  0  0  0
  7  8  1  0  0  0  0
  7  9  1  0  0  0  0
 10  9  1  6  0  0  0
 10 11  1  0  0  0  0
 10 12  1  0  0  0  0
 11 16  1  0  0  0  0
 12 13  1  1  0  0  0
 12 14  1  0  0  0  0
 14 15  1  1  0  0  0
 14 16  1  0  0  0  0
 16 27  1  6  0  0  0
 18 19  2  0  0  0  0
 18 23  1  0  0  0  0
 19 20  1  0  0  0  0
 20 21  2  0  0  0  0
 21 22  1  0  0  0  0
 21 27  1  0  0  0  0
 22 23  2  0  0  0  0
 22 25  1  0  0  0  0
 23 24  1  0  0  0  0
 25 26  2  0  0  0  0
 26 27  1  0  0  0  0
M  END
>  <CHROM.1>
-63.27582042,-169.24917768,65.12581782,-106.61542809,-95.02737823,64.68959845
13.88521633,10.06659379,-9.89772318,18.35071856,0.13576507,-0.38058549,-2.26999536

>  <Name>
ligand

>  <RI>
0

>  <Rbt.Current_Directory>
/home/itssahil/PROJECTS/Mol_Feturizer/New_Systems/rnas/3GX5

>  <Rbt.Executable>
rbdock ($Id: //depot/dev/client3/rdock/2013.1/src/exe/rbdock.cxx#4 $)

>  <Rbt.Library>
libRbt.so (2013.1, Build901 2013/11/27)

>  <Rbt.Parameter_File>
/export/apps/rDock/src/rDock_2013.1_src/data/scripts/dock_solv.prm

>  <Rbt.Receptor>
prm/blind_docking_100.prm

>  <SCORE>
-11.2017

>  <SCORE.INTER>
-11.3945

>  <SCORE.INTER.CONST>
1

>  <SCORE.INTER.POLAR>
0

>  <SCORE.INTER.ROT>
7

>  <SCORE.INTER.SOLV>
12.9485

>  <SCORE.INTER.VDW>
-20.1792

>  <SCORE.INTER.norm>
-0.42202

>  <SCORE.INTRA>
0.192877

>  <SCORE.INTRA.DIHEDRAL>
4.41852

>  <SCORE.INTRA.DIHEDRAL.0>
4.28829

>  <SCORE.INTRA.POLAR>
0

>  <SCORE.INTRA.POLAR.0>
0

>  <SCORE.INTRA.REPUL>
0

>  <SCORE.INTRA.REPUL.0>
0

>  <SCORE.INTRA.SOLV>
-0.961656

>  <SCORE.INTRA.SOLV.lig_0>
-48.6018

>  <SCORE.INTRA.VDW>
-1.53555

>  <SCORE.INTRA.VDW.0>
-2.1506

>  <SCORE.INTRA.norm>
0.0071436

>  <SCORE.RESTR>
0

>  <SCORE.RESTR.CAVITY>
0

>  <SCORE.RESTR.norm>
0

>  <SCORE.SYSTEM>
0

>  <SCORE.SYSTEM.CONST>
0

>  <SCORE.SYSTEM.DIHEDRAL>
0

>  <SCORE.SYSTEM.SOLV>
0

>  <SCORE.SYSTEM.norm>
0

>  <SCORE.heavy>
27

>  <SCORE.norm>
-0.414877

>  <RMSD>
13.240

$$$$
ligand
 OpenBabel11021811483D
libRbt.so/2013.1/901 2013/11/27
 27 29  0  0  0  0  0  0  0  0999 V2000
    7.2018  -16.3056   21.8657 N   0  0  0  0  0  0  0  0  0  0  0  0
    7.8457  -16.4748   20.5616 C   0  0  2  0  0  0  0  0  0  0  0  0
    9.2953  -16.9650   20.5952 C   0  0  0  0  0  0  0  0  0  0  0  0
    9.6111  -17.9289   19.8989 O   0  0  0  0  0  0  0  0  0  0  0  0
    7.7296  -15.2085   19.7299 C   0  0  0  0  0  0  0  0  0  0  0  0
    7.7049  -15.5172   18.2428 C   0  0  0  0  0  0  0  0  0  0  0  0
    7.3520  -14.0299   17.2896 S   0  0  2  0  0  0  0  0  0  0  0  0
    7.1973  -14.7451   15.6393 C   0  0  0  0  0  0  0  0  0  0  0  0
    9.0104  -13.3221   17.1570 C   0  0  0  0  0  0  0  0  0  0  0  0
    8.9704  -11.9769   16.4556 C   0  0  1  0  0  0  0  0  0  0  0  0
    8.5714  -10.9628   17.3492 O   0  0  0  0  0  0  0  0  0  0  0  0
   10.3295  -11.5408   15.9448 C   0  0  1  0  0  0  0  0  0  0  0  0
   10.4589  -11.9652   14.6113 O   0  0  0  0  0  0  0  0  0  0  0  0
   10.2729  -10.0291   16.0324 C   0  0  1  0  0  0  0  0  0  0  0  0
    9.9897   -9.5431   14.7395 O   0  0  0  0  0  0  0  0  0  0  0  0
    9.1269   -9.7087   16.9945 C   0  0  2  0  0  0  0  0  0  0  0  0
   10.1652  -16.4399   21.2955 O   0  0  0  0  0  0  0  0  0  0  0  0
   13.3574   -9.0298   20.0045 N   0  0  0  0  0  0  0  0  0  0  0  0
   13.2783   -9.6763   18.7950 C   0  0  0  0  0  0  0  0  0  0  0  0
   12.0633   -9.7525   18.1503 N   0  0  0  0  0  0  0  0  0  0  0  0
   10.9517   -9.2002   18.6859 C   0  0  0  0  0  0  0  0  0  0  0  0
   11.0187   -8.5320   19.8998 C   0  0  0  0  0  0  0  0  0  0  0  0
   12.2383   -8.4554   20.5690 C   0  0  0  0  0  0  0  0  0  0  0  0
   12.3418   -7.8277   21.7407 N   0  0  0  0  0  0  0  0  0  0  0  0
    9.7743   -8.0745   20.1937 N   0  0  0  0  0  0  0  0  0  0  0  0
    8.9443   -8.4283   19.1854 C   0  0  0  0  0  0  0  0  0  0  0  0
    9.6597   -9.1204   18.2395 N   0  0  0  0  0  0  0  0  0  0  0  0
  2  1  1  1  0  0  0
  2  3  1  0  0  0  0
  2  5  1  0  0  0  0
  3  4  1  0  0  0  0
  3 17  1  0  0  0  0
  5  6  1  0  0  0  0
  7  6  1  1  0  0  0
  7  8  1  0  0  0  0
  7  9  1  0  0  0  0
 10  9  1  1  0  0  0
 10 11  1  0  0  0  0
 10 12  1  0  0  0  0
 11 16  1  0  0  0  0
 12 13  1  6  0  0  0
 12 14  1  0  0  0  0
 14 15  1  6  0  0  0
 14 16  1  0  0  0  0
 16 27  1  1  0  0  0
 18 19  2  0  0  0  0
 18 23  1  0  0  0  0
 19 20  1  0  0  0  0
 20 21  2  0  0  0  0
 21 22  1  0  0  0  0
 21 27  1  0  0  0  0
 22 23  2  0  0  0  0
 22 25  1  0  0  0  0
 23 24  1  0  0  0  0
 25 26  2  0  0  0  0
 26 27  1  0  0  0  0
M  END
>  <CHROM.1>
129.14968751,-150.62128402,172.61304984,-173.61942326,-176.16720854,80.10946717
95.13114274,9.64445051,-12.07581031,18.40818420,-2.42727087,-1.04850682,-0.88404222

>  <Name>
ligand

>  <RI>
0

>  <Rbt.Current_Directory>
/home/itssahil/PROJECTS/Mol_Feturizer/New_Systems/rnas/3GX5

>  <Rbt.Executable>
rbdock ($Id: //depot/dev/client3/rdock/2013.1/src/exe/rbdock.cxx#4 $)

>  <Rbt.Library>
libRbt.so (2013.1, Build901 2013/11/27)

>  <Rbt.Parameter_File>
/export/apps/rDock/src/rDock_2013.1_src/data/scripts/dock_solv.prm

>  <Rbt.Receptor>
prm/blind_docking_100.prm

>  <SCORE>
-13.4232

>  <SCORE.INTER>
-14.7095

>  <SCORE.INTER.CONST>
1

>  <SCORE.INTER.POLAR>
0

>  <SCORE.INTER.ROT>
7

>  <SCORE.INTER.SOLV>
14.7072

>  <SCORE.INTER.VDW>
-22.9754

>  <SCORE.INTER.norm>
-0.544797

>  <SCORE.INTRA>
1.28634

>  <SCORE.INTRA.DIHEDRAL>
4.26563

>  <SCORE.INTRA.DIHEDRAL.0>
4.28829

>  <SCORE.INTRA.POLAR>
0

>  <SCORE.INTRA.POLAR.0>
0

>  <SCORE.INTRA.REPUL>
0

>  <SCORE.INTRA.REPUL.0>
0

>  <SCORE.INTRA.SOLV>
-1.26978

>  <SCORE.INTRA.SOLV.lig_0>
-48.6018

>  <SCORE.INTRA.VDW>
-0.211583

>  <SCORE.INTRA.VDW.0>
-2.1506

>  <SCORE.INTRA.norm>
0.0476423

>  <SCORE.RESTR>
0

>  <SCORE.RESTR.CAVITY>
0

>  <SCORE.RESTR.norm>
0

>  <SCORE.SYSTEM>
0

>  <SCORE.SYSTEM.CONST>
0

>  <SCORE.SYSTEM.DIHEDRAL>
0

>  <SCORE.SYSTEM.SOLV>
0

>  <SCORE.SYSTEM.norm>
0

>  <SCORE.heavy>
27

>  <SCORE.norm>
-0.497155

>  <RMSD>
13.247

$$$$
ligand
 OpenBabel11021811483D
libRbt.so/2013.1/901 2013/11/27
 27 29  0  0  0  0  0  0  0  0999 V2000
   12.1498  -10.7233   13.5114 N   0  0  0  0  0  0  0  0  0  0  0  0
   10.7810  -10.4127   13.0944 C   0  0  2  0  0  0  0  0  0  0  0  0
   10.6262   -9.1992   12.1743 C   0  0  0  0  0  0  0  0  0  0  0  0
   11.0228   -8.1031   12.5678 O   0  0  0  0  0  0  0  0  0  0  0  0
    9.8607  -10.2913   14.2973 C   0  0  0  0  0  0  0  0  0  0  0  0
    9.7566  -11.6034   15.0556 C   0  0  0  0  0  0  0  0  0  0  0  0
    8.7378  -11.4084   16.5284 S   0  0  2  0  0  0  0  0  0  0  0  0
    8.8799  -13.0661   17.2291 C   0  0  0  0  0  0  0  0  0  0  0  0
    7.0855  -11.5280   15.8045 C   0  0  0  0  0  0  0  0  0  0  0  0
    6.0733  -10.7617   16.6360 C   0  0  1  0  0  0  0  0  0  0  0  0
    6.2688  -11.0105   18.0093 O   0  0  0  0  0  0  0  0  0  0  0  0
    6.2061   -9.2592   16.4842 C   0  0  1  0  0  0  0  0  0  0  0  0
    5.3338   -8.8378   15.4660 O   0  0  0  0  0  0  0  0  0  0  0  0
    5.7670   -8.7263   17.8330 C   0  0  1  0  0  0  0  0  0  0  0  0
    4.4305   -8.2971   17.7009 O   0  0  0  0  0  0  0  0  0  0  0  0
    5.8633   -9.9077   18.8007 C   0  0  2  0  0  0  0  0  0  0  0  0
   10.1149   -9.2680   11.0534 O   0  0  0  0  0  0  0  0  0  0  0  0
    7.7343   -6.7342   22.5218 N   0  0  0  0  0  0  0  0  0  0  0  0
    6.5734   -6.5950   21.8006 C   0  0  0  0  0  0  0  0  0  0  0  0
    6.2506   -7.5430   20.8546 N   0  0  0  0  0  0  0  0  0  0  0  0
    7.0541   -8.6062   20.6276 C   0  0  0  0  0  0  0  0  0  0  0  0
    8.2226   -8.7677   21.3578 C   0  0  0  0  0  0  0  0  0  0  0  0
    8.5680   -7.8119   22.3109 C   0  0  0  0  0  0  0  0  0  0  0  0
    9.6859   -7.9283   23.0281 N   0  0  0  0  0  0  0  0  0  0  0  0
    8.8237   -9.9101   20.9363 N   0  0  0  0  0  0  0  0  0  0  0  0
    8.0489  -10.4668   19.9769 C   0  0  0  0  0  0  0  0  0  0  0  0
    6.9447   -9.6749   19.7787 N   0  0  0  0  0  0  0  0  0  0  0  0
  2  1  1  1  0  0  0
  2  3  1  0  0  0  0
  2  5  1  0  0  0  0
  3  4  1  0  0  0  0
  3 17  1  0  0  0  0
  5  6  1  0  0  0  0
  7  6  1  6  0  0  0
  7  8  1  0  0  0  0
  7  9  1  0  0  0  0
 10  9  1  6  0  0  0
 10 11  1  0  0  0  0
 10 12  1  0  0  0  0
 11 16  1  0  0  0  0
 12 13  1  6  0  0  0
 12 14  1  0  0  0  0
 14 15  1  6  0  0  0
 14 16  1  0  0  0  0
 16 27  1  1  0  0  0
 18 19  2  0  0  0  0
 18 23  1  0  0  0  0
 19 20  1  0  0  0  0
 20 21  2  0  0  0  0
 21 22  1  0  0  0  0
 21 27  1  0  0  0  0
 22 23  2  0  0  0  0
 22 25  1  0  0  0  0
 23 24  1  0  0  0  0
 25 26  2  0  0  0  0
 26 27  1  0  0  0  0
M  END
>  <CHROM.1>
-58.51650867,-63.09877174,176.71953317,-177.23244362,-152.50575969,-43.80267088
171.06745919,8.06098636,-9.61011246,17.43864132,-1.24346863,0.00073311,1.33947533

>  <Name>
ligand

>  <RI>
0

>  <Rbt.Current_Directory>
/home/itssahil/PROJECTS/Mol_Feturizer/New_Systems/rnas/3GX5

>  <Rbt.Executable>
rbdock ($Id: //depot/dev/client3/rdock/2013.1/src/exe/rbdock.cxx#4 $)

>  <Rbt.Library>
libRbt.so (2013.1, Build901 2013/11/27)

>  <Rbt.Parameter_File>
/export/apps/rDock/src/rDock_2013.1_src/data/scripts/dock_solv.prm

>  <Rbt.Receptor>
prm/blind_docking_60.prm

>  <SCORE>
-13.9605

>  <SCORE.INTER>
-14.7308

>  <SCORE.INTER.CONST>
1

>  <SCORE.INTER.POLAR>
0

>  <SCORE.INTER.ROT>
7

>  <SCORE.INTER.SOLV>
7.61189

>  <SCORE.INTER.VDW>
-20.6245

>  <SCORE.INTER.norm>
-0.545585

>  <SCORE.INTRA>
0.770269

>  <SCORE.INTRA.DIHEDRAL>
3.42807

>  <SCORE.INTRA.DIHEDRAL.0>
4.28829

>  <SCORE.INTRA.POLAR>
0

>  <SCORE.INTRA.POLAR.0>
0

>  <SCORE.INTRA.REPUL>
0

>  <SCORE.INTRA.REPUL.0>
0

>  <SCORE.INTRA.SOLV>
-0.411487

>  <SCORE.INTRA.SOLV.lig_0>
-48.6018

>  <SCORE.INTRA.VDW>
-0.738021

>  <SCORE.INTRA.VDW.0>
-2.1506

>  <SCORE.INTRA.norm>
0.0285285

>  <SCORE.RESTR>
0

>  <SCORE.RESTR.CAVITY>
0

>  <SCORE.RESTR.norm>
0

>  <SCORE.SYSTEM>
0

>  <SCORE.SYSTEM.CONST>
0

>  <SCORE.SYSTEM.DIHEDRAL>
0

>  <SCORE.SYSTEM.SOLV>
0

>  <SCORE.SYSTEM.norm>
0

>  <SCORE.heavy>
27

>  <SCORE.norm>
-0.517056

>  <RMSD>
13.254

$$$$
ligand
 OpenBabel11021811483D
libRbt.so/2013.1/901 2013/11/27
 27 29  0  0  0  0  0  0  0  0999 V2000
    6.9169   -7.7035   20.4805 N   0  0  0  0  0  0  0  0  0  0  0  0
    7.4618   -8.7937   19.6691 C   0  0  2  0  0  0  0  0  0  0  0  0
    6.4365   -9.7866   19.1161 C   0  0  0  0  0  0  0  0  0  0  0  0
    6.8398  -10.7814   18.5149 O   0  0  0  0  0  0  0  0  0  0  0  0
    8.5660   -9.5256   20.4134 C   0  0  0  0  0  0  0  0  0  0  0  0
    9.7780   -8.6360   20.6303 C   0  0  0  0  0  0  0  0  0  0  0  0
   11.1040   -9.5519   21.4354 S   0  0  2  0  0  0  0  0  0  0  0  0
   10.4360   -9.6636   23.1089 C   0  0  0  0  0  0  0  0  0  0  0  0
   12.3143   -8.2317   21.6816 C   0  0  0  0  0  0  0  0  0  0  0  0
   13.0502   -7.9241   20.3905 C   0  0  1  0  0  0  0  0  0  0  0  0
   13.8442   -6.7687   20.5347 O   0  0  0  0  0  0  0  0  0  0  0  0
   14.0178   -9.0207   19.9910 C   0  0  1  0  0  0  0  0  0  0  0  0
   13.3529   -9.9041   19.1235 O   0  0  0  0  0  0  0  0  0  0  0  0
   15.1209   -8.2743   19.2683 C   0  0  1  0  0  0  0  0  0  0  0  0
   14.8899   -8.4186   17.8849 O   0  0  0  0  0  0  0  0  0  0  0  0
   14.9814   -6.8103   19.6908 C   0  0  2  0  0  0  0  0  0  0  0  0
    5.2185   -9.6326   19.2406 O   0  0  0  0  0  0  0  0  0  0  0  0
   20.0735   -7.5300   20.6760 N   0  0  0  0  0  0  0  0  0  0  0  0
   19.3080   -8.1357   19.7093 C   0  0  0  0  0  0  0  0  0  0  0  0
   17.9727   -7.8128   19.6073 N   0  0  0  0  0  0  0  0  0  0  0  0
   17.4061   -6.9101   20.4390 C   0  0  0  0  0  0  0  0  0  0  0  0
   18.1694   -6.2799   21.4110 C   0  0  0  0  0  0  0  0  0  0  0  0
   19.5191   -6.6035   21.5333 C   0  0  0  0  0  0  0  0  0  0  0  0
   20.2841   -6.0245   22.4592 N   0  0  0  0  0  0  0  0  0  0  0  0
   17.3596   -5.4267   22.0896 N   0  0  0  0  0  0  0  0  0  0  0  0
   16.1205   -5.5013   21.5514 C   0  0  0  0  0  0  0  0  0  0  0  0
   16.1339   -6.4108   20.5227 N   0  0  0  0  0  0  0  0  0  0  0  0
  2  1  1  1  0  0  0
  2  3  1  0  0  0  0
  2  5  1  0  0  0  0
  3  4  1  0  0  0  0
  3 17  1  0  0  0  0
  5  6  1  0  0  0  0
  7  6  1  6  0  0  0
  7  8  1  0  0  0  0
  7  9  1  0  0  0  0
 10  9  1  1  0  0  0
 10 11  1  0  0  0  0
 10 12  1  0  0  0  0
 11 16  1  0  0  0  0
 12 13  1  6  0  0  0
 12 14  1  0  0  0  0
 14 15  1  6  0  0  0
 14 16  1  0  0  0  0
 16 27  1  1  0  0  0
 18 19  2  0  0  0  0
 18 23  1  0  0  0  0
 19 20  1  0  0  0  0
 20 21  2  0  0  0  0
 21 22  1  0  0  0  0
 21 27  1  0  0  0  0
 22 23  2  0  0  0  0
 22 25  1  0  0  0  0
 23 24  1  0  0  0  0
 25 26  2  0  0  0  0
 26 27  1  0  0  0  0
M  END
>  <CHROM.1>
-174.41670840,-66.25567871,-176.98547747,-73.58216634,-77.97127310,171.23559631
144.00802024,13.31617890,-8.12900299,20.43488018,2.94886643,-0.17097332,-2.09174906

>  <Name>
ligand

>  <RI>
0

>  <Rbt.Current_Directory>
/home/itssahil/PROJECTS/Mol_Feturizer/New_Systems/rnas/3GX5

>  <Rbt.Executable>
rbdock ($Id: //depot/dev/client3/rdock/2013.1/src/exe/rbdock.cxx#4 $)

>  <Rbt.Library>
libRbt.so (2013.1, Build901 2013/11/27)

>  <Rbt.Parameter_File>
/export/apps/rDock/src/rDock_2013.1_src/data/scripts/dock_solv.prm

>  <Rbt.Receptor>
prm/blind_docking_80.prm

>  <SCORE>
-18.0752

>  <SCORE.INTER>
-18.3609

>  <SCORE.INTER.CONST>
1

>  <SCORE.INTER.POLAR>
0

>  <SCORE.INTER.ROT>
7

>  <SCORE.INTER.SOLV>
13.984

>  <SCORE.INTER.VDW>
-25.1686

>  <SCORE.INTER.norm>
-0.680033

>  <SCORE.INTRA>
0.28566

>  <SCORE.INTRA.DIHEDRAL>
-0.0115103

>  <SCORE.INTRA.DIHEDRAL.0>
4.28829

>  <SCORE.INTRA.POLAR>
0

>  <SCORE.INTRA.POLAR.0>
0

>  <SCORE.INTRA.REPUL>
0

>  <SCORE.INTRA.REPUL.0>
0

>  <SCORE.INTRA.SOLV>
-0.449643

>  <SCORE.INTRA.SOLV.lig_0>
-48.6018

>  <SCORE.INTRA.VDW>
0.516237

>  <SCORE.INTRA.VDW.0>
-2.1506

>  <SCORE.INTRA.norm>
0.01058

>  <SCORE.RESTR>
0

>  <SCORE.RESTR.CAVITY>
0

>  <SCORE.RESTR.norm>
0

>  <SCORE.SYSTEM>
0

>  <SCORE.SYSTEM.CONST>
0

>  <SCORE.SYSTEM.DIHEDRAL>
0

>  <SCORE.SYSTEM.SOLV>
0

>  <SCORE.SYSTEM.norm>
0

>  <SCORE.heavy>
27

>  <SCORE.norm>
-0.669453

>  <RMSD>
13.272

$$$$
ligand
 OpenBabel11021811483D
libRbt.so/2013.1/901 2013/11/27
 27 29  0  0  0  0  0  0  0  0999 V2000
    6.4583   -2.2886   19.3736 N   0  0  0  0  0  0  0  0  0  0  0  0
    7.5556   -3.2033   19.6948 C   0  0  2  0  0  0  0  0  0  0  0  0
    7.2876   -4.6848   19.4187 C   0  0  0  0  0  0  0  0  0  0  0  0
    8.0604   -5.3000   18.6851 O   0  0  0  0  0  0  0  0  0  0  0  0
    8.0284   -3.0039   21.1250 C   0  0  0  0  0  0  0  0  0  0  0  0
    9.3460   -3.7148   21.3820 C   0  0  0  0  0  0  0  0  0  0  0  0
    9.0792   -5.4786   21.6334 S   0  0  2  0  0  0  0  0  0  0  0  0
    8.4464   -5.4615   23.3241 C   0  0  0  0  0  0  0  0  0  0  0  0
   10.7726   -6.0262   21.9511 C   0  0  0  0  0  0  0  0  0  0  0  0
   10.8319   -7.5333   22.1188 C   0  0  1  0  0  0  0  0  0  0  0  0
   10.3624   -8.1808   20.9584 O   0  0  0  0  0  0  0  0  0  0  0  0
   12.2448   -8.0471   22.3133 C   0  0  1  0  0  0  0  0  0  0  0  0
   12.5033   -8.1216   23.6927 O   0  0  0  0  0  0  0  0  0  0  0  0
   12.2091   -9.4278   21.6902 C   0  0  1  0  0  0  0  0  0  0  0  0
   12.0709  -10.3594   22.7395 O   0  0  0  0  0  0  0  0  0  0  0  0
   10.9761   -9.4458   20.7842 C   0  0  2  0  0  0  0  0  0  0  0  0
    6.3253   -5.2928   19.8951 O   0  0  0  0  0  0  0  0  0  0  0  0
   14.0433   -7.4248   17.0524 N   0  0  0  0  0  0  0  0  0  0  0  0
   13.9689   -7.0563   18.3737 C   0  0  0  0  0  0  0  0  0  0  0  0
   13.0903   -7.7125   19.2075 N   0  0  0  0  0  0  0  0  0  0  0  0
   12.3047   -8.7122   18.7480 C   0  0  0  0  0  0  0  0  0  0  0  0
   12.3786   -9.1048   17.4195 C   0  0  0  0  0  0  0  0  0  0  0  0
   13.2550   -8.4437   16.5614 C   0  0  0  0  0  0  0  0  0  0  0  0
   13.3500   -8.7875   15.2767 N   0  0  0  0  0  0  0  0  0  0  0  0
   11.4982  -10.1222   17.2353 N   0  0  0  0  0  0  0  0  0  0  0  0
   10.8948  -10.3791   18.4187 C   0  0  0  0  0  0  0  0  0  0  0  0
   11.3885   -9.5188   19.3683 N   0  0  0  0  0  0  0  0  0  0  0  0
  2  1  1  1  0  0  0
  2  3  1  0  0  0  0
  2  5  1  0  0  0  0
  3  4  1  0  0  0  0
  3 17  1  0  0  0  0
  5  6  1  0  0  0  0
  7  6  1  1  0  0  0
  7  8  1  0  0  0  0
  7  9  1  0  0  0  0
 10  9  1  6  0  0  0
 10 11  1  0  0  0  0
 10 12  1  0  0  0  0
 11 16  1  0  0  0  0
 12 13  1  1  0  0  0
 12 14  1  0  0  0  0
 14 15  1  1  0  0  0
 14 16  1  0  0  0  0
 16 27  1  6  0  0  0
 18 19  2  0  0  0  0
 18 23  1  0  0  0  0
 19 20  1  0  0  0  0
 20 21  2  0  0  0  0
 21 22  1  0  0  0  0
 21 27  1  0  0  0  0
 22 23  2  0  0  0  0
 22 25  1  0  0  0  0
 23 24  1  0  0  0  0
 25 26  2  0  0  0  0
 26 27  1  0  0  0  0
M  END
>  <CHROM.1>
124.15657943,-167.54592799,-78.51730689,-76.74471946,-176.60258491,59.54158379
63.23437198,10.56057967,-7.03482299,20.09893518,2.95409003,-0.81466906,1.71676038

>  <Name>
ligand

>  <RI>
0

>  <Rbt.Current_Directory>
/home/itssahil/PROJECTS/Mol_Feturizer/New_Systems/rnas/3GX5

>  <Rbt.Executable>
rbdock ($Id: //depot/dev/client3/rdock/2013.1/src/exe/rbdock.cxx#4 $)

>  <Rbt.Library>
libRbt.so (2013.1, Build901 2013/11/27)

>  <Rbt.Parameter_File>
/export/apps/rDock/src/rDock_2013.1_src/data/scripts/dock_solv.prm

>  <Rbt.Receptor>
prm/blind_docking_80.prm

>  <SCORE>
-9.83215

>  <SCORE.INTER>
-9.16324

>  <SCORE.INTER.CONST>
1

>  <SCORE.INTER.POLAR>
0

>  <SCORE.INTER.ROT>
7

>  <SCORE.INTER.SOLV>
10.0875

>  <SCORE.INTER.VDW>
-17.738

>  <SCORE.INTER.norm>
-0.339379

>  <SCORE.INTRA>
-0.668913

>  <SCORE.INTRA.DIHEDRAL>
1.4435

>  <SCORE.INTRA.DIHEDRAL.0>
4.28829

>  <SCORE.INTRA.POLAR>
0

>  <SCORE.INTRA.POLAR.0>
0

>  <SCORE.INTRA.REPUL>
0

>  <SCORE.INTRA.REPUL.0>
0

>  <SCORE.INTRA.SOLV>
-1.13047

>  <SCORE.INTRA.SOLV.lig_0>
-48.6018

>  <SCORE.INTRA.VDW>
-0.825428

>  <SCORE.INTRA.VDW.0>
-2.1506

>  <SCORE.INTRA.norm>
-0.0247745

>  <SCORE.RESTR>
0

>  <SCORE.RESTR.CAVITY>
0

>  <SCORE.RESTR.norm>
0

>  <SCORE.SYSTEM>
0

>  <SCORE.SYSTEM.CONST>
0

>  <SCORE.SYSTEM.DIHEDRAL>
0

>  <SCORE.SYSTEM.SOLV>
0

>  <SCORE.SYSTEM.norm>
0

>  <SCORE.heavy>
27

>  <SCORE.norm>
-0.364154

>  <RMSD>
13.300

$$$$
ligand
 OpenBabel11021811483D
libRbt.so/2013.1/901 2013/11/27
 27 29  0  0  0  0  0  0  0  0999 V2000
   13.7867   -8.3444   17.3277 N   0  0  0  0  0  0  0  0  0  0  0  0
   12.4385   -7.8369   17.5897 C   0  0  2  0  0  0  0  0  0  0  0  0
   11.6406   -8.5910   18.6562 C   0  0  0  0  0  0  0  0  0  0  0  0
   12.1360   -9.5943   19.1678 O   0  0  0  0  0  0  0  0  0  0  0  0
   11.6390   -7.7283   16.3022 C   0  0  0  0  0  0  0  0  0  0  0  0
   11.6127   -9.0467   15.5481 C   0  0  0  0  0  0  0  0  0  0  0  0
   10.5757  -10.2475   16.4013 S   0  0  2  0  0  0  0  0  0  0  0  0
   10.4813  -11.5334   15.1377 C   0  0  0  0  0  0  0  0  0  0  0  0
    8.9481   -9.4912   16.1837 C   0  0  0  0  0  0  0  0  0  0  0  0
    7.8964  -10.2273   16.9932 C   0  0  1  0  0  0  0  0  0  0  0  0
    8.2337  -10.2280   18.3615 O   0  0  0  0  0  0  0  0  0  0  0  0
    6.5334   -9.5672   16.9228 C   0  0  1  0  0  0  0  0  0  0  0  0
    5.8057  -10.1634   15.8788 O   0  0  0  0  0  0  0  0  0  0  0  0
    5.9153   -9.8858   18.2691 C   0  0  1  0  0  0  0  0  0  0  0  0
    5.0397  -10.9751   18.0828 O   0  0  0  0  0  0  0  0  0  0  0  0
    7.0796  -10.2767   19.1818 C   0  0  2  0  0  0  0  0  0  0  0  0
   10.5160   -8.2416   19.0248 O   0  0  0  0  0  0  0  0  0  0  0  0
    9.9254   -8.7748   23.3126 N   0  0  0  0  0  0  0  0  0  0  0  0
   10.1090   -9.8817   22.5200 C   0  0  0  0  0  0  0  0  0  0  0  0
    9.2460  -10.1092   21.4706 N   0  0  0  0  0  0  0  0  0  0  0  0
    8.2263   -9.2615   21.2075 C   0  0  0  0  0  0  0  0  0  0  0  0
    8.0366   -8.1321   21.9905 C   0  0  0  0  0  0  0  0  0  0  0  0
    8.8949   -7.8938   23.0618 C   0  0  0  0  0  0  0  0  0  0  0  0
    8.7412   -6.8231   23.8414 N   0  0  0  0  0  0  0  0  0  0  0  0
    6.9599   -7.4628   21.5038 N   0  0  0  0  0  0  0  0  0  0  0  0
    6.4900   -8.1402   20.4310 C   0  0  0  0  0  0  0  0  0  0  0  0
    7.2680   -9.2537   20.2296 N   0  0  0  0  0  0  0  0  0  0  0  0
  2  1  1  6  0  0  0
  2  3  1  0  0  0  0
  2  5  1  0  0  0  0
  3  4  1  0  0  0  0
  3 17  1  0  0  0  0
  5  6  1  0  0  0  0
  7  6  1  6  0  0  0
  7  8  1  0  0  0  0
  7  9  1  0  0  0  0
 10  9  1  6  0  0  0
 10 11  1  0  0  0  0
 10 12  1  0  0  0  0
 11 16  1  0  0  0  0
 12 13  1  6  0  0  0
 12 14  1  0  0  0  0
 14 15  1  6  0  0  0
 14 16  1  0  0  0  0
 16 27  1  1  0  0  0
 18 19  2  0  0  0  0
 18 23  1  0  0  0  0
 19 20  1  0  0  0  0
 20 21  2  0  0  0  0
 21 22  1  0  0  0  0
 21 27  1  0  0  0  0
 22 23  2  0  0  0  0
 22 25  1  0  0  0  0
 23 24  1  0  0  0  0
 25 26  2  0  0  0  0
 26 27  1  0  0  0  0
M  END
>  <CHROM.1>
-3.66985063,54.42052675,71.50147204,169.29963560,-172.08990122,58.39430815
-65.20792497,9.11860845,-9.25849295,18.84802915,-1.17625633,0.20145383,1.29071073

>  <Name>
ligand

>  <RI>
0

>  <Rbt.Current_Directory>
/home/itssahil/PROJECTS/Mol_Feturizer/New_Systems/rnas/3GX5

>  <Rbt.Executable>
rbdock ($Id: //depot/dev/client3/rdock/2013.1/src/exe/rbdock.cxx#4 $)

>  <Rbt.Library>
libRbt.so (2013.1, Build901 2013/11/27)

>  <Rbt.Parameter_File>
/export/apps/rDock/src/rDock_2013.1_src/data/scripts/dock_solv.prm

>  <Rbt.Receptor>
prm/blind_docking_80.prm

>  <SCORE>
-11.3655

>  <SCORE.INTER>
-10.5831

>  <SCORE.INTER.CONST>
1

>  <SCORE.INTER.POLAR>
0

>  <SCORE.INTER.ROT>
7

>  <SCORE.INTER.SOLV>
7.9468

>  <SCORE.INTER.VDW>
-17.971

>  <SCORE.INTER.norm>
-0.391967

>  <SCORE.INTRA>
-0.782422

>  <SCORE.INTRA.DIHEDRAL>
0.594832

>  <SCORE.INTRA.DIHEDRAL.0>
4.28829

>  <SCORE.INTRA.POLAR>
0

>  <SCORE.INTRA.POLAR.0>
0

>  <SCORE.INTRA.REPUL>
0

>  <SCORE.INTRA.REPUL.0>
0

>  <SCORE.INTRA.SOLV>
0.218111

>  <SCORE.INTRA.SOLV.lig_0>
-48.6018

>  <SCORE.INTRA.VDW>
-1.18889

>  <SCORE.INTRA.VDW.0>
-2.1506

>  <SCORE.INTRA.norm>
-0.0289786

>  <SCORE.RESTR>
0

>  <SCORE.RESTR.CAVITY>
0

>  <SCORE.RESTR.norm>
0

>  <SCORE.SYSTEM>
0

>  <SCORE.SYSTEM.CONST>
0

>  <SCORE.SYSTEM.DIHEDRAL>
0

>  <SCORE.SYSTEM.SOLV>
0

>  <SCORE.SYSTEM.norm>
0

>  <SCORE.heavy>
27

>  <SCORE.norm>
-0.420945

>  <RMSD>
13.306

$$$$
ligand
 OpenBabel11021811483D
libRbt.so/2013.1/901 2013/11/27
 27 29  0  0  0  0  0  0  0  0999 V2000
   13.0332   -8.8859   14.8563 N   0  0  0  0  0  0  0  0  0  0  0  0
   13.4414   -7.4852   14.9800 C   0  0  2  0  0  0  0  0  0  0  0  0
   14.7343   -7.1037   14.2549 C   0  0  0  0  0  0  0  0  0  0  0  0
   15.0141   -5.9122   14.1303 O   0  0  0  0  0  0  0  0  0  0  0  0
   13.5034   -7.0641   16.4387 C   0  0  0  0  0  0  0  0  0  0  0  0
   14.6132   -7.7871   17.1822 C   0  0  0  0  0  0  0  0  0  0  0  0
   14.6155   -7.3294   18.9245 S   0  0  2  0  0  0  0  0  0  0  0  0
   16.0175   -8.3082   19.5035 C   0  0  0  0  0  0  0  0  0  0  0  0
   13.2584   -8.3552   19.5367 C   0  0  0  0  0  0  0  0  0  0  0  0
   12.9579   -8.0438   20.9913 C   0  0  1  0  0  0  0  0  0  0  0  0
   12.3667   -6.7704   21.1145 O   0  0  0  0  0  0  0  0  0  0  0  0
   11.9570   -9.0046   21.6025 C   0  0  1  0  0  0  0  0  0  0  0  0
   12.6657  -10.0497   22.2195 O   0  0  0  0  0  0  0  0  0  0  0  0
   11.2329   -8.1570   22.6287 C   0  0  1  0  0  0  0  0  0  0  0  0
   11.7954   -8.4492   23.8881 O   0  0  0  0  0  0  0  0  0  0  0  0
   11.5060   -6.7030   22.2378 C   0  0  2  0  0  0  0  0  0  0  0  0
   15.5100   -7.9389   13.7821 O   0  0  0  0  0  0  0  0  0  0  0  0
    6.5927   -7.4567   20.5917 N   0  0  0  0  0  0  0  0  0  0  0  0
    7.5026   -8.4050   20.9917 C   0  0  0  0  0  0  0  0  0  0  0  0
    8.7587   -8.0062   21.3928 N   0  0  0  0  0  0  0  0  0  0  0  0
    9.1081   -6.7003   21.4016 C   0  0  0  0  0  0  0  0  0  0  0  0
    8.1955   -5.7301   21.0137 C   0  0  0  0  0  0  0  0  0  0  0  0
    6.9245   -6.1185   20.5956 C   0  0  0  0  0  0  0  0  0  0  0  0
    6.0219   -5.2165   20.2091 N   0  0  0  0  0  0  0  0  0  0  0  0
    8.8002   -4.5194   21.1266 N   0  0  0  0  0  0  0  0  0  0  0  0
   10.0563   -4.7153   21.5897 C   0  0  0  0  0  0  0  0  0  0  0  0
   10.2607   -6.0608   21.7722 N   0  0  0  0  0  0  0  0  0  0  0  0
  2  1  1  1  0  0  0
  2  3  1  0  0  0  0
  2  5  1  0  0  0  0
  3  4  1  0  0  0  0
  3 17  1  0  0  0  0
  5  6  1  0  0  0  0
  7  6  1  6  0  0  0
  7  8  1  0  0  0  0
  7  9  1  0  0  0  0
 10  9  1  6  0  0  0
 10 11  1  0  0  0  0
 10 12  1  0  0  0  0
 11 16  1  0  0  0  0
 12 13  1  1  0  0  0
 12 14  1  0  0  0  0
 14 15  1  1  0  0  0
 14 16  1  0  0  0  0
 16 27  1  6  0  0  0
 18 19  2  0  0  0  0
 18 23  1  0  0  0  0
 19 20  1  0  0  0  0
 20 21  2  0  0  0  0
 21 22  1  0  0  0  0
 21 27  1  0  0  0  0
 22 23  2  0  0  0  0
 22 25  1  0  0  0  0
 23 24  1  0  0  0  0
 25 26  2  0  0  0  0
 26 27  1  0  0  0  0
M  END
>  <CHROM.1>
168.01695952,66.82285227,-177.31737714,-179.27968268,-174.21115333,70.35777036
97.95638898,11.75930364,-7.30628867,19.52211995,0.72108589,0.33358107,-1.34111193

>  <Name>
ligand

>  <RI>
0

>  <Rbt.Current_Directory>
/home/itssahil/PROJECTS/Mol_Feturizer/New_Systems/rnas/3GX5

>  <Rbt.Executable>
rbdock ($Id: //depot/dev/client3/rdock/2013.1/src/exe/rbdock.cxx#4 $)

>  <Rbt.Library>
libRbt.so (2013.1, Build901 2013/11/27)

>  <Rbt.Parameter_File>
/export/apps/rDock/src/rDock_2013.1_src/data/scripts/dock_solv.prm

>  <Rbt.Receptor>
prm/blind_docking_40.prm

>  <SCORE>
-13.1313

>  <SCORE.INTER>
-13.4642

>  <SCORE.INTER.CONST>
1

>  <SCORE.INTER.POLAR>
0

>  <SCORE.INTER.ROT>
7

>  <SCORE.INTER.SOLV>
8.37421

>  <SCORE.INTER.VDW>
-20.0342

>  <SCORE.INTER.norm>
-0.498675

>  <SCORE.INTRA>
0.332398

>  <SCORE.INTRA.DIHEDRAL>
0.541382

>  <SCORE.INTRA.DIHEDRAL.0>
4.28829

>  <SCORE.INTRA.POLAR>
0

>  <SCORE.INTRA.POLAR.0>
0

>  <SCORE.INTRA.REPUL>
0

>  <SCORE.INTRA.REPUL.0>
0

>  <SCORE.INTRA.SOLV>
-0.683526

>  <SCORE.INTRA.SOLV.lig_0>
-48.6018

>  <SCORE.INTRA.VDW>
0.40347

>  <SCORE.INTRA.VDW.0>
-2.1506

>  <SCORE.INTRA.norm>
0.012311

>  <SCORE.RESTR>
0.000531853

>  <SCORE.RESTR.CAVITY>
0.000531853

>  <SCORE.RESTR.norm>
1.96982e-05

>  <SCORE.SYSTEM>
0

>  <SCORE.SYSTEM.CONST>
0

>  <SCORE.SYSTEM.DIHEDRAL>
0

>  <SCORE.SYSTEM.SOLV>
0

>  <SCORE.SYSTEM.norm>
0

>  <SCORE.heavy>
27

>  <SCORE.norm>
-0.486344

>  <RMSD>
13.313

$$$$
ligand
 OpenBabel11021811483D
libRbt.so/2013.1/901 2013/11/27
 27 29  0  0  0  0  0  0  0  0999 V2000
   14.7173   -7.7692   14.6158 N   0  0  0  0  0  0  0  0  0  0  0  0
   14.6545   -8.5162   15.8736 C   0  0  2  0  0  0  0  0  0  0  0  0
   15.5326   -9.7677   15.9474 C   0  0  0  0  0  0  0  0  0  0  0  0
   16.5152   -9.7591   16.6877 O   0  0  0  0  0  0  0  0  0  0  0  0
   13.2172   -8.8505   16.2358 C   0  0  0  0  0  0  0  0  0  0  0  0
   13.1113   -9.4073   17.6451 C   0  0  0  0  0  0  0  0  0  0  0  0
   13.4942   -8.1357   18.8624 S   0  0  2  0  0  0  0  0  0  0  0  0
   15.2117   -8.5570   19.2254 C   0  0  0  0  0  0  0  0  0  0  0  0
   12.6970   -8.8318   20.3282 C   0  0  0  0  0  0  0  0  0  0  0  0
   12.6712   -7.8226   21.4612 C   0  0  1  0  0  0  0  0  0  0  0  0
   12.0839   -6.6140   21.0363 O   0  0  0  0  0  0  0  0  0  0  0  0
   11.8281   -8.2798   22.6353 C   0  0  1  0  0  0  0  0  0  0  0  0
   12.6660   -8.9343   23.5543 O   0  0  0  0  0  0  0  0  0  0  0  0
   11.2923   -6.9853   23.2126 C   0  0  1  0  0  0  0  0  0  0  0  0
   12.0909   -6.6597   24.3280 O   0  0  0  0  0  0  0  0  0  0  0  0
   11.4512   -5.9378   22.1085 C   0  0  2  0  0  0  0  0  0  0  0  0
   15.3035  -10.7878   15.2919 O   0  0  0  0  0  0  0  0  0  0  0  0
    8.5188   -1.9401   20.4240 N   0  0  0  0  0  0  0  0  0  0  0  0
    9.8399   -1.9168   20.8002 C   0  0  0  0  0  0  0  0  0  0  0  0
   10.4412   -3.0829   21.2200 N   0  0  0  0  0  0  0  0  0  0  0  0
    9.7549   -4.2467   21.2648 C   0  0  0  0  0  0  0  0  0  0  0  0
    8.4241   -4.2888   20.8749 C   0  0  0  0  0  0  0  0  0  0  0  0
    7.7991   -3.1155   20.4576 C   0  0  0  0  0  0  0  0  0  0  0  0
    6.5199   -3.1139   20.0814 N   0  0  0  0  0  0  0  0  0  0  0  0
    7.9898   -5.5683   21.0099 N   0  0  0  0  0  0  0  0  0  0  0  0
    9.0217   -6.3205   21.4571 C   0  0  0  0  0  0  0  0  0  0  0  0
   10.1250   -5.5180   21.6134 N   0  0  0  0  0  0  0  0  0  0  0  0
  2  1  1  6  0  0  0
  2  3  1  0  0  0  0
  2  5  1  0  0  0  0
  3  4  1  0  0  0  0
  3 17  1  0  0  0  0
  5  6  1  0  0  0  0
  7  6  1  6  0  0  0
  7  8  1  0  0  0  0
  7  9  1  0  0  0  0
 10  9  1  6  0  0  0
 10 11  1  0  0  0  0
 10 12  1  0  0  0  0
 11 16  1  0  0  0  0
 12 13  1  1  0  0  0
 12 14  1  0  0  0  0
 14 15  1  1  0  0  0
 14 16  1  0  0  0  0
 16 27  1  6  0  0  0
 18 19  2  0  0  0  0
 18 23  1  0  0  0  0
 19 20  1  0  0  0  0
 20 21  2  0  0  0  0
 21 22  1  0  0  0  0
 21 27  1  0  0  0  0
 22 23  2  0  0  0  0
 22 25  1  0  0  0  0
 23 24  1  0  0  0  0
 25 26  2  0  0  0  0
 26 27  1  0  0  0  0
M  END
>  <CHROM.1>
110.00508266,-170.08314135,68.04687148,-99.02712629,-170.24540230,53.78568426
-105.26869155,11.92442234,-6.85637933,19.86946684,0.40618170,0.80414705,-1.37369128

>  <Name>
ligand

>  <RI>
0

>  <Rbt.Current_Directory>
/home/itssahil/PROJECTS/Mol_Feturizer/New_Systems/rnas/3GX5

>  <Rbt.Executable>
rbdock ($Id: //depot/dev/client3/rdock/2013.1/src/exe/rbdock.cxx#4 $)

>  <Rbt.Library>
libRbt.so (2013.1, Build901 2013/11/27)

>  <Rbt.Parameter_File>
/export/apps/rDock/src/rDock_2013.1_src/data/scripts/dock_solv.prm

>  <Rbt.Receptor>
prm/blind_docking_40.prm

>  <SCORE>
-10.2727

>  <SCORE.INTER>
-11.0707

>  <SCORE.INTER.CONST>
1

>  <SCORE.INTER.POLAR>
0

>  <SCORE.INTER.ROT>
7

>  <SCORE.INTER.SOLV>
12.1555

>  <SCORE.INTER.VDW>
-19.699

>  <SCORE.INTER.norm>
-0.410027

>  <SCORE.INTRA>
0.798005

>  <SCORE.INTRA.DIHEDRAL>
2.96062

>  <SCORE.INTRA.DIHEDRAL.0>
4.28829

>  <SCORE.INTRA.POLAR>
0

>  <SCORE.INTRA.POLAR.0>
0

>  <SCORE.INTRA.REPUL>
0

>  <SCORE.INTRA.REPUL.0>
0

>  <SCORE.INTRA.SOLV>
-1.05527

>  <SCORE.INTRA.SOLV.lig_0>
-48.6018

>  <SCORE.INTRA.VDW>
-0.154671

>  <SCORE.INTRA.VDW.0>
-2.1506

>  <SCORE.INTRA.norm>
0.0295557

>  <SCORE.RESTR>
0

>  <SCORE.RESTR.CAVITY>
0

>  <SCORE.RESTR.norm>
0

>  <SCORE.SYSTEM>
0

>  <SCORE.SYSTEM.CONST>
0

>  <SCORE.SYSTEM.DIHEDRAL>
0

>  <SCORE.SYSTEM.SOLV>
0

>  <SCORE.SYSTEM.norm>
0

>  <SCORE.heavy>
27

>  <SCORE.norm>
-0.380471

>  <RMSD>
13.358

$$$$
ligand
 OpenBabel11021811483D
libRbt.so/2013.1/901 2013/11/27
 27 29  0  0  0  0  0  0  0  0999 V2000
   11.3666   -7.6012   15.3961 N   0  0  0  0  0  0  0  0  0  0  0  0
   12.2333   -7.3595   16.5511 C   0  0  2  0  0  0  0  0  0  0  0  0
   13.7049   -7.0859   16.2316 C   0  0  0  0  0  0  0  0  0  0  0  0
   14.4489   -6.7144   17.1383 O   0  0  0  0  0  0  0  0  0  0  0  0
   12.1076   -8.4808   17.5689 C   0  0  0  0  0  0  0  0  0  0  0  0
   10.8601   -8.3241   18.4213 C   0  0  0  0  0  0  0  0  0  0  0  0
   10.5906   -9.7916   19.4309 S   0  0  2  0  0  0  0  0  0  0  0  0
    9.5462  -10.7520   18.3147 C   0  0  0  0  0  0  0  0  0  0  0  0
    9.3289   -9.1795   20.5720 C   0  0  0  0  0  0  0  0  0  0  0  0
    9.9407   -8.2609   21.6136 C   0  0  1  0  0  0  0  0  0  0  0  0
   10.2876   -7.0212   21.0400 O   0  0  0  0  0  0  0  0  0  0  0  0
    8.9783   -7.9216   22.7348 C   0  0  1  0  0  0  0  0  0  0  0  0
    9.1712   -8.8427   23.7785 O   0  0  0  0  0  0  0  0  0  0  0  0
    9.3991   -6.5275   23.1536 C   0  0  1  0  0  0  0  0  0  0  0  0
   10.1943   -6.6580   24.3106 O   0  0  0  0  0  0  0  0  0  0  0  0
   10.2230   -5.9722   21.9899 C   0  0  2  0  0  0  0  0  0  0  0  0
   14.1814   -7.2156   15.1007 O   0  0  0  0  0  0  0  0  0  0  0  0
    6.4116   -4.6537   18.6503 N   0  0  0  0  0  0  0  0  0  0  0  0
    6.7901   -5.9148   19.0422 C   0  0  0  0  0  0  0  0  0  0  0  0
    7.8273   -6.0589   19.9373 N   0  0  0  0  0  0  0  0  0  0  0  0
    8.4744   -4.9823   20.4369 C   0  0  0  0  0  0  0  0  0  0  0  0
    8.0943   -3.7020   20.0613 C   0  0  0  0  0  0  0  0  0  0  0  0
    7.0539   -3.5403   19.1489 C   0  0  0  0  0  0  0  0  0  0  0  0
    6.6639   -2.3266   18.7583 N   0  0  0  0  0  0  0  0  0  0  0  0
    8.8963   -2.8205   20.7125 N   0  0  0  0  0  0  0  0  0  0  0  0
    9.7505   -3.5222   21.4927 C   0  0  0  0  0  0  0  0  0  0  0  0
    9.4975   -4.8631   21.3390 N   0  0  0  0  0  0  0  0  0  0  0  0
  2  1  1  6  0  0  0
  2  3  1  0  0  0  0
  2  5  1  0  0  0  0
  3  4  1  0  0  0  0
  3 17  1  0  0  0  0
  5  6  1  0  0  0  0
  7  6  1  6  0  0  0
  7  8  1  0  0  0  0
  7  9  1  0  0  0  0
 10  9  1  6  0  0  0
 10 11  1  0  0  0  0
 10 12  1  0  0  0  0
 11 16  1  0  0  0  0
 12 13  1  1  0  0  0
 12 14  1  0  0  0  0
 14 15  1  1  0  0  0
 14 16  1  0  0  0  0
 16 27  1  6  0  0  0
 18 19  2  0  0  0  0
 18 23  1  0  0  0  0
 19 20  1  0  0  0  0
 20 21  2  0  0  0  0
 21 22  1  0  0  0  0
 21 27  1  0  0  0  0
 22 23  2  0  0  0  0
 22 25  1  0  0  0  0
 23 24  1  0  0  0  0
 25 26  2  0  0  0  0
 26 27  1  0  0  0  0
M  END
>  <CHROM.1>
171.16848447,-79.52481212,170.86459977,-90.74383987,-75.25697755,72.93521898
34.12341261,9.95519680,-6.74865130,19.72527785,0.21775644,0.89161995,-0.85618707

>  <Name>
ligand

>  <RI>
0

>  <Rbt.Current_Directory>
/home/itssahil/PROJECTS/Mol_Feturizer/New_Systems/rnas/3GX5

>  <Rbt.Executable>
rbdock ($Id: //depot/dev/client3/rdock/2013.1/src/exe/rbdock.cxx#4 $)

>  <Rbt.Library>
libRbt.so (2013.1, Build901 2013/11/27)

>  <Rbt.Parameter_File>
/export/apps/rDock/src/rDock_2013.1_src/data/scripts/dock_solv.prm

>  <Rbt.Receptor>
prm/blind_docking_100.prm

>  <SCORE>
-6.76428

>  <SCORE.INTER>
-6.76666

>  <SCORE.INTER.CONST>
1

>  <SCORE.INTER.POLAR>
0

>  <SCORE.INTER.ROT>
7

>  <SCORE.INTER.SOLV>
12.0827

>  <SCORE.INTER.VDW>
-16.8054

>  <SCORE.INTER.norm>
-0.250617

>  <SCORE.INTRA>
0.00237843

>  <SCORE.INTRA.DIHEDRAL>
2.83218

>  <SCORE.INTRA.DIHEDRAL.0>
4.28829

>  <SCORE.INTRA.POLAR>
0

>  <SCORE.INTRA.POLAR.0>
0

>  <SCORE.INTRA.REPUL>
0

>  <SCORE.INTRA.REPUL.0>
0

>  <SCORE.INTRA.SOLV>
-0.549525

>  <SCORE.INTRA.SOLV.lig_0>
-48.6018

>  <SCORE.INTRA.VDW>
-1.13895

>  <SCORE.INTRA.VDW.0>
-2.1506

>  <SCORE.INTRA.norm>
8.80902e-05

>  <SCORE.RESTR>
0

>  <SCORE.RESTR.CAVITY>
0

>  <SCORE.RESTR.norm>
0

>  <SCORE.SYSTEM>
0

>  <SCORE.SYSTEM.CONST>
0

>  <SCORE.SYSTEM.DIHEDRAL>
0

>  <SCORE.SYSTEM.SOLV>
0

>  <SCORE.SYSTEM.norm>
0

>  <SCORE.heavy>
27

>  <SCORE.norm>
-0.250529

>  <RMSD>
13.411

$$$$
ligand
 OpenBabel11021811483D
libRbt.so/2013.1/901 2013/11/27
 27 29  0  0  0  0  0  0  0  0999 V2000
    8.8691   -1.6470   20.2645 N   0  0  0  0  0  0  0  0  0  0  0  0
    7.8189   -2.6188   20.5752 C   0  0  2  0  0  0  0  0  0  0  0  0
    6.3949   -2.2002   20.2011 C   0  0  0  0  0  0  0  0  0  0  0  0
    6.1708   -1.0156   19.9557 O   0  0  0  0  0  0  0  0  0  0  0  0
    7.8850   -3.0431   22.0327 C   0  0  0  0  0  0  0  0  0  0  0  0
    9.1840   -3.7654   22.3459 C   0  0  0  0  0  0  0  0  0  0  0  0
    9.1819   -5.4183   21.6296 S   0  0  2  0  0  0  0  0  0  0  0  0
    8.0596   -6.2528   22.7711 C   0  0  0  0  0  0  0  0  0  0  0  0
   10.7610   -6.0468   22.2462 C   0  0  0  0  0  0  0  0  0  0  0  0
   10.8258   -7.5584   22.1271 C   0  0  1  0  0  0  0  0  0  0  0  0
   10.7144   -7.9554   20.7794 O   0  0  0  0  0  0  0  0  0  0  0  0
   12.1493   -8.1280   22.5984 C   0  0  1  0  0  0  0  0  0  0  0  0
   12.0238   -8.4777   23.9537 O   0  0  0  0  0  0  0  0  0  0  0  0
   12.3343   -9.3581   21.7331 C   0  0  1  0  0  0  0  0  0  0  0  0
   11.9481  -10.4751   22.5019 O   0  0  0  0  0  0  0  0  0  0  0  0
   11.3970   -9.1731   20.5378 C   0  0  2  0  0  0  0  0  0  0  0  0
    5.4554   -2.9978   20.1391 O   0  0  0  0  0  0  0  0  0  0  0  0
   11.3948   -7.2825   15.6548 N   0  0  0  0  0  0  0  0  0  0  0  0
   10.3752   -7.2428   16.5745 C   0  0  0  0  0  0  0  0  0  0  0  0
   10.5687   -7.8014   17.8189 N   0  0  0  0  0  0  0  0  0  0  0  0
   11.7433   -8.3834   18.1491 C   0  0  0  0  0  0  0  0  0  0  0  0
   12.7869   -8.4187   17.2357 C   0  0  0  0  0  0  0  0  0  0  0  0
   12.6031   -7.8672   15.9695 C   0  0  0  0  0  0  0  0  0  0  0  0
   13.5796   -7.8874   15.0620 N   0  0  0  0  0  0  0  0  0  0  0  0
   13.8370   -9.0458   17.8258 N   0  0  0  0  0  0  0  0  0  0  0  0
   13.4749   -9.3837   19.0849 C   0  0  0  0  0  0  0  0  0  0  0  0
   12.1827   -8.9740   19.3036 N   0  0  0  0  0  0  0  0  0  0  0  0
  2  1  1  1  0  0  0
  2  3  1  0  0  0  0
  2  5  1  0  0  0  0
  3  4  1  0  0  0  0
  3 17  1  0  0  0  0
  5  6  1  0  0  0  0
  7  6  1  1  0  0  0
  7  8  1  0  0  0  0
  7  9  1  0  0  0  0
 10  9  1  6  0  0  0
 10 11  1  0  0  0  0
 10 12  1  0  0  0  0
 11 16  1  0  0  0  0
 12 13  1  1  0  0  0
 12 14  1  0  0  0  0
 14 15  1  1  0  0  0
 14 16  1  0  0  0  0
 16 27  1  6  0  0  0
 18 19  2  0  0  0  0
 18 23  1  0  0  0  0
 19 20  1  0  0  0  0
 20 21  2  0  0  0  0
 21 22  1  0  0  0  0
 21 27  1  0  0  0  0
 22 23  2  0  0  0  0
 22 25  1  0  0  0  0
 23 24  1  0  0  0  0
 25 26  2  0  0  0  0
 26 27  1  0  0  0  0
M  END
>  <CHROM.1>
-15.83920383,-63.64075093,-72.94054779,-74.71985941,163.34237427,61.07143993
-44.72042916,10.38120862,-6.51167914,20.13329939,3.04480835,-0.88441298,1.80332879

>  <Name>
ligand

>  <RI>
0

>  <Rbt.Current_Directory>
/home/itssahil/PROJECTS/Mol_Feturizer/New_Systems/rnas/3GX5

>  <Rbt.Executable>
rbdock ($Id: //depot/dev/client3/rdock/2013.1/src/exe/rbdock.cxx#4 $)

>  <Rbt.Library>
libRbt.so (2013.1, Build901 2013/11/27)

>  <Rbt.Parameter_File>
/export/apps/rDock/src/rDock_2013.1_src/data/scripts/dock_solv.prm

>  <Rbt.Receptor>
prm/blind_docking_100.prm

>  <SCORE>
-9.03325

>  <SCORE.INTER>
-9.49603

>  <SCORE.INTER.CONST>
1

>  <SCORE.INTER.POLAR>
0

>  <SCORE.INTER.ROT>
7

>  <SCORE.INTER.SOLV>
11.1181

>  <SCORE.INTER.VDW>
-18.3034

>  <SCORE.INTER.norm>
-0.351705

>  <SCORE.INTRA>
0.462783

>  <SCORE.INTRA.DIHEDRAL>
0.0483614

>  <SCORE.INTRA.DIHEDRAL.0>
4.28829

>  <SCORE.INTRA.POLAR>
0

>  <SCORE.INTRA.POLAR.0>
0

>  <SCORE.INTRA.REPUL>
0

>  <SCORE.INTRA.REPUL.0>
0

>  <SCORE.INTRA.SOLV>
-0.0928935

>  <SCORE.INTRA.SOLV.lig_0>
-48.6018

>  <SCORE.INTRA.VDW>
0.485049

>  <SCORE.INTRA.VDW.0>
-2.1506

>  <SCORE.INTRA.norm>
0.0171401

>  <SCORE.RESTR>
0

>  <SCORE.RESTR.CAVITY>
0

>  <SCORE.RESTR.norm>
0

>  <SCORE.SYSTEM>
0

>  <SCORE.SYSTEM.CONST>
0

>  <SCORE.SYSTEM.DIHEDRAL>
0

>  <SCORE.SYSTEM.SOLV>
0

>  <SCORE.SYSTEM.norm>
0

>  <SCORE.heavy>
27

>  <SCORE.norm>
-0.334565

>  <RMSD>
13.419

$$$$
ligand
 OpenBabel11021811483D
libRbt.so/2013.1/901 2013/11/27
 27 29  0  0  0  0  0  0  0  0999 V2000
    8.0702   -3.7096   19.9246 N   0  0  0  0  0  0  0  0  0  0  0  0
    8.1007   -2.6195   20.9016 C   0  0  2  0  0  0  0  0  0  0  0  0
    9.3167   -1.6931   20.8255 C   0  0  0  0  0  0  0  0  0  0  0  0
   10.4345   -2.1918   20.7011 O   0  0  0  0  0  0  0  0  0  0  0  0
    7.9218   -3.1506   22.3140 C   0  0  0  0  0  0  0  0  0  0  0  0
    9.1248   -3.9626   22.7620 C   0  0  0  0  0  0  0  0  0  0  0  0
    9.1447   -5.5713   21.9514 S   0  0  2  0  0  0  0  0  0  0  0  0
    7.9737   -6.4630   22.9968 C   0  0  0  0  0  0  0  0  0  0  0  0
   10.6949   -6.2447   22.5932 C   0  0  0  0  0  0  0  0  0  0  0  0
   10.7656   -7.7447   22.3737 C   0  0  1  0  0  0  0  0  0  0  0  0
   10.7873   -8.0445   20.9969 O   0  0  0  0  0  0  0  0  0  0  0  0
   12.0335   -8.3604   22.9319 C   0  0  1  0  0  0  0  0  0  0  0  0
   11.7726   -8.8034   24.2398 O   0  0  0  0  0  0  0  0  0  0  0  0
   12.2990   -9.5283   22.0038 C   0  0  1  0  0  0  0  0  0  0  0  0
   11.8341  -10.6925   22.6491 O   0  0  0  0  0  0  0  0  0  0  0  0
   11.4860   -9.2494   20.7378 C   0  0  2  0  0  0  0  0  0  0  0  0
    9.2289   -0.4639   20.8890 O   0  0  0  0  0  0  0  0  0  0  0  0
   11.8964   -7.3147   15.8895 N   0  0  0  0  0  0  0  0  0  0  0  0
   10.7764   -7.3702   16.6829 C   0  0  0  0  0  0  0  0  0  0  0  0
   10.8691   -7.9236   17.9411 N   0  0  0  0  0  0  0  0  0  0  0  0
   12.0419   -8.4086   18.4069 C   0  0  0  0  0  0  0  0  0  0  0  0
   13.1846   -8.3468   17.6226 C   0  0  0  0  0  0  0  0  0  0  0  0
   13.1045   -7.7994   16.3439 C   0  0  0  0  0  0  0  0  0  0  0  0
   14.1789   -7.7283   15.5575 N   0  0  0  0  0  0  0  0  0  0  0  0
   14.2075   -8.8898   18.3318 N   0  0  0  0  0  0  0  0  0  0  0  0
   13.7301   -9.2701   19.5394 C   0  0  0  0  0  0  0  0  0  0  0  0
   12.3912   -8.9723   19.6048 N   0  0  0  0  0  0  0  0  0  0  0  0
  2  1  1  6  0  0  0
  2  3  1  0  0  0  0
  2  5  1  0  0  0  0
  3  4  1  0  0  0  0
  3 17  1  0  0  0  0
  5  6  1  0  0  0  0
  7  6  1  1  0  0  0
  7  8  1  0  0  0  0
  7  9  1  0  0  0  0
 10  9  1  6  0  0  0
 10 11  1  0  0  0  0
 10 12  1  0  0  0  0
 11 16  1  0  0  0  0
 12 13  1  1  0  0  0
 12 14  1  0  0  0  0
 14 15  1  1  0  0  0
 14 16  1  0  0  0  0
 16 27  1  6  0  0  0
 18 19  2  0  0  0  0
 18 23  1  0  0  0  0
 19 20  1  0  0  0  0
 20 21  2  0  0  0  0
 21 22  1  0  0  0  0
 21 27  1  0  0  0  0
 22 23  2  0  0  0  0
 22 25  1  0  0  0  0
 23 24  1  0  0  0  0
 25 26  2  0  0  0  0
 26 27  1  0  0  0  0
M  END
>  <CHROM.1>
-44.89829226,68.64535977,-74.16310426,-81.24947250,164.04375709,64.23644180
-51.25743101,10.88374789,-6.59236090,20.45508107,-3.02372506,-1.01474000
2.18402544

>  <Name>
ligand

>  <RI>
0

>  <Rbt.Current_Directory>
/home/itssahil/PROJECTS/Mol_Feturizer/New_Systems/rnas/3GX5

>  <Rbt.Executable>
rbdock ($Id: //depot/dev/client3/rdock/2013.1/src/exe/rbdock.cxx#4 $)

>  <Rbt.Library>
libRbt.so (2013.1, Build901 2013/11/27)

>  <Rbt.Parameter_File>
/export/apps/rDock/src/rDock_2013.1_src/data/scripts/dock_solv.prm

>  <Rbt.Receptor>
prm/blind_docking_40.prm

>  <SCORE>
-7.72464

>  <SCORE.INTER>
-9.29127

>  <SCORE.INTER.CONST>
1

>  <SCORE.INTER.POLAR>
0

>  <SCORE.INTER.ROT>
7

>  <SCORE.INTER.SOLV>
12.2967

>  <SCORE.INTER.VDW>
-18.5597

>  <SCORE.INTER.norm>
-0.344121

>  <SCORE.INTRA>
1.56664

>  <SCORE.INTRA.DIHEDRAL>
0.706549

>  <SCORE.INTRA.DIHEDRAL.0>
4.28829

>  <SCORE.INTRA.POLAR>
0

>  <SCORE.INTRA.POLAR.0>
0

>  <SCORE.INTRA.REPUL>
0

>  <SCORE.INTRA.REPUL.0>
0

>  <SCORE.INTRA.SOLV>
1.22114

>  <SCORE.INTRA.SOLV.lig_0>
-48.6018

>  <SCORE.INTRA.VDW>
0.602791

>  <SCORE.INTRA.VDW.0>
-2.1506

>  <SCORE.INTRA.norm>
0.0580236

>  <SCORE.RESTR>
0

>  <SCORE.RESTR.CAVITY>
0

>  <SCORE.RESTR.norm>
0

>  <SCORE.SYSTEM>
0

>  <SCORE.SYSTEM.CONST>
0

>  <SCORE.SYSTEM.DIHEDRAL>
0

>  <SCORE.SYSTEM.SOLV>
0

>  <SCORE.SYSTEM.norm>
0

>  <SCORE.heavy>
27

>  <SCORE.norm>
-0.286098

>  <RMSD>
13.419

$$$$
ligand
 OpenBabel11021811483D
libRbt.so/2013.1/901 2013/11/27
 27 29  0  0  0  0  0  0  0  0999 V2000
   13.4903   -7.6893   16.4294 N   0  0  0  0  0  0  0  0  0  0  0  0
   14.6832   -8.5158   16.2348 C   0  0  2  0  0  0  0  0  0  0  0  0
   14.4393   -9.9036   15.6369 C   0  0  0  0  0  0  0  0  0  0  0  0
   13.2804  -10.2840   15.4757 O   0  0  0  0  0  0  0  0  0  0  0  0
   15.4863   -8.6221   17.5204 C   0  0  0  0  0  0  0  0  0  0  0  0
   14.6950   -9.3126   18.6178 C   0  0  0  0  0  0  0  0  0  0  0  0
   13.5223   -8.1716   19.3715 S   0  0  2  0  0  0  0  0  0  0  0  0
   14.6643   -7.0849   20.2513 C   0  0  0  0  0  0  0  0  0  0  0  0
   12.9318   -9.1727   20.7563 C   0  0  0  0  0  0  0  0  0  0  0  0
   11.7522   -8.5074   21.4411 C   0  0  1  0  0  0  0  0  0  0  0  0
   10.7183   -8.2565   20.5168 O   0  0  0  0  0  0  0  0  0  0  0  0
   11.1239   -9.3814   22.5086 C   0  0  1  0  0  0  0  0  0  0  0  0
   11.7147   -9.0659   23.7441 O   0  0  0  0  0  0  0  0  0  0  0  0
    9.6637   -8.9772   22.4839 C   0  0  1  0  0  0  0  0  0  0  0  0
    9.4572   -8.0811   23.5526 O   0  0  0  0  0  0  0  0  0  0  0  0
    9.4465   -8.2773   21.1406 C   0  0  2  0  0  0  0  0  0  0  0  0
   15.3548  -10.6648   15.3126 O   0  0  0  0  0  0  0  0  0  0  0  0
    9.2402  -11.7962   17.2685 N   0  0  0  0  0  0  0  0  0  0  0  0
   10.3572  -11.2557   17.8578 C   0  0  0  0  0  0  0  0  0  0  0  0
   10.2053  -10.3341   18.8704 N   0  0  0  0  0  0  0  0  0  0  0  0
    8.9783   -9.9567   19.2940 C   0  0  0  0  0  0  0  0  0  0  0  0
    7.8411  -10.5041   18.7181 C   0  0  0  0  0  0  0  0  0  0  0  0
    7.9783  -11.4297   17.6858 C   0  0  0  0  0  0  0  0  0  0  0  0
    6.9095  -11.9732   17.1026 N   0  0  0  0  0  0  0  0  0  0  0  0
    6.7589   -9.9608   19.3329 N   0  0  0  0  0  0  0  0  0  0  0  0
    7.1982   -9.1049   20.2843 C   0  0  0  0  0  0  0  0  0  0  0  0
    8.5713   -9.0960   20.2781 N   0  0  0  0  0  0  0  0  0  0  0  0
  2  1  1  1  0  0  0
  2  3  1  0  0  0  0
  2  5  1  0  0  0  0
  3  4  1  0  0  0  0
  3 17  1  0  0  0  0
  5  6  1  0  0  0  0
  7  6  1  6  0  0  0
  7  8  1  0  0  0  0
  7  9  1  0  0  0  0
 10  9  1  6  0  0  0
 10 11  1  0  0  0  0
 10 12  1  0  0  0  0
 11 16  1  0  0  0  0
 12 13  1  1  0  0  0
 12 14  1  0  0  0  0
 14 15  1  1  0  0  0
 14 16  1  0  0  0  0
 16 27  1  6  0  0  0
 18 19  2  0  0  0  0
 18 23  1  0  0  0  0
 19 20  1  0  0  0  0
 20 21  2  0  0  0  0
 21 22  1  0  0  0  0
 21 27  1  0  0  0  0
 22 23  2  0  0  0  0
 22 25  1  0  0  0  0
 23 24  1  0  0  0  0
 25 26  2  0  0  0  0
 26 27  1  0  0  0  0
M  END
>  <CHROM.1>
-6.58687500,62.92796015,-79.11004540,-70.18552787,-171.07787117,56.15356605
16.32279301,11.32211579,-9.36944398,19.20786581,0.47565985,-0.29624541,-1.94733928

>  <Name>
ligand

>  <RI>
0

>  <Rbt.Current_Directory>
/home/itssahil/PROJECTS/Mol_Feturizer/New_Systems/rnas/3GX5

>  <Rbt.Executable>
rbdock ($Id: //depot/dev/client3/rdock/2013.1/src/exe/rbdock.cxx#4 $)

>  <Rbt.Library>
libRbt.so (2013.1, Build901 2013/11/27)

>  <Rbt.Parameter_File>
/export/apps/rDock/src/rDock_2013.1_src/data/scripts/dock_solv.prm

>  <Rbt.Receptor>
prm/blind_docking_60.prm

>  <SCORE>
-12.4101

>  <SCORE.INTER>
-13.3209

>  <SCORE.INTER.CONST>
1

>  <SCORE.INTER.POLAR>
0

>  <SCORE.INTER.ROT>
7

>  <SCORE.INTER.SOLV>
9.97204

>  <SCORE.INTER.VDW>
-20.4713

>  <SCORE.INTER.norm>
-0.493366

>  <SCORE.INTRA>
0.910801

>  <SCORE.INTRA.DIHEDRAL>
1.42323

>  <SCORE.INTRA.DIHEDRAL.0>
4.28829

>  <SCORE.INTRA.POLAR>
0

>  <SCORE.INTRA.POLAR.0>
0

>  <SCORE.INTRA.REPUL>
0

>  <SCORE.INTRA.REPUL.0>
0

>  <SCORE.INTRA.SOLV>
1.26639

>  <SCORE.INTRA.SOLV.lig_0>
-48.6018

>  <SCORE.INTRA.VDW>
-0.434006

>  <SCORE.INTRA.VDW.0>
-2.1506

>  <SCORE.INTRA.norm>
0.0337334

>  <SCORE.RESTR>
0

>  <SCORE.RESTR.CAVITY>
0

>  <SCORE.RESTR.norm>
0

>  <SCORE.SYSTEM>
0

>  <SCORE.SYSTEM.CONST>
0

>  <SCORE.SYSTEM.DIHEDRAL>
0

>  <SCORE.SYSTEM.SOLV>
0

>  <SCORE.SYSTEM.norm>
0

>  <SCORE.heavy>
27

>  <SCORE.norm>
-0.459633

>  <RMSD>
13.424

$$$$
ligand
 OpenBabel11021811483D
libRbt.so/2013.1/901 2013/11/27
 27 29  0  0  0  0  0  0  0  0999 V2000
   14.2717   -7.3679   14.1165 N   0  0  0  0  0  0  0  0  0  0  0  0
   13.1578   -7.8244   14.9499 C   0  0  2  0  0  0  0  0  0  0  0  0
   11.7578   -7.5605   14.3902 C   0  0  0  0  0  0  0  0  0  0  0  0
   10.7871   -7.6972   15.1336 O   0  0  0  0  0  0  0  0  0  0  0  0
   13.2786   -7.2809   16.3637 C   0  0  0  0  0  0  0  0  0  0  0  0
   14.4925   -7.8488   17.0787 C   0  0  0  0  0  0  0  0  0  0  0  0
   14.4973   -7.3589   18.8122 S   0  0  2  0  0  0  0  0  0  0  0  0
   16.0111   -8.1736   19.3635 C   0  0  0  0  0  0  0  0  0  0  0  0
   13.2745   -8.5093   19.4832 C   0  0  0  0  0  0  0  0  0  0  0  0
   13.0229   -8.2347   20.9544 C   0  0  1  0  0  0  0  0  0  0  0  0
   12.3844   -6.9899   21.1250 O   0  0  0  0  0  0  0  0  0  0  0  0
   12.0901   -9.2472   21.5892 C   0  0  1  0  0  0  0  0  0  0  0  0
   12.8675  -10.2708   22.1573 O   0  0  0  0  0  0  0  0  0  0  0  0
   11.3749   -8.4480   22.6597 C   0  0  1  0  0  0  0  0  0  0  0  0
   12.0020   -8.7363   23.8892 O   0  0  0  0  0  0  0  0  0  0  0  0
   11.5699   -6.9776   22.2840 C   0  0  2  0  0  0  0  0  0  0  0  0
   11.5556   -7.2208   13.2212 O   0  0  0  0  0  0  0  0  0  0  0  0
    6.6594   -7.9150   20.7264 N   0  0  0  0  0  0  0  0  0  0  0  0
    7.6286   -8.8311   21.0560 C   0  0  0  0  0  0  0  0  0  0  0  0
    8.8726   -8.3849   21.4447 N   0  0  0  0  0  0  0  0  0  0  0  0
    9.1529   -7.0639   21.5095 C   0  0  0  0  0  0  0  0  0  0  0  0
    8.1802   -6.1268   21.1931 C   0  0  0  0  0  0  0  0  0  0  0  0
    6.9202   -6.5626   20.7883 C   0  0  0  0  0  0  0  0  0  0  0  0
    5.9611   -5.6930   20.4696 N   0  0  0  0  0  0  0  0  0  0  0  0
    8.7231   -4.8921   21.3506 N   0  0  0  0  0  0  0  0  0  0  0  0
   10.0002   -5.0420   21.7717 C   0  0  0  0  0  0  0  0  0  0  0  0
   10.2801   -6.3818   21.8822 N   0  0  0  0  0  0  0  0  0  0  0  0
  2  1  1  6  0  0  0
  2  3  1  0  0  0  0
  2  5  1  0  0  0  0
  3  4  1  0  0  0  0
  3 17  1  0  0  0  0
  5  6  1  0  0  0  0
  7  6  1  6  0  0  0
  7  8  1  0  0  0  0
  7  9  1  0  0  0  0
 10  9  1  6  0  0  0
 10 11  1  0  0  0  0
 10 12  1  0  0  0  0
 11 16  1  0  0  0  0
 12 13  1  1  0  0  0
 12 14  1  0  0  0  0
 14 15  1  1  0  0  0
 14 16  1  0  0  0  0
 16 27  1  6  0  0  0
 18 19  2  0  0  0  0
 18 23  1  0  0  0  0
 19 20  1  0  0  0  0
 20 21  2  0  0  0  0
 21 22  1  0  0  0  0
 21 27  1  0  0  0  0
 22 23  2  0  0  0  0
 22 25  1  0  0  0  0
 23 24  1  0  0  0  0
 25 26  2  0  0  0  0
 26 27  1  0  0  0  0
M  END
>  <CHROM.1>
-167.17243940,-65.86840189,-172.71533862,179.74089540,-176.28104674,67.37683791
95.83776731,11.38169276,-7.52907744,19.54311518,0.90967737,0.24816461,-1.45497469

>  <Name>
ligand

>  <RI>
0

>  <Rbt.Current_Directory>
/home/itssahil/PROJECTS/Mol_Feturizer/New_Systems/rnas/3GX5

>  <Rbt.Executable>
rbdock ($Id: //depot/dev/client3/rdock/2013.1/src/exe/rbdock.cxx#4 $)

>  <Rbt.Library>
libRbt.so (2013.1, Build901 2013/11/27)

>  <Rbt.Parameter_File>
/export/apps/rDock/src/rDock_2013.1_src/data/scripts/dock_solv.prm

>  <Rbt.Receptor>
prm/blind_docking_80.prm

>  <SCORE>
-12.3626

>  <SCORE.INTER>
-12.7365

>  <SCORE.INTER.CONST>
1

>  <SCORE.INTER.POLAR>
0

>  <SCORE.INTER.ROT>
7

>  <SCORE.INTER.SOLV>
9.39303

>  <SCORE.INTER.VDW>
-19.8887

>  <SCORE.INTER.norm>
-0.471723

>  <SCORE.INTRA>
0.373953

>  <SCORE.INTRA.DIHEDRAL>
0.320853

>  <SCORE.INTRA.DIHEDRAL.0>
4.28829

>  <SCORE.INTRA.POLAR>
0

>  <SCORE.INTRA.POLAR.0>
0

>  <SCORE.INTRA.REPUL>
0

>  <SCORE.INTRA.REPUL.0>
0

>  <SCORE.INTRA.SOLV>
-0.661775

>  <SCORE.INTRA.SOLV.lig_0>
-48.6018

>  <SCORE.INTRA.VDW>
0.544415

>  <SCORE.INTRA.VDW.0>
-2.1506

>  <SCORE.INTRA.norm>
0.0138501

>  <SCORE.RESTR>
0

>  <SCORE.RESTR.CAVITY>
0

>  <SCORE.RESTR.norm>
0

>  <SCORE.SYSTEM>
0

>  <SCORE.SYSTEM.CONST>
0

>  <SCORE.SYSTEM.DIHEDRAL>
0

>  <SCORE.SYSTEM.SOLV>
0

>  <SCORE.SYSTEM.norm>
0

>  <SCORE.heavy>
27

>  <SCORE.norm>
-0.457873

>  <RMSD>
13.454

$$$$
ligand
 OpenBabel11021811483D
libRbt.so/2013.1/901 2013/11/27
 27 29  0  0  0  0  0  0  0  0999 V2000
    6.4160  -11.5665   17.4675 N   0  0  0  0  0  0  0  0  0  0  0  0
    7.7703  -11.8454   16.9857 C   0  0  2  0  0  0  0  0  0  0  0  0
    8.4300  -13.1055   17.5511 C   0  0  0  0  0  0  0  0  0  0  0  0
    7.7226  -14.0770   17.8151 O   0  0  0  0  0  0  0  0  0  0  0  0
    8.6739  -10.6387   17.1758 C   0  0  0  0  0  0  0  0  0  0  0  0
    9.8084  -10.6258   16.1658 C   0  0  0  0  0  0  0  0  0  0  0  0
   10.8904   -9.2121   16.4418 S   0  0  2  0  0  0  0  0  0  0  0  0
   11.9699   -9.3585   15.0022 C   0  0  0  0  0  0  0  0  0  0  0  0
   11.9895   -9.8812   17.7118 C   0  0  0  0  0  0  0  0  0  0  0  0
   12.9932   -8.8367   18.1643 C   0  0  1  0  0  0  0  0  0  0  0  0
   12.3445   -7.7872   18.8455 O   0  0  0  0  0  0  0  0  0  0  0  0
   14.0042   -9.3837   19.1528 C   0  0  1  0  0  0  0  0  0  0  0  0
   15.1341   -9.8159   18.4376 O   0  0  0  0  0  0  0  0  0  0  0  0
   14.3340   -8.1868   20.0215 C   0  0  1  0  0  0  0  0  0  0  0  0
   15.5555   -7.6555   19.5594 O   0  0  0  0  0  0  0  0  0  0  0  0
   13.1940   -7.1886   19.8083 C   0  0  2  0  0  0  0  0  0  0  0  0
    9.6430  -13.1915   17.7607 O   0  0  0  0  0  0  0  0  0  0  0  0
   10.4823   -9.7152   23.5071 N   0  0  0  0  0  0  0  0  0  0  0  0
   11.1582  -10.2555   22.4402 C   0  0  0  0  0  0  0  0  0  0  0  0
   11.8169   -9.4185   21.5665 N   0  0  0  0  0  0  0  0  0  0  0  0
   11.8111   -8.0783   21.7436 C   0  0  0  0  0  0  0  0  0  0  0  0
   11.1447   -7.5190   22.8242 C   0  0  0  0  0  0  0  0  0  0  0  0
   10.4652   -8.3517   23.7108 C   0  0  0  0  0  0  0  0  0  0  0  0
    9.8076   -7.8517   24.7573 N   0  0  0  0  0  0  0  0  0  0  0  0
   11.3078   -6.1722   22.7636 N   0  0  0  0  0  0  0  0  0  0  0  0
   12.0710   -5.8865   21.6836 C   0  0  0  0  0  0  0  0  0  0  0  0
   12.3974   -7.0573   21.0445 N   0  0  0  0  0  0  0  0  0  0  0  0
  2  1  1  1  0  0  0
  2  3  1  0  0  0  0
  2  5  1  0  0  0  0
  3  4  1  0  0  0  0
  3 17  1  0  0  0  0
  5  6  1  0  0  0  0
  7  6  1  6  0  0  0
  7  8  1  0  0  0  0
  7  9  1  0  0  0  0
 10  9  1  1  0  0  0
 10 11  1  0  0  0  0
 10 12  1  0  0  0  0
 11 16  1  0  0  0  0
 12 13  1  6  0  0  0
 12 14  1  0  0  0  0
 14 15  1  6  0  0  0
 14 16  1  0  0  0  0
 16 27  1  1  0  0  0
 18 19  2  0  0  0  0
 18 23  1  0  0  0  0
 19 20  1  0  0  0  0
 20 21  2  0  0  0  0
 21 22  1  0  0  0  0
 21 27  1  0  0  0  0
 22 23  2  0  0  0  0
 22 25  1  0  0  0  0
 23 24  1  0  0  0  0
 25 26  2  0  0  0  0
 26 27  1  0  0  0  0
M  END
>  <CHROM.1>
33.17471064,-153.38779519,-178.40266218,-173.21509541,-177.95546774,67.00718082
59.47589687,11.23849883,-9.39907176,19.39216965,2.15189453,-0.55451345,-1.93450242

>  <Name>
ligand

>  <RI>
0

>  <Rbt.Current_Directory>
/home/itssahil/PROJECTS/Mol_Feturizer/New_Systems/rnas/3GX5

>  <Rbt.Executable>
rbdock ($Id: //depot/dev/client3/rdock/2013.1/src/exe/rbdock.cxx#4 $)

>  <Rbt.Library>
libRbt.so (2013.1, Build901 2013/11/27)

>  <Rbt.Parameter_File>
/export/apps/rDock/src/rDock_2013.1_src/data/scripts/dock_solv.prm

>  <Rbt.Receptor>
prm/blind_docking_100.prm

>  <SCORE>
-10.3248

>  <SCORE.INTER>
-10.5069

>  <SCORE.INTER.CONST>
1

>  <SCORE.INTER.POLAR>
0

>  <SCORE.INTER.ROT>
7

>  <SCORE.INTER.SOLV>
12.9895

>  <SCORE.INTER.VDW>
-19.6011

>  <SCORE.INTER.norm>
-0.389144

>  <SCORE.INTRA>
0.170739

>  <SCORE.INTRA.DIHEDRAL>
2.51442

>  <SCORE.INTRA.DIHEDRAL.0>
4.28829

>  <SCORE.INTRA.POLAR>
0

>  <SCORE.INTRA.POLAR.0>
0

>  <SCORE.INTRA.REPUL>
0

>  <SCORE.INTRA.REPUL.0>
0

>  <SCORE.INTRA.SOLV>
-1.22293

>  <SCORE.INTRA.SOLV.lig_0>
-48.6018

>  <SCORE.INTRA.VDW>
-0.475006

>  <SCORE.INTRA.VDW.0>
-2.1506

>  <SCORE.INTRA.norm>
0.00632367

>  <SCORE.RESTR>
0.0113639

>  <SCORE.RESTR.CAVITY>
0.0113639

>  <SCORE.RESTR.norm>
0.000420884

>  <SCORE.SYSTEM>
0

>  <SCORE.SYSTEM.CONST>
0

>  <SCORE.SYSTEM.DIHEDRAL>
0

>  <SCORE.SYSTEM.SOLV>
0

>  <SCORE.SYSTEM.norm>
0

>  <SCORE.heavy>
27

>  <SCORE.norm>
-0.382399

>  <RMSD>
13.483

$$$$
ligand
 OpenBabel11021811483D
libRbt.so/2013.1/901 2013/11/27
 27 29  0  0  0  0  0  0  0  0999 V2000
    6.3645   -6.4864   20.8397 N   0  0  0  0  0  0  0  0  0  0  0  0
    7.0095   -7.7394   20.4423 C   0  0  2  0  0  0  0  0  0  0  0  0
    6.0677   -8.8526   19.9769 C   0  0  0  0  0  0  0  0  0  0  0  0
    6.5433   -9.8251   19.3923 O   0  0  0  0  0  0  0  0  0  0  0  0
    7.9344   -8.2453   21.5366 C   0  0  0  0  0  0  0  0  0  0  0  0
    9.2045   -7.4166   21.6219 C   0  0  0  0  0  0  0  0  0  0  0  0
   10.2905   -8.0470   22.9136 S   0  0  2  0  0  0  0  0  0  0  0  0
    9.6996   -7.0798   24.3188 C   0  0  0  0  0  0  0  0  0  0  0  0
   11.8087   -7.1391   22.5401 C   0  0  0  0  0  0  0  0  0  0  0  0
   12.2721   -7.4192   21.1224 C   0  0  1  0  0  0  0  0  0  0  0  0
   13.3083   -6.5372   20.7554 O   0  0  0  0  0  0  0  0  0  0  0  0
   12.8593   -8.8074   20.9604 C   0  0  1  0  0  0  0  0  0  0  0  0
   11.8358   -9.6758   20.5441 O   0  0  0  0  0  0  0  0  0  0  0  0
   13.8982   -8.6282   19.8720 C   0  0  1  0  0  0  0  0  0  0  0  0
   13.3258   -9.0807   18.6655 O   0  0  0  0  0  0  0  0  0  0  0  0
   14.1809   -7.1258   19.8072 C   0  0  2  0  0  0  0  0  0  0  0  0
    4.8474   -8.8179   20.1565 O   0  0  0  0  0  0  0  0  0  0  0  0
   19.2483   -8.3638   19.3523 N   0  0  0  0  0  0  0  0  0  0  0  0
   18.1869   -8.8861   18.6538 C   0  0  0  0  0  0  0  0  0  0  0  0
   16.9151   -8.4284   18.9197 N   0  0  0  0  0  0  0  0  0  0  0  0
   16.6960   -7.4742   19.8520 C   0  0  0  0  0  0  0  0  0  0  0  0
   17.7593   -6.9273   20.5555 C   0  0  0  0  0  0  0  0  0  0  0  0
   19.0505   -7.3873   20.3052 C   0  0  0  0  0  0  0  0  0  0  0  0
   20.0974   -6.8913   20.9653 N   0  0  0  0  0  0  0  0  0  0  0  0
   17.2602   -5.9972   21.4100 N   0  0  0  0  0  0  0  0  0  0  0  0
   15.9189   -5.9438   21.2408 C   0  0  0  0  0  0  0  0  0  0  0  0
   15.5539   -6.8478   20.2738 N   0  0  0  0  0  0  0  0  0  0  0  0
  2  1  1  1  0  0  0
  2  3  1  0  0  0  0
  2  5  1  0  0  0  0
  3  4  1  0  0  0  0
  3 17  1  0  0  0  0
  5  6  1  0  0  0  0
  7  6  1  6  0  0  0
  7  8  1  0  0  0  0
  7  9  1  0  0  0  0
 10  9  1  1  0  0  0
 10 11  1  0  0  0  0
 10 12  1  0  0  0  0
 11 16  1  0  0  0  0
 12 13  1  6  0  0  0
 12 14  1  0  0  0  0
 14 15  1  6  0  0  0
 14 16  1  0  0  0  0
 16 27  1  1  0  0  0
 18 19  2  0  0  0  0
 18 23  1  0  0  0  0
 19 20  1  0  0  0  0
 20 21  2  0  0  0  0
 21 22  1  0  0  0  0
 21 27  1  0  0  0  0
 22 23  2  0  0  0  0
 22 25  1  0  0  0  0
 23 24  1  0  0  0  0
 25 26  2  0  0  0  0
 26 27  1  0  0  0  0
M  END
>  <CHROM.1>
166.15993909,-73.59105561,-179.40316495,-90.06274433,-58.03601031,169.53598756
163.87014654,12.61741054,-7.82066743,20.74511317,-3.10865575,-0.10928990
-2.13043537

>  <Name>
ligand

>  <RI>
0

>  <Rbt.Current_Directory>
/home/itssahil/PROJECTS/Mol_Feturizer/New_Systems/rnas/3GX5

>  <Rbt.Executable>
rbdock ($Id: //depot/dev/client3/rdock/2013.1/src/exe/rbdock.cxx#4 $)

>  <Rbt.Library>
libRbt.so (2013.1, Build901 2013/11/27)

>  <Rbt.Parameter_File>
/export/apps/rDock/src/rDock_2013.1_src/data/scripts/dock_solv.prm

>  <Rbt.Receptor>
prm/blind_docking_60.prm

>  <SCORE>
-16.4056

>  <SCORE.INTER>
-16.9481

>  <SCORE.INTER.CONST>
1

>  <SCORE.INTER.POLAR>
0

>  <SCORE.INTER.ROT>
7

>  <SCORE.INTER.SOLV>
14.9123

>  <SCORE.INTER.VDW>
-24.5362

>  <SCORE.INTER.norm>
-0.627709

>  <SCORE.INTRA>
0.542521

>  <SCORE.INTRA.DIHEDRAL>
1.80221

>  <SCORE.INTRA.DIHEDRAL.0>
4.28829

>  <SCORE.INTRA.POLAR>
0

>  <SCORE.INTRA.POLAR.0>
0

>  <SCORE.INTRA.REPUL>
0

>  <SCORE.INTRA.REPUL.0>
0

>  <SCORE.INTRA.SOLV>
-0.418418

>  <SCORE.INTRA.SOLV.lig_0>
-48.6018

>  <SCORE.INTRA.VDW>
-0.149375

>  <SCORE.INTRA.VDW.0>
-2.1506

>  <SCORE.INTRA.norm>
0.0200934

>  <SCORE.RESTR>
0

>  <SCORE.RESTR.CAVITY>
0

>  <SCORE.RESTR.norm>
0

>  <SCORE.SYSTEM>
0

>  <SCORE.SYSTEM.CONST>
0

>  <SCORE.SYSTEM.DIHEDRAL>
0

>  <SCORE.SYSTEM.SOLV>
0

>  <SCORE.SYSTEM.norm>
0

>  <SCORE.heavy>
27

>  <SCORE.norm>
-0.607616

>  <RMSD>
13.505

$$$$
ligand
 OpenBabel11021811483D
libRbt.so/2013.1/901 2013/11/27
 27 29  0  0  0  0  0  0  0  0999 V2000
   14.2427   -9.5925   15.5682 N   0  0  0  0  0  0  0  0  0  0  0  0
   13.7724   -8.2575   15.9429 C   0  0  2  0  0  0  0  0  0  0  0  0
   14.5536   -7.5687   17.0645 C   0  0  0  0  0  0  0  0  0  0  0  0
   15.4366   -8.1989   17.6450 O   0  0  0  0  0  0  0  0  0  0  0  0
   12.2864   -8.2740   16.2596 C   0  0  0  0  0  0  0  0  0  0  0  0
   11.9924   -9.0705   17.5192 C   0  0  0  0  0  0  0  0  0  0  0  0
   10.2164   -9.1958   17.7932 S   0  0  2  0  0  0  0  0  0  0  0  0
   10.2005   -9.6502   19.5403 C   0  0  0  0  0  0  0  0  0  0  0  0
    9.8827  -10.8135   17.0581 C   0  0  0  0  0  0  0  0  0  0  0  0
    8.4269  -10.9308   16.6456 C   0  0  1  0  0  0  0  0  0  0  0  0
    8.2033  -12.1367   15.9514 O   0  0  0  0  0  0  0  0  0  0  0  0
    7.4829  -10.9767   17.8309 C   0  0  1  0  0  0  0  0  0  0  0  0
    7.0528   -9.6673   18.1059 O   0  0  0  0  0  0  0  0  0  0  0  0
    6.3356  -11.8348   17.3376 C   0  0  1  0  0  0  0  0  0  0  0  0
    5.2946  -10.9649   16.9534 O   0  0  0  0  0  0  0  0  0  0  0  0
    6.8761  -12.6001   16.1278 C   0  0  2  0  0  0  0  0  0  0  0  0
   14.3347   -6.4073   17.4194 O   0  0  0  0  0  0  0  0  0  0  0  0
    8.6017  -16.1893   19.5275 N   0  0  0  0  0  0  0  0  0  0  0  0
    8.6967  -14.8222   19.6241 C   0  0  0  0  0  0  0  0  0  0  0  0
    8.1786  -14.0383   18.6168 N   0  0  0  0  0  0  0  0  0  0  0  0
    7.5774  -14.5911   17.5395 C   0  0  0  0  0  0  0  0  0  0  0  0
    7.4615  -15.9696   17.4346 C   0  0  0  0  0  0  0  0  0  0  0  0
    7.9898  -16.7762   18.4404 C   0  0  0  0  0  0  0  0  0  0  0  0
    7.9041  -18.1050   18.3725 N   0  0  0  0  0  0  0  0  0  0  0  0
    6.8159  -16.2470   16.2725 N   0  0  0  0  0  0  0  0  0  0  0  0
    6.5155  -15.0758   15.6654 C   0  0  0  0  0  0  0  0  0  0  0  0
    6.9742  -14.0396   16.4410 N   0  0  0  0  0  0  0  0  0  0  0  0
  2  1  1  1  0  0  0
  2  3  1  0  0  0  0
  2  5  1  0  0  0  0
  3  4  1  0  0  0  0
  3 17  1  0  0  0  0
  5  6  1  0  0  0  0
  7  6  1  6  0  0  0
  7  8  1  0  0  0  0
  7  9  1  0  0  0  0
 10  9  1  1  0  0  0
 10 11  1  0  0  0  0
 10 12  1  0  0  0  0
 11 16  1  0  0  0  0
 12 13  1  6  0  0  0
 12 14  1  0  0  0  0
 14 15  1  6  0  0  0
 14 16  1  0  0  0  0
 16 27  1  1  0  0  0
 18 19  2  0  0  0  0
 18 23  1  0  0  0  0
 19 20  1  0  0  0  0
 20 21  2  0  0  0  0
 21 22  1  0  0  0  0
 21 27  1  0  0  0  0
 22 23  2  0  0  0  0
 22 25  1  0  0  0  0
 23 24  1  0  0  0  0
 25 26  2  0  0  0  0
 26 27  1  0  0  0  0
M  END
>  <CHROM.1>
-5.69802387,67.29309267,-175.06634549,-161.73580051,-156.86876470,174.00383082
63.17948938,9.46822217,-11.67551400,17.38036235,-0.85363209,0.08492796,3.00043921

>  <Name>
ligand

>  <RI>
0

>  <Rbt.Current_Directory>
/home/itssahil/PROJECTS/Mol_Feturizer/New_Systems/rnas/3GX5

>  <Rbt.Executable>
rbdock ($Id: //depot/dev/client3/rdock/2013.1/src/exe/rbdock.cxx#4 $)

>  <Rbt.Library>
libRbt.so (2013.1, Build901 2013/11/27)

>  <Rbt.Parameter_File>
/export/apps/rDock/src/rDock_2013.1_src/data/scripts/dock_solv.prm

>  <Rbt.Receptor>
prm/blind_docking_40.prm

>  <SCORE>
-12.8253

>  <SCORE.INTER>
-13.6808

>  <SCORE.INTER.CONST>
1

>  <SCORE.INTER.POLAR>
0

>  <SCORE.INTER.ROT>
7

>  <SCORE.INTER.SOLV>
12.4308

>  <SCORE.INTER.VDW>
-21.5308

>  <SCORE.INTER.norm>
-0.506698

>  <SCORE.INTRA>
0.855563

>  <SCORE.INTRA.DIHEDRAL>
3.73075

>  <SCORE.INTRA.DIHEDRAL.0>
4.28829

>  <SCORE.INTRA.POLAR>
0

>  <SCORE.INTRA.POLAR.0>
0

>  <SCORE.INTRA.REPUL>
0

>  <SCORE.INTRA.REPUL.0>
0

>  <SCORE.INTRA.SOLV>
-0.334329

>  <SCORE.INTRA.SOLV.lig_0>
-48.6018

>  <SCORE.INTRA.VDW>
-0.84265

>  <SCORE.INTRA.VDW.0>
-2.1506

>  <SCORE.INTRA.norm>
0.0316875

>  <SCORE.RESTR>
0

>  <SCORE.RESTR.CAVITY>
0

>  <SCORE.RESTR.norm>
0

>  <SCORE.SYSTEM>
0

>  <SCORE.SYSTEM.CONST>
0

>  <SCORE.SYSTEM.DIHEDRAL>
0

>  <SCORE.SYSTEM.SOLV>
0

>  <SCORE.SYSTEM.norm>
0

>  <SCORE.heavy>
27

>  <SCORE.norm>
-0.47501

>  <RMSD>
13.551

$$$$
ligand
 OpenBabel11021811483D
libRbt.so/2013.1/901 2013/11/27
 27 29  0  0  0  0  0  0  0  0999 V2000
   11.2170   -8.7008   18.5540 N   0  0  0  0  0  0  0  0  0  0  0  0
   11.6398   -8.8759   17.1632 C   0  0  2  0  0  0  0  0  0  0  0  0
   13.0166   -9.5138   16.9627 C   0  0  0  0  0  0  0  0  0  0  0  0
   13.8004   -9.5414   17.9106 O   0  0  0  0  0  0  0  0  0  0  0  0
   11.5407   -7.5678   16.3963 C   0  0  0  0  0  0  0  0  0  0  0  0
   10.1304   -7.0047   16.4322 C   0  0  0  0  0  0  0  0  0  0  0  0
    9.0062   -8.0424   15.4811 S   0  0  2  0  0  0  0  0  0  0  0  0
    7.7260   -6.8335   15.0826 C   0  0  0  0  0  0  0  0  0  0  0  0
    8.1733   -8.9347   16.8148 C   0  0  0  0  0  0  0  0  0  0  0  0
    7.2537  -10.0058   16.2578 C   0  0  1  0  0  0  0  0  0  0  0  0
    7.9244  -11.2426   16.1759 O   0  0  0  0  0  0  0  0  0  0  0  0
    6.0518  -10.2664   17.1443 C   0  0  1  0  0  0  0  0  0  0  0  0
    4.9904   -9.4594   16.7004 O   0  0  0  0  0  0  0  0  0  0  0  0
    5.7534  -11.7342   16.9147 C   0  0  1  0  0  0  0  0  0  0  0  0
    4.6863  -11.8077   15.9962 O   0  0  0  0  0  0  0  0  0  0  0  0
    7.0277  -12.3307   16.3134 C   0  0  2  0  0  0  0  0  0  0  0  0
   13.3813   -9.9990   15.8883 O   0  0  0  0  0  0  0  0  0  0  0  0
    7.5979  -17.3386   17.7325 N   0  0  0  0  0  0  0  0  0  0  0  0
    6.8898  -16.8400   16.6662 C   0  0  0  0  0  0  0  0  0  0  0  0
    6.8570  -15.4788   16.4569 N   0  0  0  0  0  0  0  0  0  0  0  0
    7.5110  -14.6289   17.2799 C   0  0  0  0  0  0  0  0  0  0  0  0
    8.2418  -15.1184   18.3527 C   0  0  0  0  0  0  0  0  0  0  0  0
    8.2761  -16.4921   18.5836 C   0  0  0  0  0  0  0  0  0  0  0  0
    8.9617  -17.0005   19.6078 N   0  0  0  0  0  0  0  0  0  0  0  0
    8.7962  -14.0599   18.9979 N   0  0  0  0  0  0  0  0  0  0  0  0
    8.4407  -12.9311   18.3422 C   0  0  0  0  0  0  0  0  0  0  0  0
    7.6500  -13.2667   17.2708 N   0  0  0  0  0  0  0  0  0  0  0  0
  2  1  1  1  0  0  0
  2  3  1  0  0  0  0
  2  5  1  0  0  0  0
  3  4  1  0  0  0  0
  3 17  1  0  0  0  0
  5  6  1  0  0  0  0
  7  6  1  1  0  0  0
  7  8  1  0  0  0  0
  7  9  1  0  0  0  0
 10  9  1  1  0  0  0
 10 11  1  0  0  0  0
 10 12  1  0  0  0  0
 11 16  1  0  0  0  0
 12 13  1  6  0  0  0
 12 14  1  0  0  0  0
 14 15  1  6  0  0  0
 14 16  1  0  0  0  0
 16 27  1  1  0  0  0
 18 19  2  0  0  0  0
 18 23  1  0  0  0  0
 19 20  1  0  0  0  0
 20 21  2  0  0  0  0
 21 22  1  0  0  0  0
 21 27  1  0  0  0  0
 22 23  2  0  0  0  0
 22 25  1  0  0  0  0
 23 24  1  0  0  0  0
 25 26  2  0  0  0  0
 26 27  1  0  0  0  0
M  END
>  <CHROM.1>
-17.21757152,-57.52219093,-68.50853537,-155.77261052,-173.94919360,92.97429765
-148.84511184,8.64742858,-11.38782728,16.98335005,-1.15836912,0.20008373
2.87608780

>  <Name>
ligand

>  <RI>
0

>  <Rbt.Current_Directory>
/home/itssahil/PROJECTS/Mol_Feturizer/New_Systems/rnas/3GX5

>  <Rbt.Executable>
rbdock ($Id: //depot/dev/client3/rdock/2013.1/src/exe/rbdock.cxx#4 $)

>  <Rbt.Library>
libRbt.so (2013.1, Build901 2013/11/27)

>  <Rbt.Parameter_File>
/export/apps/rDock/src/rDock_2013.1_src/data/scripts/dock_solv.prm

>  <Rbt.Receptor>
prm/blind_docking_60.prm

>  <SCORE>
-9.1618

>  <SCORE.INTER>
-11.7336

>  <SCORE.INTER.CONST>
1

>  <SCORE.INTER.POLAR>
0

>  <SCORE.INTER.ROT>
7

>  <SCORE.INTER.SOLV>
14.1163

>  <SCORE.INTER.VDW>
-20.7945

>  <SCORE.INTER.norm>
-0.434576

>  <SCORE.INTRA>
2.57176

>  <SCORE.INTRA.DIHEDRAL>
5.54221

>  <SCORE.INTRA.DIHEDRAL.0>
4.28829

>  <SCORE.INTRA.POLAR>
0

>  <SCORE.INTRA.POLAR.0>
0

>  <SCORE.INTRA.REPUL>
0

>  <SCORE.INTRA.REPUL.0>
0

>  <SCORE.INTRA.SOLV>
0.898925

>  <SCORE.INTRA.SOLV.lig_0>
-48.6018

>  <SCORE.INTRA.VDW>
-0.648809

>  <SCORE.INTRA.VDW.0>
-2.1506

>  <SCORE.INTRA.norm>
0.0952502

>  <SCORE.RESTR>
0

>  <SCORE.RESTR.CAVITY>
0

>  <SCORE.RESTR.norm>
0

>  <SCORE.SYSTEM>
0

>  <SCORE.SYSTEM.CONST>
0

>  <SCORE.SYSTEM.DIHEDRAL>
0

>  <SCORE.SYSTEM.SOLV>
0

>  <SCORE.SYSTEM.norm>
0

>  <SCORE.heavy>
27

>  <SCORE.norm>
-0.339326

>  <RMSD>
13.573

$$$$
ligand
 OpenBabel11021811483D
libRbt.so/2013.1/901 2013/11/27
 27 29  0  0  0  0  0  0  0  0999 V2000
    9.2731  -15.6462   20.9357 N   0  0  0  0  0  0  0  0  0  0  0  0
    8.1438  -15.3478   20.0529 C   0  0  2  0  0  0  0  0  0  0  0  0
    6.8101  -15.9916   20.4398 C   0  0  0  0  0  0  0  0  0  0  0  0
    6.8228  -17.0621   21.0460 O   0  0  0  0  0  0  0  0  0  0  0  0
    8.4876  -15.6604   18.6062 C   0  0  0  0  0  0  0  0  0  0  0  0
    7.4878  -15.0373   17.6472 C   0  0  0  0  0  0  0  0  0  0  0  0
    7.7151  -13.2523   17.5617 S   0  0  2  0  0  0  0  0  0  0  0  0
    6.3773  -12.8204   16.4290 C   0  0  0  0  0  0  0  0  0  0  0  0
    9.1169  -13.1526   16.4244 C   0  0  0  0  0  0  0  0  0  0  0  0
    9.3653  -11.7182   15.9957 C   0  0  1  0  0  0  0  0  0  0  0  0
    9.2813  -10.8480   17.1011 O   0  0  0  0  0  0  0  0  0  0  0  0
   10.7566  -11.5068   15.4317 C   0  0  1  0  0  0  0  0  0  0  0  0
   10.6976  -11.6632   14.0363 O   0  0  0  0  0  0  0  0  0  0  0  0
   11.0772  -10.0740   15.8063 C   0  0  1  0  0  0  0  0  0  0  0  0
   10.8443   -9.2788   14.6655 O   0  0  0  0  0  0  0  0  0  0  0  0
   10.1046   -9.7079   16.9294 C   0  0  2  0  0  0  0  0  0  0  0  0
    5.7174  -15.4878   20.1660 O   0  0  0  0  0  0  0  0  0  0  0  0
    9.7905   -9.6874   22.1562 N   0  0  0  0  0  0  0  0  0  0  0  0
    8.7896   -9.9495   21.2525 C   0  0  0  0  0  0  0  0  0  0  0  0
    9.0703   -9.9041   19.9046 N   0  0  0  0  0  0  0  0  0  0  0  0
   10.3120   -9.6095   19.4585 C   0  0  0  0  0  0  0  0  0  0  0  0
   11.3364   -9.3562   20.3592 C   0  0  0  0  0  0  0  0  0  0  0  0
   11.0656   -9.3882   21.7256 C   0  0  0  0  0  0  0  0  0  0  0  0
   12.0217   -9.1439   22.6221 N   0  0  0  0  0  0  0  0  0  0  0  0
   12.4644   -9.1010   19.6474 N   0  0  0  0  0  0  0  0  0  0  0  0
   12.1673   -9.2063   18.3316 C   0  0  0  0  0  0  0  0  0  0  0  0
   10.8391   -9.5280   18.1975 N   0  0  0  0  0  0  0  0  0  0  0  0
  2  1  1  1  0  0  0
  2  3  1  0  0  0  0
  2  5  1  0  0  0  0
  3  4  1  0  0  0  0
  3 17  1  0  0  0  0
  5  6  1  0  0  0  0
  7  6  1  6  0  0  0
  7  8  1  0  0  0  0
  7  9  1  0  0  0  0
 10  9  1  1  0  0  0
 10 11  1  0  0  0  0
 10 12  1  0  0  0  0
 11 16  1  0  0  0  0
 12 13  1  6  0  0  0
 12 14  1  0  0  0  0
 14 15  1  6  0  0  0
 14 16  1  0  0  0  0
 16 27  1  1  0  0  0
 18 19  2  0  0  0  0
 18 23  1  0  0  0  0
 19 20  1  0  0  0  0
 20 21  2  0  0  0  0
 21 22  1  0  0  0  0
 21 27  1  0  0  0  0
 22 23  2  0  0  0  0
 22 25  1  0  0  0  0
 23 24  1  0  0  0  0
 25 26  2  0  0  0  0
 26 27  1  0  0  0  0
M  END
>  <CHROM.1>
-28.89201217,-165.40042682,72.60628683,-177.88785213,170.37055149,43.77716118
-44.53417314,9.34497412,-11.95548991,18.51301777,-2.97354088,-0.99647745
-1.56153772

>  <Name>
ligand

>  <RI>
0

>  <Rbt.Current_Directory>
/home/itssahil/PROJECTS/Mol_Feturizer/New_Systems/rnas/3GX5

>  <Rbt.Executable>
rbdock ($Id: //depot/dev/client3/rdock/2013.1/src/exe/rbdock.cxx#4 $)

>  <Rbt.Library>
libRbt.so (2013.1, Build901 2013/11/27)

>  <Rbt.Parameter_File>
/export/apps/rDock/src/rDock_2013.1_src/data/scripts/dock_solv.prm

>  <Rbt.Receptor>
prm/blind_docking_40.prm

>  <SCORE>
-16.0119

>  <SCORE.INTER>
-16.4017

>  <SCORE.INTER.CONST>
1

>  <SCORE.INTER.POLAR>
0

>  <SCORE.INTER.ROT>
7

>  <SCORE.INTER.SOLV>
17.0828

>  <SCORE.INTER.VDW>
-24.8954

>  <SCORE.INTER.norm>
-0.607469

>  <SCORE.INTRA>
0.389756

>  <SCORE.INTRA.DIHEDRAL>
1.59887

>  <SCORE.INTRA.DIHEDRAL.0>
4.28829

>  <SCORE.INTRA.POLAR>
0

>  <SCORE.INTRA.POLAR.0>
0

>  <SCORE.INTRA.REPUL>
0

>  <SCORE.INTRA.REPUL.0>
0

>  <SCORE.INTRA.SOLV>
-0.993627

>  <SCORE.INTRA.SOLV.lig_0>
-48.6018

>  <SCORE.INTRA.VDW>
0.0871328

>  <SCORE.INTRA.VDW.0>
-2.1506

>  <SCORE.INTRA.norm>
0.0144354

>  <SCORE.RESTR>
0

>  <SCORE.RESTR.CAVITY>
0

>  <SCORE.RESTR.norm>
0

>  <SCORE.SYSTEM>
0

>  <SCORE.SYSTEM.CONST>
0

>  <SCORE.SYSTEM.DIHEDRAL>
0

>  <SCORE.SYSTEM.SOLV>
0

>  <SCORE.SYSTEM.norm>
0

>  <SCORE.heavy>
27

>  <SCORE.norm>
-0.593034

>  <RMSD>
13.587

$$$$
ligand
 OpenBabel11021811483D
libRbt.so/2013.1/901 2013/11/27
 27 29  0  0  0  0  0  0  0  0999 V2000
   14.7093   -9.1911   13.9584 N   0  0  0  0  0  0  0  0  0  0  0  0
   15.0675   -9.0420   15.3703 C   0  0  2  0  0  0  0  0  0  0  0  0
   16.3558   -9.7439   15.8064 C   0  0  0  0  0  0  0  0  0  0  0  0
   16.9096  -10.5092   15.0180 O   0  0  0  0  0  0  0  0  0  0  0  0
   13.9103   -9.4431   16.2698 C   0  0  0  0  0  0  0  0  0  0  0  0
   14.0284   -8.8122   17.6465 C   0  0  0  0  0  0  0  0  0  0  0  0
   12.5867   -9.2052   18.6526 S   0  0  2  0  0  0  0  0  0  0  0  0
   11.3125   -8.3137   17.7356 C   0  0  0  0  0  0  0  0  0  0  0  0
   12.8238   -8.0590   20.0305 C   0  0  0  0  0  0  0  0  0  0  0  0
   11.7308   -8.2281   21.0697 C   0  0  1  0  0  0  0  0  0  0  0  0
   10.4596   -8.0597   20.4851 O   0  0  0  0  0  0  0  0  0  0  0  0
   11.7062   -9.6180   21.6747 C   0  0  1  0  0  0  0  0  0  0  0  0
   12.4869   -9.6066   22.8432 O   0  0  0  0  0  0  0  0  0  0  0  0
   10.2425   -9.8375   21.9994 C   0  0  1  0  0  0  0  0  0  0  0  0
   10.0748   -9.5858   23.3765 O   0  0  0  0  0  0  0  0  0  0  0  0
    9.4708   -8.8138   21.1638 C   0  0  2  0  0  0  0  0  0  0  0  0
   16.8647   -9.5820   16.9188 O   0  0  0  0  0  0  0  0  0  0  0  0
    4.7413   -9.4135   18.9982 N   0  0  0  0  0  0  0  0  0  0  0  0
    5.0967   -8.5779   20.0290 C   0  0  0  0  0  0  0  0  0  0  0  0
    6.4036   -8.5632   20.4640 N   0  0  0  0  0  0  0  0  0  0  0  0
    7.3397   -9.3536   19.8925 C   0  0  0  0  0  0  0  0  0  0  0  0
    6.9990  -10.1925   18.8415 C   0  0  0  0  0  0  0  0  0  0  0  0
    5.6789  -10.2262   18.3970 C   0  0  0  0  0  0  0  0  0  0  0  0
    5.3109  -11.0238   17.3940 N   0  0  0  0  0  0  0  0  0  0  0  0
    8.1194  -10.8569   18.4575 N   0  0  0  0  0  0  0  0  0  0  0  0
    9.1462  -10.4381   19.2327 C   0  0  0  0  0  0  0  0  0  0  0  0
    8.6814   -9.5012   20.1225 N   0  0  0  0  0  0  0  0  0  0  0  0
  2  1  1  6  0  0  0
  2  3  1  0  0  0  0
  2  5  1  0  0  0  0
  3  4  1  0  0  0  0
  3 17  1  0  0  0  0
  5  6  1  0  0  0  0
  7  6  1  6  0  0  0
  7  8  1  0  0  0  0
  7  9  1  0  0  0  0
 10  9  1  6  0  0  0
 10 11  1  0  0  0  0
 10 12  1  0  0  0  0
 11 16  1  0  0  0  0
 12 13  1  1  0  0  0
 12 14  1  0  0  0  0
 14 15  1  1  0  0  0
 14 16  1  0  0  0  0
 16 27  1  6  0  0  0
 18 19  2  0  0  0  0
 18 23  1  0  0  0  0
 19 20  1  0  0  0  0
 20 21  2  0  0  0  0
 21 22  1  0  0  0  0
 21 27  1  0  0  0  0
 22 23  2  0  0  0  0
 22 25  1  0  0  0  0
 23 24  1  0  0  0  0
 25 26  2  0  0  0  0
 26 27  1  0  0  0  0
M  END
>  <CHROM.1>
-8.93136077,-157.74516867,175.88678189,-66.22723063,-178.18148286,-56.35235603
-119.31658801,10.89163450,-9.38250774,18.95103799,0.39684582,-0.06874380
-1.70078306

>  <Name>
ligand

>  <RI>
0

>  <Rbt.Current_Directory>
/home/itssahil/PROJECTS/Mol_Feturizer/New_Systems/rnas/3GX5

>  <Rbt.Executable>
rbdock ($Id: //depot/dev/client3/rdock/2013.1/src/exe/rbdock.cxx#4 $)

>  <Rbt.Library>
libRbt.so (2013.1, Build901 2013/11/27)

>  <Rbt.Parameter_File>
/export/apps/rDock/src/rDock_2013.1_src/data/scripts/dock_solv.prm

>  <Rbt.Receptor>
prm/blind_docking_80.prm

>  <SCORE>
-12.9968

>  <SCORE.INTER>
-13.3474

>  <SCORE.INTER.CONST>
1

>  <SCORE.INTER.POLAR>
0

>  <SCORE.INTER.ROT>
7

>  <SCORE.INTER.SOLV>
13.6667

>  <SCORE.INTER.VDW>
-21.7205

>  <SCORE.INTER.norm>
-0.494347

>  <SCORE.INTRA>
0.350517

>  <SCORE.INTRA.DIHEDRAL>
1.16869

>  <SCORE.INTRA.DIHEDRAL.0>
4.28829

>  <SCORE.INTRA.POLAR>
0

>  <SCORE.INTRA.POLAR.0>
0

>  <SCORE.INTRA.REPUL>
0

>  <SCORE.INTRA.REPUL.0>
0

>  <SCORE.INTRA.SOLV>
-1.01335

>  <SCORE.INTRA.SOLV.lig_0>
-48.6018

>  <SCORE.INTRA.VDW>
0.27285

>  <SCORE.INTRA.VDW.0>
-2.1506

>  <SCORE.INTRA.norm>
0.0129821

>  <SCORE.RESTR>
0

>  <SCORE.RESTR.CAVITY>
0

>  <SCORE.RESTR.norm>
0

>  <SCORE.SYSTEM>
0

>  <SCORE.SYSTEM.CONST>
0

>  <SCORE.SYSTEM.DIHEDRAL>
0

>  <SCORE.SYSTEM.SOLV>
0

>  <SCORE.SYSTEM.norm>
0

>  <SCORE.heavy>
27

>  <SCORE.norm>
-0.481364

>  <RMSD>
13.588

$$$$
ligand
 OpenBabel11021811483D
libRbt.so/2013.1/901 2013/11/27
 27 29  0  0  0  0  0  0  0  0999 V2000
    4.4235   -0.7893   12.9629 N   0  0  0  0  0  0  0  0  0  0  0  0
    4.4441    0.6636   13.1430 C   0  0  2  0  0  0  0  0  0  0  0  0
    5.7566    1.3599   12.7750 C   0  0  0  0  0  0  0  0  0  0  0  0
    5.7223    2.5347   12.4112 O   0  0  0  0  0  0  0  0  0  0  0  0
    4.0151    1.0429   14.5504 C   0  0  0  0  0  0  0  0  0  0  0  0
    3.9683    2.5501   14.7331 C   0  0  0  0  0  0  0  0  0  0  0  0
    5.0705    3.0650   16.0617 S   0  0  2  0  0  0  0  0  0  0  0  0
    5.2668    4.8109   15.6467 C   0  0  0  0  0  0  0  0  0  0  0  0
    6.6475    2.4300   15.4464 C   0  0  0  0  0  0  0  0  0  0  0  0
    7.2930    1.5066   16.4632 C   0  0  1  0  0  0  0  0  0  0  0  0
    6.4033    0.4793   16.8362 O   0  0  0  0  0  0  0  0  0  0  0  0
    8.5133    0.7926   15.9159 C   0  0  1  0  0  0  0  0  0  0  0  0
    9.6518    1.5520   16.2359 O   0  0  0  0  0  0  0  0  0  0  0  0
    8.5135   -0.5287   16.6578 C   0  0  1  0  0  0  0  0  0  0  0  0
    9.4473   -0.4209   17.7087 O   0  0  0  0  0  0  0  0  0  0  0  0
    7.0960   -0.6992   17.2082 C   0  0  2  0  0  0  0  0  0  0  0  0
    6.8522    0.7940   12.8208 O   0  0  0  0  0  0  0  0  0  0  0  0
    6.7141   -5.8993   16.7280 N   0  0  0  0  0  0  0  0  0  0  0  0
    7.5267   -5.1886   17.5775 C   0  0  0  0  0  0  0  0  0  0  0  0
    7.4847   -3.8119   17.5549 N   0  0  0  0  0  0  0  0  0  0  0  0
    6.6571   -3.1513   16.7145 C   0  0  0  0  0  0  0  0  0  0  0  0
    5.8206   -3.8554   15.8605 C   0  0  0  0  0  0  0  0  0  0  0  0
    5.8590   -5.2482   15.8645 C   0  0  0  0  0  0  0  0  0  0  0  0
    5.0754   -5.9601   15.0541 N   0  0  0  0  0  0  0  0  0  0  0  0
    5.1007   -2.9538   15.1443 N   0  0  0  0  0  0  0  0  0  0  0  0
    5.4586   -1.7122   15.5451 C   0  0  0  0  0  0  0  0  0  0  0  0
    6.4171   -1.8169   16.5228 N   0  0  0  0  0  0  0  0  0  0  0  0
  2  1  1  1  0  0  0
  2  3  1  0  0  0  0
  2  5  1  0  0  0  0
  3  4  1  0  0  0  0
  3 17  1  0  0  0  0
  5  6  1  0  0  0  0
  7  6  1  6  0  0  0
  7  8  1  0  0  0  0
  7  9  1  0  0  0  0
 10  9  1  6  0  0  0
 10 11  1  0  0  0  0
 10 12  1  0  0  0  0
 11 16  1  0  0  0  0
 12 13  1  1  0  0  0
 12 14  1  0  0  0  0
 14 15  1  1  0  0  0
 14 16  1  0  0  0  0
 16 27  1  6  0  0  0
 18 19  2  0  0  0  0
 18 23  1  0  0  0  0
 19 20  1  0  0  0  0
 20 21  2  0  0  0  0
 21 22  1  0  0  0  0
 21 27  1  0  0  0  0
 22 23  2  0  0  0  0
 22 25  1  0  0  0  0
 23 24  1  0  0  0  0
 25 26  2  0  0  0  0
 26 27  1  0  0  0  0
M  END
>  <CHROM.1>
152.72459627,-177.31183832,-121.28571863,160.30105186,-124.13657928,54.28133793
-172.09233937,6.30586882,-0.39561133,15.56602113,1.73308300,-0.73308628,-0.12114464

>  <Name>
ligand

>  <RI>
0

>  <Rbt.Current_Directory>
/home/itssahil/PROJECTS/Mol_Feturizer/New_Systems/rnas/3GX5

>  <Rbt.Executable>
rbdock ($Id: //depot/dev/client3/rdock/2013.1/src/exe/rbdock.cxx#4 $)

>  <Rbt.Library>
libRbt.so (2013.1, Build901 2013/11/27)

>  <Rbt.Parameter_File>
/export/apps/rDock/src/rDock_2013.1_src/data/scripts/dock_solv.prm

>  <Rbt.Receptor>
prm/blind_docking_20.prm

>  <SCORE>
-0.759217

>  <SCORE.INTER>
-5.00372

>  <SCORE.INTER.CONST>
1

>  <SCORE.INTER.POLAR>
0

>  <SCORE.INTER.ROT>
7

>  <SCORE.INTER.SOLV>
10.955

>  <SCORE.INTER.VDW>
-15.2541

>  <SCORE.INTER.norm>
-0.185323

>  <SCORE.INTRA>
3.47153

>  <SCORE.INTRA.DIHEDRAL>
9.3213

>  <SCORE.INTRA.DIHEDRAL.0>
4.28829

>  <SCORE.INTRA.POLAR>
0

>  <SCORE.INTRA.POLAR.0>
0

>  <SCORE.INTRA.REPUL>
0

>  <SCORE.INTRA.REPUL.0>
0

>  <SCORE.INTRA.SOLV>
0.0947432

>  <SCORE.INTRA.SOLV.lig_0>
-48.6018

>  <SCORE.INTRA.VDW>
-1.23649

>  <SCORE.INTRA.VDW.0>
-2.1506

>  <SCORE.INTRA.norm>
0.128575

>  <SCORE.RESTR>
0.772966

>  <SCORE.RESTR.CAVITY>
0.772966

>  <SCORE.RESTR.norm>
0.0286284

>  <SCORE.SYSTEM>
0

>  <SCORE.SYSTEM.CONST>
0

>  <SCORE.SYSTEM.DIHEDRAL>
0

>  <SCORE.SYSTEM.SOLV>
0

>  <SCORE.SYSTEM.norm>
0

>  <SCORE.heavy>
27

>  <SCORE.norm>
-0.0281191

>  <RMSD>
13.599

$$$$
ligand
 OpenBabel11021811483D
libRbt.so/2013.1/901 2013/11/27
 27 29  0  0  0  0  0  0  0  0999 V2000
    7.3140  -12.6026   15.5400 N   0  0  0  0  0  0  0  0  0  0  0  0
    8.1130  -12.5182   16.7640 C   0  0  2  0  0  0  0  0  0  0  0  0
    8.1320  -13.7781   17.6329 C   0  0  0  0  0  0  0  0  0  0  0  0
    7.1840  -14.5594   17.5644 O   0  0  0  0  0  0  0  0  0  0  0  0
    7.7157  -11.3062   17.5898 C   0  0  0  0  0  0  0  0  0  0  0  0
    8.7642  -10.9767   18.6384 C   0  0  0  0  0  0  0  0  0  0  0  0
    9.8432   -9.6527   18.0658 S   0  0  2  0  0  0  0  0  0  0  0  0
   10.8401  -10.5589   16.8641 C   0  0  0  0  0  0  0  0  0  0  0  0
   11.0212   -9.5720   19.4349 C   0  0  0  0  0  0  0  0  0  0  0  0
   10.4351   -8.8102   20.6093 C   0  0  1  0  0  0  0  0  0  0  0  0
    9.8597   -7.5983   20.1776 O   0  0  0  0  0  0  0  0  0  0  0  0
    9.3088   -9.5607   21.2924 C   0  0  1  0  0  0  0  0  0  0  0  0
    9.8520  -10.3061   22.3527 O   0  0  0  0  0  0  0  0  0  0  0  0
    8.4082   -8.4564   21.8077 C   0  0  1  0  0  0  0  0  0  0  0  0
    8.6932   -8.2864   23.1781 O   0  0  0  0  0  0  0  0  0  0  0  0
    8.7883   -7.2033   21.0160 C   0  0  2  0  0  0  0  0  0  0  0  0
    9.0552  -14.0456   18.4069 O   0  0  0  0  0  0  0  0  0  0  0  0
    7.4314   -5.7568   16.1699 N   0  0  0  0  0  0  0  0  0  0  0  0
    8.6822   -6.0874   16.6319 C   0  0  0  0  0  0  0  0  0  0  0  0
    8.8396   -6.4436   17.9533 N   0  0  0  0  0  0  0  0  0  0  0  0
    7.7856   -6.4756   18.7992 C   0  0  0  0  0  0  0  0  0  0  0  0
    6.5142   -6.1578   18.3439 C   0  0  0  0  0  0  0  0  0  0  0  0
    6.3405   -5.7856   17.0126 C   0  0  0  0  0  0  0  0  0  0  0  0
    5.1356   -5.4667   16.5390 N   0  0  0  0  0  0  0  0  0  0  0  0
    5.6544   -6.2795   19.3880 N   0  0  0  0  0  0  0  0  0  0  0  0
    6.3587   -6.6800   20.4716 C   0  0  0  0  0  0  0  0  0  0  0  0
    7.6799   -6.8131   20.1220 N   0  0  0  0  0  0  0  0  0  0  0  0
  2  1  1  6  0  0  0
  2  3  1  0  0  0  0
  2  5  1  0  0  0  0
  3  4  1  0  0  0  0
  3 17  1  0  0  0  0
  5  6  1  0  0  0  0
  7  6  1  1  0  0  0
  7  8  1  0  0  0  0
  7  9  1  0  0  0  0
 10  9  1  6  0  0  0
 10 11  1  0  0  0  0
 10 12  1  0  0  0  0
 11 16  1  0  0  0  0
 12 13  1  1  0  0  0
 12 14  1  0  0  0  0
 14 15  1  1  0  0  0
 14 16  1  0  0  0  0
 16 27  1  6  0  0  0
 18 19  2  0  0  0  0
 18 23  1  0  0  0  0
 19 20  1  0  0  0  0
 20 21  2  0  0  0  0
 21 22  1  0  0  0  0
 21 27  1  0  0  0  0
 22 23  2  0  0  0  0
 22 25  1  0  0  0  0
 23 24  1  0  0  0  0
 25 26  2  0  0  0  0
 26 27  1  0  0  0  0
M  END
>  <CHROM.1>
-25.51915965,-163.99241442,98.39165290,-74.35271639,-79.11696857,-47.97607138
-19.38680974,8.40330282,-9.08153428,18.82864400,1.15972557,1.08480491,-2.60362423

>  <Name>
ligand

>  <RI>
0

>  <Rbt.Current_Directory>
/home/itssahil/PROJECTS/Mol_Feturizer/New_Systems/rnas/3GX5

>  <Rbt.Executable>
rbdock ($Id: //depot/dev/client3/rdock/2013.1/src/exe/rbdock.cxx#4 $)

>  <Rbt.Library>
libRbt.so (2013.1, Build901 2013/11/27)

>  <Rbt.Parameter_File>
/export/apps/rDock/src/rDock_2013.1_src/data/scripts/dock_solv.prm

>  <Rbt.Receptor>
prm/blind_docking_60.prm

>  <SCORE>
-5.94672

>  <SCORE.INTER>
-7.16977

>  <SCORE.INTER.CONST>
1

>  <SCORE.INTER.POLAR>
0

>  <SCORE.INTER.ROT>
7

>  <SCORE.INTER.SOLV>
11.2713

>  <SCORE.INTER.VDW>
-16.8036

>  <SCORE.INTER.norm>
-0.265547

>  <SCORE.INTRA>
1.22305

>  <SCORE.INTRA.DIHEDRAL>
4.74035

>  <SCORE.INTRA.DIHEDRAL.0>
4.28829

>  <SCORE.INTRA.POLAR>
0

>  <SCORE.INTRA.POLAR.0>
0

>  <SCORE.INTRA.REPUL>
0

>  <SCORE.INTRA.REPUL.0>
0

>  <SCORE.INTRA.SOLV>
-0.452938

>  <SCORE.INTRA.SOLV.lig_0>
-48.6018

>  <SCORE.INTRA.VDW>
-0.920662

>  <SCORE.INTRA.VDW.0>
-2.1506

>  <SCORE.INTRA.norm>
0.045298

>  <SCORE.RESTR>
0

>  <SCORE.RESTR.CAVITY>
0

>  <SCORE.RESTR.norm>
0

>  <SCORE.SYSTEM>
0

>  <SCORE.SYSTEM.CONST>
0

>  <SCORE.SYSTEM.DIHEDRAL>
0

>  <SCORE.SYSTEM.SOLV>
0

>  <SCORE.SYSTEM.norm>
0

>  <SCORE.heavy>
27

>  <SCORE.norm>
-0.220249

>  <RMSD>
13.616

$$$$
ligand
 OpenBabel11021811483D
libRbt.so/2013.1/901 2013/11/27
 27 29  0  0  0  0  0  0  0  0999 V2000
   12.4223   -7.2037   21.1915 N   0  0  0  0  0  0  0  0  0  0  0  0
   12.3367   -8.6636   21.1204 C   0  0  2  0  0  0  0  0  0  0  0  0
   12.4067   -9.3991   22.4609 C   0  0  0  0  0  0  0  0  0  0  0  0
   12.4855   -8.7384   23.4958 O   0  0  0  0  0  0  0  0  0  0  0  0
   13.3652   -9.2217   20.1510 C   0  0  0  0  0  0  0  0  0  0  0  0
   13.0422   -8.8443   18.7155 C   0  0  0  0  0  0  0  0  0  0  0  0
   11.7600   -9.9193   18.0478 S   0  0  2  0  0  0  0  0  0  0  0  0
   11.4773   -9.1174   16.4553 C   0  0  0  0  0  0  0  0  0  0  0  0
   10.3168   -9.3117   18.9515 C   0  0  0  0  0  0  0  0  0  0  0  0
    9.1111  -10.2001   18.7064 C   0  0  1  0  0  0  0  0  0  0  0  0
    8.1037   -9.9436   19.6580 O   0  0  0  0  0  0  0  0  0  0  0  0
    8.4582   -9.9455   17.3620 C   0  0  1  0  0  0  0  0  0  0  0  0
    9.0083  -10.8380   16.4261 O   0  0  0  0  0  0  0  0  0  0  0  0
    6.9960  -10.2529   17.6140 C   0  0  1  0  0  0  0  0  0  0  0  0
    6.7490  -11.5522   17.1253 O   0  0  0  0  0  0  0  0  0  0  0  0
    6.8137  -10.2017   19.1324 C   0  0  2  0  0  0  0  0  0  0  0  0
   12.3934  -10.6296   22.5526 O   0  0  0  0  0  0  0  0  0  0  0  0
    6.7395   -5.3365   21.0670 N   0  0  0  0  0  0  0  0  0  0  0  0
    7.8332   -6.1342   20.8334 C   0  0  0  0  0  0  0  0  0  0  0  0
    7.6472   -7.3977   20.3170 N   0  0  0  0  0  0  0  0  0  0  0  0
    6.4095   -7.8624   20.0345 C   0  0  0  0  0  0  0  0  0  0  0  0
    5.2965   -7.0633   20.2519 C   0  0  0  0  0  0  0  0  0  0  0  0
    5.4676   -5.7869   20.7835 C   0  0  0  0  0  0  0  0  0  0  0  0
    4.4224   -4.9915   21.0129 N   0  0  0  0  0  0  0  0  0  0  0  0
    4.1974   -7.7677   19.8777 N   0  0  0  0  0  0  0  0  0  0  0  0
    4.6038   -8.9742   19.4196 C   0  0  0  0  0  0  0  0  0  0  0  0
    5.9725   -9.0463   19.5033 N   0  0  0  0  0  0  0  0  0  0  0  0
  2  1  1  1  0  0  0
  2  3  1  0  0  0  0
  2  5  1  0  0  0  0
  3  4  1  0  0  0  0
  3 17  1  0  0  0  0
  5  6  1  0  0  0  0
  7  6  1  1  0  0  0
  7  8  1  0  0  0  0
  7  9  1  0  0  0  0
 10  9  1  1  0  0  0
 10 11  1  0  0  0  0
 10 12  1  0  0  0  0
 11 16  1  0  0  0  0
 12 13  1  6  0  0  0
 12 14  1  0  0  0  0
 14 15  1  1  0  0  0
 14 16  1  0  0  0  0
 16 27  1  6  0  0  0
 18 19  2  0  0  0  0
 18 23  1  0  0  0  0
 19 20  1  0  0  0  0
 20 21  2  0  0  0  0
 21 22  1  0  0  0  0
 21 27  1  0  0  0  0
 22 23  2  0  0  0  0
 22 25  1  0  0  0  0
 23 24  1  0  0  0  0
 25 26  2  0  0  0  0
 26 27  1  0  0  0  0
M  END
>  <CHROM.1>
2.23977793,-68.31616665,-79.66463543,173.85684147,-171.99976228,164.76501980
10.57666027,8.96121406,-8.80056987,19.61503151,-0.12548941,-0.23434412,0.91092742

>  <Name>
ligand

>  <RI>
0

>  <Rbt.Current_Directory>
/home/itssahil/PROJECTS/Mol_Feturizer/New_Systems/rnas/3GX5

>  <Rbt.Executable>
rbdock ($Id: //depot/dev/client3/rdock/2013.1/src/exe/rbdock.cxx#4 $)

>  <Rbt.Library>
libRbt.so (2013.1, Build901 2013/11/27)

>  <Rbt.Parameter_File>
/export/apps/rDock/src/rDock_2013.1_src/data/scripts/dock_solv.prm

>  <Rbt.Receptor>
prm/blind_docking_60.prm

>  <SCORE>
-9.39331

>  <SCORE.INTER>
-11.0759

>  <SCORE.INTER.CONST>
1

>  <SCORE.INTER.POLAR>
0

>  <SCORE.INTER.ROT>
7

>  <SCORE.INTER.SOLV>
8.14041

>  <SCORE.INTER.VDW>
-18.3641

>  <SCORE.INTER.norm>
-0.410219

>  <SCORE.INTRA>
1.68259

>  <SCORE.INTRA.DIHEDRAL>
2.42032

>  <SCORE.INTRA.DIHEDRAL.0>
4.28829

>  <SCORE.INTRA.POLAR>
0

>  <SCORE.INTRA.POLAR.0>
0

>  <SCORE.INTRA.REPUL>
0

>  <SCORE.INTRA.REPUL.0>
0

>  <SCORE.INTRA.SOLV>
0.798212

>  <SCORE.INTRA.SOLV.lig_0>
-48.6018

>  <SCORE.INTRA.VDW>
0.0733239

>  <SCORE.INTRA.VDW.0>
-2.1506

>  <SCORE.INTRA.norm>
0.0623182

>  <SCORE.RESTR>
0

>  <SCORE.RESTR.CAVITY>
0

>  <SCORE.RESTR.norm>
0

>  <SCORE.SYSTEM>
0

>  <SCORE.SYSTEM.CONST>
0

>  <SCORE.SYSTEM.DIHEDRAL>
0

>  <SCORE.SYSTEM.SOLV>
0

>  <SCORE.SYSTEM.norm>
0

>  <SCORE.heavy>
27

>  <SCORE.norm>
-0.3479

>  <RMSD>
13.648

$$$$
ligand
 OpenBabel11021811483D
libRbt.so/2013.1/901 2013/11/27
 27 29  0  0  0  0  0  0  0  0999 V2000
    8.3095   -1.4675   19.6774 N   0  0  0  0  0  0  0  0  0  0  0  0
    8.9216   -1.9442   20.9192 C   0  0  2  0  0  0  0  0  0  0  0  0
   10.3525   -1.4674   21.1800 C   0  0  0  0  0  0  0  0  0  0  0  0
   11.1299   -1.3790   20.2306 O   0  0  0  0  0  0  0  0  0  0  0  0
    8.8365   -3.4579   21.0208 C   0  0  0  0  0  0  0  0  0  0  0  0
    9.0030   -3.9317   22.4544 C   0  0  0  0  0  0  0  0  0  0  0  0
    8.9044   -5.7281   22.5467 S   0  0  2  0  0  0  0  0  0  0  0  0
    8.8759   -5.9484   24.3382 C   0  0  0  0  0  0  0  0  0  0  0  0
   10.6260   -6.1702   22.2160 C   0  0  0  0  0  0  0  0  0  0  0  0
   10.8148   -7.6756   22.2520 C   0  0  1  0  0  0  0  0  0  0  0  0
   10.3637   -8.2614   21.0523 O   0  0  0  0  0  0  0  0  0  0  0  0
   12.2709   -8.0818   22.3666 C   0  0  1  0  0  0  0  0  0  0  0  0
   12.5786   -8.2491   23.7276 O   0  0  0  0  0  0  0  0  0  0  0  0
   12.3295   -9.4036   21.6281 C   0  0  1  0  0  0  0  0  0  0  0  0
   12.3023  -10.4280   22.5965 O   0  0  0  0  0  0  0  0  0  0  0  0
   11.0739   -9.4505   20.7547 C   0  0  2  0  0  0  0  0  0  0  0  0
   10.7666   -1.1712   22.3041 O   0  0  0  0  0  0  0  0  0  0  0  0
   10.4251  -11.5054   15.9825 N   0  0  0  0  0  0  0  0  0  0  0  0
    9.8215  -11.8900   17.1551 C   0  0  0  0  0  0  0  0  0  0  0  0
   10.1258  -11.2208   18.3201 N   0  0  0  0  0  0  0  0  0  0  0  0
   11.0040  -10.1931   18.3272 C   0  0  0  0  0  0  0  0  0  0  0  0
   11.6110   -9.7843   17.1486 C   0  0  0  0  0  0  0  0  0  0  0  0
   11.3212  -10.4579   15.9638 C   0  0  0  0  0  0  0  0  0  0  0  0
   11.8891  -10.0992   14.8121 N   0  0  0  0  0  0  0  0  0  0  0  0
   12.4285   -8.7399   17.4404 N   0  0  0  0  0  0  0  0  0  0  0  0
   12.3297   -8.4826   18.7650 C   0  0  0  0  0  0  0  0  0  0  0  0
   11.4455   -9.3696   19.3281 N   0  0  0  0  0  0  0  0  0  0  0  0
  2  1  1  6  0  0  0
  2  3  1  0  0  0  0
  2  5  1  0  0  0  0
  3  4  1  0  0  0  0
  3 17  1  0  0  0  0
  5  6  1  0  0  0  0
  7  6  1  1  0  0  0
  7  8  1  0  0  0  0
  7  9  1  0  0  0  0
 10  9  1  6  0  0  0
 10 11  1  0  0  0  0
 10 12  1  0  0  0  0
 11 16  1  0  0  0  0
 12 13  1  1  0  0  0
 12 14  1  0  0  0  0
 14 15  1  1  0  0  0
 14 16  1  0  0  0  0
 16 27  1  6  0  0  0
 18 19  2  0  0  0  0
 18 23  1  0  0  0  0
 19 20  1  0  0  0  0
 20 21  2  0  0  0  0
 21 22  1  0  0  0  0
 21 27  1  0  0  0  0
 22 23  2  0  0  0  0
 22 25  1  0  0  0  0
 23 24  1  0  0  0  0
 25 26  2  0  0  0  0
 26 27  1  0  0  0  0
M  END
>  <CHROM.1>
-37.94856076,-160.04007056,-179.79042719,-171.69721760,179.46126662,78.57454590
-115.19991068,10.64876340,-7.10308252,20.38038581,2.49971730,-1.33719823
1.40308249

>  <Name>
ligand

>  <RI>
0

>  <Rbt.Current_Directory>
/home/itssahil/PROJECTS/Mol_Feturizer/New_Systems/rnas/3GX5

>  <Rbt.Executable>
rbdock ($Id: //depot/dev/client3/rdock/2013.1/src/exe/rbdock.cxx#4 $)

>  <Rbt.Library>
libRbt.so (2013.1, Build901 2013/11/27)

>  <Rbt.Parameter_File>
/export/apps/rDock/src/rDock_2013.1_src/data/scripts/dock_solv.prm

>  <Rbt.Receptor>
prm/blind_docking_100.prm

>  <SCORE>
-12.6914

>  <SCORE.INTER>
-12.958

>  <SCORE.INTER.CONST>
1

>  <SCORE.INTER.POLAR>
0

>  <SCORE.INTER.ROT>
7

>  <SCORE.INTER.SOLV>
11.1242

>  <SCORE.INTER.VDW>
-20.6134

>  <SCORE.INTER.norm>
-0.479925

>  <SCORE.INTRA>
0.266595

>  <SCORE.INTRA.DIHEDRAL>
2.61604

>  <SCORE.INTRA.DIHEDRAL.0>
4.28829

>  <SCORE.INTRA.POLAR>
0

>  <SCORE.INTRA.POLAR.0>
0

>  <SCORE.INTRA.REPUL>
0

>  <SCORE.INTRA.REPUL.0>
0

>  <SCORE.INTRA.SOLV>
-1.30879

>  <SCORE.INTRA.SOLV.lig_0>
-48.6018

>  <SCORE.INTRA.VDW>
-0.387034

>  <SCORE.INTRA.VDW.0>
-2.1506

>  <SCORE.INTRA.norm>
0.00987387

>  <SCORE.RESTR>
0

>  <SCORE.RESTR.CAVITY>
0

>  <SCORE.RESTR.norm>
0

>  <SCORE.SYSTEM>
0

>  <SCORE.SYSTEM.CONST>
0

>  <SCORE.SYSTEM.DIHEDRAL>
0

>  <SCORE.SYSTEM.SOLV>
0

>  <SCORE.SYSTEM.norm>
0

>  <SCORE.heavy>
27

>  <SCORE.norm>
-0.470051

>  <RMSD>
13.649

$$$$
ligand
 OpenBabel11021811483D
libRbt.so/2013.1/901 2013/11/27
 27 29  0  0  0  0  0  0  0  0999 V2000
    7.4937   -2.7296   19.7454 N   0  0  0  0  0  0  0  0  0  0  0  0
    7.8960   -3.7164   20.7496 C   0  0  2  0  0  0  0  0  0  0  0  0
    9.1145   -3.3425   21.5972 C   0  0  0  0  0  0  0  0  0  0  0  0
   10.0227   -2.6964   21.0764 O   0  0  0  0  0  0  0  0  0  0  0  0
    8.0836   -5.0866   20.1203 C   0  0  0  0  0  0  0  0  0  0  0  0
    8.2237   -6.1711   21.1747 C   0  0  0  0  0  0  0  0  0  0  0  0
    8.4923   -7.7772   20.4043 S   0  0  2  0  0  0  0  0  0  0  0  0
    6.8478   -8.0761   19.7222 C   0  0  0  0  0  0  0  0  0  0  0  0
    8.4176   -8.8548   21.8541 C   0  0  0  0  0  0  0  0  0  0  0  0
    9.8007   -9.0710   22.4399 C   0  0  1  0  0  0  0  0  0  0  0  0
   10.6649   -9.6323   21.4785 O   0  0  0  0  0  0  0  0  0  0  0  0
   10.4678   -7.7769   22.8627 C   0  0  1  0  0  0  0  0  0  0  0  0
   10.1862   -7.5566   24.2218 O   0  0  0  0  0  0  0  0  0  0  0  0
   11.9426   -8.0520   22.6494 C   0  0  1  0  0  0  0  0  0  0  0  0
   12.4969   -8.3715   23.9058 O   0  0  0  0  0  0  0  0  0  0  0  0
   12.0113   -9.2544   21.7055 C   0  0  2  0  0  0  0  0  0  0  0  0
    9.2318   -3.6651   22.7825 O   0  0  0  0  0  0  0  0  0  0  0  0
   11.6852   -9.7966   16.5076 N   0  0  0  0  0  0  0  0  0  0  0  0
   10.9053  -10.3937   17.4681 C   0  0  0  0  0  0  0  0  0  0  0  0
   11.1491  -10.1241   18.7968 N   0  0  0  0  0  0  0  0  0  0  0  0
   12.1386   -9.2817   19.1693 C   0  0  0  0  0  0  0  0  0  0  0  0
   12.9255   -8.6605   18.2104 C   0  0  0  0  0  0  0  0  0  0  0  0
   12.6979   -8.9310   16.8627 C   0  0  0  0  0  0  0  0  0  0  0  0
   13.4370   -8.3589   15.9119 N   0  0  0  0  0  0  0  0  0  0  0  0
   13.8237   -7.8715   18.8546 N   0  0  0  0  0  0  0  0  0  0  0  0
   13.6013   -7.9764   20.1851 C   0  0  0  0  0  0  0  0  0  0  0  0
   12.5557   -8.8410   20.3968 N   0  0  0  0  0  0  0  0  0  0  0  0
  2  1  1  6  0  0  0
  2  3  1  0  0  0  0
  2  5  1  0  0  0  0
  3  4  1  0  0  0  0
  3 17  1  0  0  0  0
  5  6  1  0  0  0  0
  7  6  1  1  0  0  0
  7  8  1  0  0  0  0
  7  9  1  0  0  0  0
 10  9  1  6  0  0  0
 10 11  1  0  0  0  0
 10 12  1  0  0  0  0
 11 16  1  0  0  0  0
 12 13  1  1  0  0  0
 12 14  1  0  0  0  0
 14 15  1  1  0  0  0
 14 16  1  0  0  0  0
 16 27  1  6  0  0  0
 18 19  2  0  0  0  0
 18 23  1  0  0  0  0
 19 20  1  0  0  0  0
 20 21  2  0  0  0  0
 21 22  1  0  0  0  0
 21 27  1  0  0  0  0
 22 23  2  0  0  0  0
 22 25  1  0  0  0  0
 23 24  1  0  0  0  0
 25 26  2  0  0  0  0
 26 27  1  0  0  0  0
M  END
>  <CHROM.1>
-34.54970702,-168.50103881,-178.36443756,-71.69239534,-92.04273204,-58.20797852
-27.32780227,10.45675680,-7.45088402,20.48323619,2.80743736,-0.93251629,1.74418335

>  <Name>
ligand

>  <RI>
0

>  <Rbt.Current_Directory>
/home/itssahil/PROJECTS/Mol_Feturizer/New_Systems/rnas/3GX5

>  <Rbt.Executable>
rbdock ($Id: //depot/dev/client3/rdock/2013.1/src/exe/rbdock.cxx#4 $)

>  <Rbt.Library>
libRbt.so (2013.1, Build901 2013/11/27)

>  <Rbt.Parameter_File>
/export/apps/rDock/src/rDock_2013.1_src/data/scripts/dock_solv.prm

>  <Rbt.Receptor>
prm/blind_docking_60.prm

>  <SCORE>
-10.0796

>  <SCORE.INTER>
-9.70163

>  <SCORE.INTER.CONST>
1

>  <SCORE.INTER.POLAR>
0

>  <SCORE.INTER.ROT>
7

>  <SCORE.INTER.SOLV>
7.67373

>  <SCORE.INTER.VDW>
-17.2923

>  <SCORE.INTER.norm>
-0.35932

>  <SCORE.INTRA>
-0.381665

>  <SCORE.INTRA.DIHEDRAL>
0.935114

>  <SCORE.INTRA.DIHEDRAL.0>
4.28829

>  <SCORE.INTRA.POLAR>
0

>  <SCORE.INTRA.POLAR.0>
0

>  <SCORE.INTRA.REPUL>
0

>  <SCORE.INTRA.REPUL.0>
0

>  <SCORE.INTRA.SOLV>
-0.956747

>  <SCORE.INTRA.SOLV.lig_0>
-48.6018

>  <SCORE.INTRA.VDW>
-0.370848

>  <SCORE.INTRA.VDW.0>
-2.1506

>  <SCORE.INTRA.norm>
-0.0141357

>  <SCORE.RESTR>
0.00364529

>  <SCORE.RESTR.CAVITY>
0.00364529

>  <SCORE.RESTR.norm>
0.000135011

>  <SCORE.SYSTEM>
0

>  <SCORE.SYSTEM.CONST>
0

>  <SCORE.SYSTEM.DIHEDRAL>
0

>  <SCORE.SYSTEM.SOLV>
0

>  <SCORE.SYSTEM.norm>
0

>  <SCORE.heavy>
27

>  <SCORE.norm>
-0.37332

>  <RMSD>
13.662

$$$$
ligand
 OpenBabel11021811483D
libRbt.so/2013.1/901 2013/11/27
 27 29  0  0  0  0  0  0  0  0999 V2000
   10.5649   -9.3149   16.9032 N   0  0  0  0  0  0  0  0  0  0  0  0
   10.8428   -7.8804   16.8095 C   0  0  2  0  0  0  0  0  0  0  0  0
    9.6963   -7.0148   16.2811 C   0  0  0  0  0  0  0  0  0  0  0  0
    9.2123   -7.2796   15.1814 O   0  0  0  0  0  0  0  0  0  0  0  0
   12.1141   -7.6237   16.0179 C   0  0  0  0  0  0  0  0  0  0  0  0
   13.3157   -8.2988   16.6565 C   0  0  0  0  0  0  0  0  0  0  0  0
   13.6455   -7.6034   18.2853 S   0  0  2  0  0  0  0  0  0  0  0  0
   15.3614   -8.1199   18.5045 C   0  0  0  0  0  0  0  0  0  0  0  0
   12.8264   -8.8247   19.3371 C   0  0  0  0  0  0  0  0  0  0  0  0
   12.8241   -8.3760   20.7868 C   0  0  1  0  0  0  0  0  0  0  0  0
   12.2325   -7.1030   20.9116 O   0  0  0  0  0  0  0  0  0  0  0  0
   12.0014   -9.2830   21.6806 C   0  0  1  0  0  0  0  0  0  0  0  0
   12.8542  -10.2554   22.2305 O   0  0  0  0  0  0  0  0  0  0  0  0
   11.4798   -8.3470   22.7519 C   0  0  1  0  0  0  0  0  0  0  0  0
   12.2996   -8.5090   23.8876 O   0  0  0  0  0  0  0  0  0  0  0  0
   11.6214   -6.9353   22.1787 C   0  0  2  0  0  0  0  0  0  0  0  0
    9.2361   -6.0559   16.9067 O   0  0  0  0  0  0  0  0  0  0  0  0
    6.6495   -7.9088   20.8554 N   0  0  0  0  0  0  0  0  0  0  0  0
    7.6696   -8.8134   21.0241 C   0  0  0  0  0  0  0  0  0  0  0  0
    8.9217   -8.3587   21.3752 N   0  0  0  0  0  0  0  0  0  0  0  0
    9.1610   -7.0409   21.5585 C   0  0  0  0  0  0  0  0  0  0  0  0
    8.1377   -6.1168   21.4053 C   0  0  0  0  0  0  0  0  0  0  0  0
    6.8682   -6.5602   21.0404 C   0  0  0  0  0  0  0  0  0  0  0  0
    5.8606   -5.7025   20.8770 N   0  0  0  0  0  0  0  0  0  0  0  0
    8.6483   -4.8833   21.6546 N   0  0  0  0  0  0  0  0  0  0  0  0
    9.9556   -5.0232   21.9737 C   0  0  0  0  0  0  0  0  0  0  0  0
   10.2876   -6.3548   21.9259 N   0  0  0  0  0  0  0  0  0  0  0  0
  2  1  1  6  0  0  0
  2  3  1  0  0  0  0
  2  5  1  0  0  0  0
  3  4  1  0  0  0  0
  3 17  1  0  0  0  0
  5  6  1  0  0  0  0
  7  6  1  6  0  0  0
  7  8  1  0  0  0  0
  7  9  1  0  0  0  0
 10  9  1  6  0  0  0
 10 11  1  0  0  0  0
 10 12  1  0  0  0  0
 11 16  1  0  0  0  0
 12 13  1  1  0  0  0
 12 14  1  0  0  0  0
 14 15  1  1  0  0  0
 14 16  1  0  0  0  0
 16 27  1  6  0  0  0
 18 19  2  0  0  0  0
 18 23  1  0  0  0  0
 19 20  1  0  0  0  0
 20 21  2  0  0  0  0
 21 22  1  0  0  0  0
 21 27  1  0  0  0  0
 22 23  2  0  0  0  0
 22 25  1  0  0  0  0
 23 24  1  0  0  0  0
 25 26  2  0  0  0  0
 26 27  1  0  0  0  0
M  END
>  <CHROM.1>
-56.37162212,-59.27773719,-63.90538783,-160.56399835,-173.43908051,55.58452999
81.67025399,10.74689951,-7.56847904,19.84856819,0.68984133,0.31899801,-1.52111438

>  <Name>
ligand

>  <RI>
0

>  <Rbt.Current_Directory>
/home/itssahil/PROJECTS/Mol_Feturizer/New_Systems/rnas/3GX5

>  <Rbt.Executable>
rbdock ($Id: //depot/dev/client3/rdock/2013.1/src/exe/rbdock.cxx#4 $)

>  <Rbt.Library>
libRbt.so (2013.1, Build901 2013/11/27)

>  <Rbt.Parameter_File>
/export/apps/rDock/src/rDock_2013.1_src/data/scripts/dock_solv.prm

>  <Rbt.Receptor>
prm/blind_docking_80.prm

>  <SCORE>
-12.9106

>  <SCORE.INTER>
-13.6634

>  <SCORE.INTER.CONST>
1

>  <SCORE.INTER.POLAR>
0

>  <SCORE.INTER.ROT>
7

>  <SCORE.INTER.SOLV>
9.18988

>  <SCORE.INTER.VDW>
-20.4389

>  <SCORE.INTER.norm>
-0.506053

>  <SCORE.INTRA>
0.752843

>  <SCORE.INTRA.DIHEDRAL>
1.85756

>  <SCORE.INTRA.DIHEDRAL.0>
4.28829

>  <SCORE.INTRA.POLAR>
0

>  <SCORE.INTRA.POLAR.0>
0

>  <SCORE.INTRA.REPUL>
0

>  <SCORE.INTRA.REPUL.0>
0

>  <SCORE.INTRA.SOLV>
1.09523

>  <SCORE.INTRA.SOLV.lig_0>
-48.6018

>  <SCORE.INTRA.VDW>
-0.723548

>  <SCORE.INTRA.VDW.0>
-2.1506

>  <SCORE.INTRA.norm>
0.0278831

>  <SCORE.RESTR>
0

>  <SCORE.RESTR.CAVITY>
0

>  <SCORE.RESTR.norm>
0

>  <SCORE.SYSTEM>
0

>  <SCORE.SYSTEM.CONST>
0

>  <SCORE.SYSTEM.DIHEDRAL>
0

>  <SCORE.SYSTEM.SOLV>
0

>  <SCORE.SYSTEM.norm>
0

>  <SCORE.heavy>
27

>  <SCORE.norm>
-0.47817

>  <RMSD>
13.677

$$$$
ligand
 OpenBabel11021811483D
libRbt.so/2013.1/901 2013/11/27
 27 29  0  0  0  0  0  0  0  0999 V2000
    8.1364  -12.7515   17.5187 N   0  0  0  0  0  0  0  0  0  0  0  0
    6.9693  -13.0529   16.6874 C   0  0  2  0  0  0  0  0  0  0  0  0
    7.2617  -13.7696   15.3669 C   0  0  0  0  0  0  0  0  0  0  0  0
    7.8288  -13.1488   14.4688 O   0  0  0  0  0  0  0  0  0  0  0  0
    6.1383  -11.8042   16.4444 C   0  0  0  0  0  0  0  0  0  0  0  0
    5.4991  -11.3003   17.7269 C   0  0  0  0  0  0  0  0  0  0  0  0
    5.1842   -9.5293   17.6281 S   0  0  2  0  0  0  0  0  0  0  0  0
    4.1609   -9.4758   16.1418 C   0  0  0  0  0  0  0  0  0  0  0  0
    6.7519   -8.9539   16.9354 C   0  0  0  0  0  0  0  0  0  0  0  0
    6.7994   -7.4377   16.8893 C   0  0  1  0  0  0  0  0  0  0  0  0
    6.5232   -6.8935   18.1595 O   0  0  0  0  0  0  0  0  0  0  0  0
    8.1699   -6.9044   16.5208 C   0  0  1  0  0  0  0  0  0  0  0  0
    8.2109   -6.7112   15.1294 O   0  0  0  0  0  0  0  0  0  0  0  0
    8.2456   -5.5822   17.2571 C   0  0  1  0  0  0  0  0  0  0  0  0
    7.9549   -4.5647   16.3253 O   0  0  0  0  0  0  0  0  0  0  0  0
    7.1692   -5.6460   18.3427 C   0  0  2  0  0  0  0  0  0  0  0  0
    6.9489  -14.9448   15.1578 O   0  0  0  0  0  0  0  0  0  0  0  0
    8.4505   -8.6612   22.4275 N   0  0  0  0  0  0  0  0  0  0  0  0
    7.8392   -9.0419   21.2576 C   0  0  0  0  0  0  0  0  0  0  0  0
    7.5813   -8.0930   20.2928 N   0  0  0  0  0  0  0  0  0  0  0  0
    7.9217   -6.7977   20.4774 C   0  0  0  0  0  0  0  0  0  0  0  0
    8.5521   -6.4007   21.6477 C   0  0  0  0  0  0  0  0  0  0  0  0
    8.8104   -7.3470   22.6372 C   0  0  0  0  0  0  0  0  0  0  0  0
    9.4084   -7.0033   23.7782 N   0  0  0  0  0  0  0  0  0  0  0  0
    8.7846   -5.0653   21.5642 N   0  0  0  0  0  0  0  0  0  0  0  0
    8.3294   -4.6306   20.3666 C   0  0  0  0  0  0  0  0  0  0  0  0
    7.7980   -5.6931   19.6778 N   0  0  0  0  0  0  0  0  0  0  0  0
  2  1  1  6  0  0  0
  2  3  1  0  0  0  0
  2  5  1  0  0  0  0
  3  4  1  0  0  0  0
  3 17  1  0  0  0  0
  5  6  1  0  0  0  0
  7  6  1  6  0  0  0
  7  8  1  0  0  0  0
  7  9  1  0  0  0  0
 10  9  1  1  0  0  0
 10 11  1  0  0  0  0
 10 12  1  0  0  0  0
 11 16  1  0  0  0  0
 12 13  1  6  0  0  0
 12 14  1  0  0  0  0
 14 15  1  6  0  0  0
 14 16  1  0  0  0  0
 16 27  1  1  0  0  0
 18 19  2  0  0  0  0
 18 23  1  0  0  0  0
 19 20  1  0  0  0  0
 20 21  2  0  0  0  0
 21 22  1  0  0  0  0
 21 27  1  0  0  0  0
 22 23  2  0  0  0  0
 22 25  1  0  0  0  0
 23 24  1  0  0  0  0
 25 26  2  0  0  0  0
 26 27  1  0  0  0  0
M  END
>  <CHROM.1>
-70.33398861,-66.67965439,154.05731446,56.53550856,-173.86966981,53.65782652
9.91181468,7.32665554,-8.65609312,18.25189058,-2.49861084,-1.31895451,-0.27355090

>  <Name>
ligand

>  <RI>
0

>  <Rbt.Current_Directory>
/home/itssahil/PROJECTS/Mol_Feturizer/New_Systems/rnas/3GX5

>  <Rbt.Executable>
rbdock ($Id: //depot/dev/client3/rdock/2013.1/src/exe/rbdock.cxx#4 $)

>  <Rbt.Library>
libRbt.so (2013.1, Build901 2013/11/27)

>  <Rbt.Parameter_File>
/export/apps/rDock/src/rDock_2013.1_src/data/scripts/dock_solv.prm

>  <Rbt.Receptor>
prm/blind_docking_60.prm

>  <SCORE>
-8.81947

>  <SCORE.INTER>
-11.6086

>  <SCORE.INTER.CONST>
1

>  <SCORE.INTER.POLAR>
0

>  <SCORE.INTER.ROT>
7

>  <SCORE.INTER.SOLV>
10.2431

>  <SCORE.INTER.VDW>
-19.4201

>  <SCORE.INTER.norm>
-0.42995

>  <SCORE.INTRA>
2.78918

>  <SCORE.INTRA.DIHEDRAL>
2.43859

>  <SCORE.INTRA.DIHEDRAL.0>
4.28829

>  <SCORE.INTRA.POLAR>
0

>  <SCORE.INTRA.POLAR.0>
0

>  <SCORE.INTRA.REPUL>
0

>  <SCORE.INTRA.REPUL.0>
0

>  <SCORE.INTRA.SOLV>
0.0141681

>  <SCORE.INTRA.SOLV.lig_0>
-48.6018

>  <SCORE.INTRA.VDW>
1.5628

>  <SCORE.INTRA.VDW.0>
-2.1506

>  <SCORE.INTRA.norm>
0.103303

>  <SCORE.RESTR>
0

>  <SCORE.RESTR.CAVITY>
0

>  <SCORE.RESTR.norm>
0

>  <SCORE.SYSTEM>
0

>  <SCORE.SYSTEM.CONST>
0

>  <SCORE.SYSTEM.DIHEDRAL>
0

>  <SCORE.SYSTEM.SOLV>
0

>  <SCORE.SYSTEM.norm>
0

>  <SCORE.heavy>
27

>  <SCORE.norm>
-0.326647

>  <RMSD>
13.709

$$$$
ligand
 OpenBabel11021811483D
libRbt.so/2013.1/901 2013/11/27
 27 29  0  0  0  0  0  0  0  0999 V2000
   14.4810   -7.1099   17.2221 N   0  0  0  0  0  0  0  0  0  0  0  0
   13.5750   -7.6960   18.2117 C   0  0  2  0  0  0  0  0  0  0  0  0
   13.8821   -7.3617   19.6735 C   0  0  0  0  0  0  0  0  0  0  0  0
   12.9488   -7.0902   20.4278 O   0  0  0  0  0  0  0  0  0  0  0  0
   13.4603   -9.1990   18.0206 C   0  0  0  0  0  0  0  0  0  0  0  0
   12.1470   -9.7329   18.5662 C   0  0  0  0  0  0  0  0  0  0  0  0
   10.9764  -10.0306   17.2297 S   0  0  2  0  0  0  0  0  0  0  0  0
   10.4544   -8.3366   16.8876 C   0  0  0  0  0  0  0  0  0  0  0  0
    9.5422  -10.6039   18.1692 C   0  0  0  0  0  0  0  0  0  0  0  0
    8.3205  -10.7186   17.2762 C   0  0  1  0  0  0  0  0  0  0  0  0
    8.3847  -11.8899   16.4950 O   0  0  0  0  0  0  0  0  0  0  0  0
    7.0289  -10.8378   18.0610 C   0  0  1  0  0  0  0  0  0  0  0  0
    6.4917   -9.5500   18.2285 O   0  0  0  0  0  0  0  0  0  0  0  0
    6.1467  -11.6841   17.1657 C   0  0  1  0  0  0  0  0  0  0  0  0
    5.2752  -10.8090   16.4855 O   0  0  0  0  0  0  0  0  0  0  0  0
    7.0921  -12.3788   16.1833 C   0  0  2  0  0  0  0  0  0  0  0  0
   15.0277   -7.3462   20.1319 O   0  0  0  0  0  0  0  0  0  0  0  0
    8.5676  -16.1553   19.4968 N   0  0  0  0  0  0  0  0  0  0  0  0
    8.7184  -14.7979   19.6446 C   0  0  0  0  0  0  0  0  0  0  0  0
    8.2624  -13.9577   18.6527 N   0  0  0  0  0  0  0  0  0  0  0  0
    7.6681  -14.4462   17.5410 C   0  0  0  0  0  0  0  0  0  0  0  0
    7.4962  -15.8138   17.3840 C   0  0  0  0  0  0  0  0  0  0  0  0
    7.9614  -16.6771   18.3738 C   0  0  0  0  0  0  0  0  0  0  0  0
    7.8208  -17.9977   18.2563 N   0  0  0  0  0  0  0  0  0  0  0  0
    6.8717  -16.0224   16.1963 N   0  0  0  0  0  0  0  0  0  0  0  0
    6.6387  -14.8189   15.6237 C   0  0  0  0  0  0  0  0  0  0  0  0
    7.1197  -13.8312   16.4475 N   0  0  0  0  0  0  0  0  0  0  0  0
  2  1  1  6  0  0  0
  2  3  1  0  0  0  0
  2  5  1  0  0  0  0
  3  4  1  0  0  0  0
  3 17  1  0  0  0  0
  5  6  1  0  0  0  0
  7  6  1  1  0  0  0
  7  8  1  0  0  0  0
  7  9  1  0  0  0  0
 10  9  1  1  0  0  0
 10 11  1  0  0  0  0
 10 12  1  0  0  0  0
 11 16  1  0  0  0  0
 12 13  1  6  0  0  0
 12 14  1  0  0  0  0
 14 15  1  6  0  0  0
 14 16  1  0  0  0  0
 16 27  1  1  0  0  0
 18 19  2  0  0  0  0
 18 23  1  0  0  0  0
 19 20  1  0  0  0  0
 20 21  2  0  0  0  0
 21 22  1  0  0  0  0
 21 27  1  0  0  0  0
 22 23  2  0  0  0  0
 22 25  1  0  0  0  0
 23 24  1  0  0  0  0
 25 26  2  0  0  0  0
 26 27  1  0  0  0  0
M  END
>  <CHROM.1>
137.96830833,-154.98064225,101.66377446,-76.87947415,170.95413336,77.69528663
44.22865611,9.46299514,-11.53198279,17.83548215,-0.79859556,0.39187678,2.96454972

>  <Name>
ligand

>  <RI>
0

>  <Rbt.Current_Directory>
/home/itssahil/PROJECTS/Mol_Feturizer/New_Systems/rnas/3GX5

>  <Rbt.Executable>
rbdock ($Id: //depot/dev/client3/rdock/2013.1/src/exe/rbdock.cxx#4 $)

>  <Rbt.Library>
libRbt.so (2013.1, Build901 2013/11/27)

>  <Rbt.Parameter_File>
/export/apps/rDock/src/rDock_2013.1_src/data/scripts/dock_solv.prm

>  <Rbt.Receptor>
prm/blind_docking_60.prm

>  <SCORE>
-12.2173

>  <SCORE.INTER>
-14.1589

>  <SCORE.INTER.CONST>
1

>  <SCORE.INTER.POLAR>
0

>  <SCORE.INTER.ROT>
7

>  <SCORE.INTER.SOLV>
15.5859

>  <SCORE.INTER.VDW>
-22.9012

>  <SCORE.INTER.norm>
-0.524403

>  <SCORE.INTRA>
1.94162

>  <SCORE.INTRA.DIHEDRAL>
6.69328

>  <SCORE.INTRA.DIHEDRAL.0>
4.28829

>  <SCORE.INTRA.POLAR>
0

>  <SCORE.INTRA.POLAR.0>
0

>  <SCORE.INTRA.REPUL>
0

>  <SCORE.INTRA.REPUL.0>
0

>  <SCORE.INTRA.SOLV>
-0.698636

>  <SCORE.INTRA.SOLV.lig_0>
-48.6018

>  <SCORE.INTRA.VDW>
-1.0557

>  <SCORE.INTRA.VDW.0>
-2.1506

>  <SCORE.INTRA.norm>
0.071912

>  <SCORE.RESTR>
0

>  <SCORE.RESTR.CAVITY>
0

>  <SCORE.RESTR.norm>
0

>  <SCORE.SYSTEM>
0

>  <SCORE.SYSTEM.CONST>
0

>  <SCORE.SYSTEM.DIHEDRAL>
0

>  <SCORE.SYSTEM.SOLV>
0

>  <SCORE.SYSTEM.norm>
0

>  <SCORE.heavy>
27

>  <SCORE.norm>
-0.452491

>  <RMSD>
13.721

$$$$
ligand
 OpenBabel11021811483D
libRbt.so/2013.1/901 2013/11/27
 27 29  0  0  0  0  0  0  0  0999 V2000
    7.8522    1.4029   16.6622 N   0  0  0  0  0  0  0  0  0  0  0  0
    8.7979    0.4588   17.2608 C   0  0  2  0  0  0  0  0  0  0  0  0
    8.8590   -0.9241   16.6077 C   0  0  0  0  0  0  0  0  0  0  0  0
    9.9590   -1.3994   16.3285 O   0  0  0  0  0  0  0  0  0  0  0  0
    8.5662    0.3327   18.7572 C   0  0  0  0  0  0  0  0  0  0  0  0
    9.7164   -0.3854   19.4419 C   0  0  0  0  0  0  0  0  0  0  0  0
    9.4925   -0.3861   21.2294 S   0  0  2  0  0  0  0  0  0  0  0  0
   11.2108   -0.5443   21.7600 C   0  0  0  0  0  0  0  0  0  0  0  0
    8.9384   -2.0869   21.4916 C   0  0  0  0  0  0  0  0  0  0  0  0
    7.5910   -2.3247   20.8350 C   0  0  1  0  0  0  0  0  0  0  0  0
    7.7453   -2.5497   19.4524 O   0  0  0  0  0  0  0  0  0  0  0  0
    6.8922   -3.5630   21.3610 C   0  0  1  0  0  0  0  0  0  0  0  0
    6.0447   -3.1799   22.4145 O   0  0  0  0  0  0  0  0  0  0  0  0
    6.0938   -4.0525   20.1698 C   0  0  1  0  0  0  0  0  0  0  0  0
    4.7638   -3.6198   20.3484 O   0  0  0  0  0  0  0  0  0  0  0  0
    6.7204   -3.3850   18.9437 C   0  0  2  0  0  0  0  0  0  0  0  0
    7.8519   -1.5857   16.3416 O   0  0  0  0  0  0  0  0  0  0  0  0
    9.3198   -7.9298   18.8631 N   0  0  0  0  0  0  0  0  0  0  0  0
    8.7975   -7.2766   19.9529 C   0  0  0  0  0  0  0  0  0  0  0  0
    8.1425   -6.0786   19.7698 N   0  0  0  0  0  0  0  0  0  0  0  0
    8.0033   -5.5389   18.5382 C   0  0  0  0  0  0  0  0  0  0  0  0
    8.5131   -6.1937   17.4265 C   0  0  0  0  0  0  0  0  0  0  0  0
    9.1873   -7.4011   17.5966 C   0  0  0  0  0  0  0  0  0  0  0  0
    9.6971   -8.0572   16.5539 N   0  0  0  0  0  0  0  0  0  0  0  0
    8.2272   -5.4424   16.3319 N   0  0  0  0  0  0  0  0  0  0  0  0
    7.5400   -4.3495   16.7366 C   0  0  0  0  0  0  0  0  0  0  0  0
    7.3865   -4.3975   18.1004 N   0  0  0  0  0  0  0  0  0  0  0  0
  2  1  1  6  0  0  0
  2  3  1  0  0  0  0
  2  5  1  0  0  0  0
  3  4  1  0  0  0  0
  3 17  1  0  0  0  0
  5  6  1  0  0  0  0
  7  6  1  6  0  0  0
  7  8  1  0  0  0  0
  7  9  1  0  0  0  0
 10  9  1  1  0  0  0
 10 11  1  0  0  0  0
 10 12  1  0  0  0  0
 11 16  1  0  0  0  0
 12 13  1  1  0  0  0
 12 14  1  0  0  0  0
 14 15  1  1  0  0  0
 14 16  1  0  0  0  0
 16 27  1  6  0  0  0
 18 19  2  0  0  0  0
 18 23  1  0  0  0  0
 19 20  1  0  0  0  0
 20 21  2  0  0  0  0
 21 22  1  0  0  0  0
 21 27  1  0  0  0  0
 22 23  2  0  0  0  0
 22 25  1  0  0  0  0
 23 24  1  0  0  0  0
 25 26  2  0  0  0  0
 26 27  1  0  0  0  0
M  END
>  <CHROM.1>
131.65175095,-167.13194334,174.69866837,-154.75704539,-65.28922002,80.03204451
81.30850007,8.26618490,-3.13345500,19.00375838,-1.26669950,-1.30284099,-2.66073625

>  <Name>
ligand

>  <RI>
0

>  <Rbt.Current_Directory>
/home/itssahil/PROJECTS/Mol_Feturizer/New_Systems/rnas/3GX5

>  <Rbt.Executable>
rbdock ($Id: //depot/dev/client3/rdock/2013.1/src/exe/rbdock.cxx#4 $)

>  <Rbt.Library>
libRbt.so (2013.1, Build901 2013/11/27)

>  <Rbt.Parameter_File>
/export/apps/rDock/src/rDock_2013.1_src/data/scripts/dock_solv.prm

>  <Rbt.Receptor>
prm/blind_docking_40.prm

>  <SCORE>
-12.389

>  <SCORE.INTER>
-12.1719

>  <SCORE.INTER.CONST>
1

>  <SCORE.INTER.POLAR>
0

>  <SCORE.INTER.ROT>
7

>  <SCORE.INTER.SOLV>
6.47718

>  <SCORE.INTER.VDW>
-18.5404

>  <SCORE.INTER.norm>
-0.450812

>  <SCORE.INTRA>
-0.217036

>  <SCORE.INTRA.DIHEDRAL>
3.72294

>  <SCORE.INTRA.DIHEDRAL.0>
4.28829

>  <SCORE.INTRA.POLAR>
0

>  <SCORE.INTRA.POLAR.0>
0

>  <SCORE.INTRA.REPUL>
0

>  <SCORE.INTRA.REPUL.0>
0

>  <SCORE.INTRA.SOLV>
-0.990389

>  <SCORE.INTRA.SOLV.lig_0>
-48.6018

>  <SCORE.INTRA.VDW>
-1.58331

>  <SCORE.INTRA.VDW.0>
-2.1506

>  <SCORE.INTRA.norm>
-0.00803836

>  <SCORE.RESTR>
0

>  <SCORE.RESTR.CAVITY>
0

>  <SCORE.RESTR.norm>
0

>  <SCORE.SYSTEM>
0

>  <SCORE.SYSTEM.CONST>
0

>  <SCORE.SYSTEM.DIHEDRAL>
0

>  <SCORE.SYSTEM.SOLV>
0

>  <SCORE.SYSTEM.norm>
0

>  <SCORE.heavy>
27

>  <SCORE.norm>
-0.458851

>  <RMSD>
13.738

$$$$
ligand
 OpenBabel11021811483D
libRbt.so/2013.1/901 2013/11/27
 27 29  0  0  0  0  0  0  0  0999 V2000
   11.0347   -8.1087   22.5609 N   0  0  0  0  0  0  0  0  0  0  0  0
   12.3766   -7.9996   21.9855 C   0  0  2  0  0  0  0  0  0  0  0  0
   12.8120   -6.5899   21.5782 C   0  0  0  0  0  0  0  0  0  0  0  0
   13.9719   -6.4116   21.2087 O   0  0  0  0  0  0  0  0  0  0  0  0
   12.5516   -8.9678   20.8275 C   0  0  0  0  0  0  0  0  0  0  0  0
   11.4702   -8.7834   19.7768 C   0  0  0  0  0  0  0  0  0  0  0  0
   11.7472   -9.8842   18.3781 S   0  0  2  0  0  0  0  0  0  0  0  0
   12.9733   -8.9256   17.4633 C   0  0  0  0  0  0  0  0  0  0  0  0
   10.2812   -9.5270   17.3821 C   0  0  0  0  0  0  0  0  0  0  0  0
    9.0717  -10.2755   17.9111 C   0  0  1  0  0  0  0  0  0  0  0  0
    8.7561   -9.8492   19.2168 O   0  0  0  0  0  0  0  0  0  0  0  0
    7.8191  -10.0162   17.0975 C   0  0  1  0  0  0  0  0  0  0  0  0
    7.7125  -11.0171   16.1167 O   0  0  0  0  0  0  0  0  0  0  0  0
    6.7039  -10.1314   18.1169 C   0  0  1  0  0  0  0  0  0  0  0  0
    6.1387  -11.4157   17.9788 O   0  0  0  0  0  0  0  0  0  0  0  0
    7.3710   -9.9777   19.4854 C   0  0  2  0  0  0  0  0  0  0  0  0
   12.0523   -5.6180   21.6085 O   0  0  0  0  0  0  0  0  0  0  0  0
    3.4958   -6.5038   20.0622 N   0  0  0  0  0  0  0  0  0  0  0  0
    3.4783   -7.6747   19.3440 C   0  0  0  0  0  0  0  0  0  0  0  0
    4.6086   -8.4615   19.3112 N   0  0  0  0  0  0  0  0  0  0  0  0
    5.7301   -8.1023   19.9750 C   0  0  0  0  0  0  0  0  0  0  0  0
    5.7585   -6.9297   20.7159 C   0  0  0  0  0  0  0  0  0  0  0  0
    4.6265   -6.1180   20.7503 C   0  0  0  0  0  0  0  0  0  0  0  0
    4.6167   -4.9804   21.4455 N   0  0  0  0  0  0  0  0  0  0  0  0
    6.9896   -6.8211   21.2785 N   0  0  0  0  0  0  0  0  0  0  0  0
    7.7166   -7.9038   20.9181 C   0  0  0  0  0  0  0  0  0  0  0  0
    6.9484   -8.7113   20.1160 N   0  0  0  0  0  0  0  0  0  0  0  0
  2  1  1  6  0  0  0
  2  3  1  0  0  0  0
  2  5  1  0  0  0  0
  3  4  1  0  0  0  0
  3 17  1  0  0  0  0
  5  6  1  0  0  0  0
  7  6  1  1  0  0  0
  7  8  1  0  0  0  0
  7  9  1  0  0  0  0
 10  9  1  6  0  0  0
 10 11  1  0  0  0  0
 10 12  1  0  0  0  0
 11 16  1  0  0  0  0
 12 13  1  6  0  0  0
 12 14  1  0  0  0  0
 14 15  1  1  0  0  0
 14 16  1  0  0  0  0
 16 27  1  6  0  0  0
 18 19  2  0  0  0  0
 18 23  1  0  0  0  0
 19 20  1  0  0  0  0
 20 21  2  0  0  0  0
 21 22  1  0  0  0  0
 21 27  1  0  0  0  0
 22 23  2  0  0  0  0
 22 25  1  0  0  0  0
 23 24  1  0  0  0  0
 25 26  2  0  0  0  0
 26 27  1  0  0  0  0
M  END
>  <CHROM.1>
173.12022864,54.59586967,177.16050549,-81.89660657,-80.16383338,63.16239625
146.21532791,8.72254205,-8.46265010,19.63017493,0.02173375,-0.07160057,0.77648232

>  <Name>
ligand

>  <RI>
0

>  <Rbt.Current_Directory>
/home/itssahil/PROJECTS/Mol_Feturizer/New_Systems/rnas/3GX5

>  <Rbt.Executable>
rbdock ($Id: //depot/dev/client3/rdock/2013.1/src/exe/rbdock.cxx#4 $)

>  <Rbt.Library>
libRbt.so (2013.1, Build901 2013/11/27)

>  <Rbt.Parameter_File>
/export/apps/rDock/src/rDock_2013.1_src/data/scripts/dock_solv.prm

>  <Rbt.Receptor>
prm/blind_docking_60.prm

>  <SCORE>
-12.9566

>  <SCORE.INTER>
-13.0343

>  <SCORE.INTER.CONST>
1

>  <SCORE.INTER.POLAR>
0

>  <SCORE.INTER.ROT>
7

>  <SCORE.INTER.SOLV>
7.50298

>  <SCORE.INTER.VDW>
-19.4572

>  <SCORE.INTER.norm>
-0.482751

>  <SCORE.INTRA>
0.0776411

>  <SCORE.INTRA.DIHEDRAL>
0.255662

>  <SCORE.INTRA.DIHEDRAL.0>
4.28829

>  <SCORE.INTRA.POLAR>
0

>  <SCORE.INTRA.POLAR.0>
0

>  <SCORE.INTRA.REPUL>
0

>  <SCORE.INTRA.REPUL.0>
0

>  <SCORE.INTRA.SOLV>
-0.276787

>  <SCORE.INTRA.SOLV.lig_0>
-48.6018

>  <SCORE.INTRA.VDW>
0.0882036

>  <SCORE.INTRA.VDW.0>
-2.1506

>  <SCORE.INTRA.norm>
0.00287559

>  <SCORE.RESTR>
0

>  <SCORE.RESTR.CAVITY>
0

>  <SCORE.RESTR.norm>
0

>  <SCORE.SYSTEM>
0

>  <SCORE.SYSTEM.CONST>
0

>  <SCORE.SYSTEM.DIHEDRAL>
0

>  <SCORE.SYSTEM.SOLV>
0

>  <SCORE.SYSTEM.norm>
0

>  <SCORE.heavy>
27

>  <SCORE.norm>
-0.479875

>  <RMSD>
13.831

$$$$
ligand
 OpenBabel11021811483D
libRbt.so/2013.1/901 2013/11/27
 27 29  0  0  0  0  0  0  0  0999 V2000
    6.8607   -4.9537   20.6585 N   0  0  0  0  0  0  0  0  0  0  0  0
    8.0493   -5.6533   21.1500 C   0  0  2  0  0  0  0  0  0  0  0  0
    8.2478   -7.0765   20.6229 C   0  0  0  0  0  0  0  0  0  0  0  0
    9.1972   -7.3040   19.8743 O   0  0  0  0  0  0  0  0  0  0  0  0
    8.1020   -5.6342   22.6684 C   0  0  0  0  0  0  0  0  0  0  0  0
    9.4777   -6.0197   23.1845 C   0  0  0  0  0  0  0  0  0  0  0  0
    9.6605   -7.8112   23.2329 S   0  0  2  0  0  0  0  0  0  0  0  0
    8.8587   -8.1652   24.8111 C   0  0  0  0  0  0  0  0  0  0  0  0
   11.3913   -7.9524   23.7359 C   0  0  0  0  0  0  0  0  0  0  0  0
   12.2933   -8.1300   22.5285 C   0  0  1  0  0  0  0  0  0  0  0  0
   11.9775   -9.3206   21.8436 O   0  0  0  0  0  0  0  0  0  0  0  0
   12.1238   -7.0273   21.5020 C   0  0  1  0  0  0  0  0  0  0  0  0
   13.0734   -6.0256   21.7667 O   0  0  0  0  0  0  0  0  0  0  0  0
   12.4147   -7.7199   20.1861 C   0  0  1  0  0  0  0  0  0  0  0  0
   13.7422   -7.4055   19.8297 O   0  0  0  0  0  0  0  0  0  0  0  0
   12.2681   -9.2180   20.4608 C   0  0  2  0  0  0  0  0  0  0  0  0
    7.4934   -8.0098   20.9105 O   0  0  0  0  0  0  0  0  0  0  0  0
   10.4143  -11.0307   15.9116 N   0  0  0  0  0  0  0  0  0  0  0  0
   11.6944  -10.6223   16.1975 C   0  0  0  0  0  0  0  0  0  0  0  0
   11.9900  -10.1713   17.4651 N   0  0  0  0  0  0  0  0  0  0  0  0
   11.0441  -10.1272   18.4299 C   0  0  0  0  0  0  0  0  0  0  0  0
    9.7504  -10.5494   18.1601 C   0  0  0  0  0  0  0  0  0  0  0  0
    9.4334  -10.9985   16.8799 C   0  0  0  0  0  0  0  0  0  0  0  0
    8.1999  -11.4063   16.5798 N   0  0  0  0  0  0  0  0  0  0  0  0
    9.0195  -10.4072   19.2958 N   0  0  0  0  0  0  0  0  0  0  0  0
    9.8317   -9.9241   20.2640 C   0  0  0  0  0  0  0  0  0  0  0  0
   11.0916   -9.7517   19.7458 N   0  0  0  0  0  0  0  0  0  0  0  0
  2  1  1  1  0  0  0
  2  3  1  0  0  0  0
  2  5  1  0  0  0  0
  3  4  1  0  0  0  0
  3 17  1  0  0  0  0
  5  6  1  0  0  0  0
  7  6  1  1  0  0  0
  7  8  1  0  0  0  0
  7  9  1  0  0  0  0
 10  9  1  1  0  0  0
 10 11  1  0  0  0  0
 10 12  1  0  0  0  0
 11 16  1  0  0  0  0
 12 13  1  1  0  0  0
 12 14  1  0  0  0  0
 14 15  1  1  0  0  0
 14 16  1  0  0  0  0
 16 27  1  6  0  0  0
 18 19  2  0  0  0  0
 18 23  1  0  0  0  0
 19 20  1  0  0  0  0
 20 21  2  0  0  0  0
 21 22  1  0  0  0  0
 21 27  1  0  0  0  0
 22 23  2  0  0  0  0
 22 25  1  0  0  0  0
 23 24  1  0  0  0  0
 25 26  2  0  0  0  0
 26 27  1  0  0  0  0
M  END
>  <CHROM.1>
112.45406303,-165.03510030,-82.59755766,-82.71896175,-95.64138340,-62.07584762
-164.13641165,10.26745368,-8.37501962,20.50108516,1.69356687,-0.14145394
0.98154546

>  <Name>
ligand

>  <RI>
0

>  <Rbt.Current_Directory>
/home/itssahil/PROJECTS/Mol_Feturizer/New_Systems/rnas/3GX5

>  <Rbt.Executable>
rbdock ($Id: //depot/dev/client3/rdock/2013.1/src/exe/rbdock.cxx#4 $)

>  <Rbt.Library>
libRbt.so (2013.1, Build901 2013/11/27)

>  <Rbt.Parameter_File>
/export/apps/rDock/src/rDock_2013.1_src/data/scripts/dock_solv.prm

>  <Rbt.Receptor>
prm/blind_docking_40.prm

>  <SCORE>
-12.2024

>  <SCORE.INTER>
-10.9936

>  <SCORE.INTER.CONST>
1

>  <SCORE.INTER.POLAR>
0

>  <SCORE.INTER.ROT>
7

>  <SCORE.INTER.SOLV>
7.7347

>  <SCORE.INTER.VDW>
-18.174

>  <SCORE.INTER.norm>
-0.40717

>  <SCORE.INTRA>
-1.20883

>  <SCORE.INTRA.DIHEDRAL>
3.84811

>  <SCORE.INTRA.DIHEDRAL.0>
4.28829

>  <SCORE.INTRA.POLAR>
0

>  <SCORE.INTRA.POLAR.0>
0

>  <SCORE.INTRA.REPUL>
0

>  <SCORE.INTRA.REPUL.0>
0

>  <SCORE.INTRA.SOLV>
-0.833401

>  <SCORE.INTRA.SOLV.lig_0>
-48.6018

>  <SCORE.INTRA.VDW>
-2.71619

>  <SCORE.INTRA.VDW.0>
-2.1506

>  <SCORE.INTRA.norm>
-0.0447715

>  <SCORE.RESTR>
0

>  <SCORE.RESTR.CAVITY>
0

>  <SCORE.RESTR.norm>
0

>  <SCORE.SYSTEM>
0

>  <SCORE.SYSTEM.CONST>
0

>  <SCORE.SYSTEM.DIHEDRAL>
0

>  <SCORE.SYSTEM.SOLV>
0

>  <SCORE.SYSTEM.norm>
0

>  <SCORE.heavy>
27

>  <SCORE.norm>
-0.451941

>  <RMSD>
13.836

$$$$
ligand
 OpenBabel11021811483D
libRbt.so/2013.1/901 2013/11/27
 27 29  0  0  0  0  0  0  0  0999 V2000
   10.6261   -9.2816   17.0660 N   0  0  0  0  0  0  0  0  0  0  0  0
   10.8507   -7.8372   16.9821 C   0  0  2  0  0  0  0  0  0  0  0  0
    9.7275   -7.0272   16.3300 C   0  0  0  0  0  0  0  0  0  0  0  0
    9.2435   -6.0805   16.9489 O   0  0  0  0  0  0  0  0  0  0  0  0
   12.1833   -7.5320   16.3189 C   0  0  0  0  0  0  0  0  0  0  0  0
   13.3402   -8.1652   17.0725 C   0  0  0  0  0  0  0  0  0  0  0  0
   13.4780   -7.4697   18.7286 S   0  0  2  0  0  0  0  0  0  0  0  0
   15.1213   -8.0639   19.1819 C   0  0  0  0  0  0  0  0  0  0  0  0
   12.4658   -8.6406   19.6631 C   0  0  0  0  0  0  0  0  0  0  0  0
   12.4726   -8.3018   21.1424 C   0  0  1  0  0  0  0  0  0  0  0  0
   11.7966   -7.0876   21.3767 O   0  0  0  0  0  0  0  0  0  0  0  0
   11.7411   -9.3296   21.9831 C   0  0  1  0  0  0  0  0  0  0  0  0
   12.6752  -10.2758   22.4383 O   0  0  0  0  0  0  0  0  0  0  0  0
   11.1851   -8.5156   23.1339 C   0  0  1  0  0  0  0  0  0  0  0  0
   12.0457   -8.7016   24.2351 O   0  0  0  0  0  0  0  0  0  0  0  0
   11.2109   -7.0588   22.6664 C   0  0  2  0  0  0  0  0  0  0  0  0
    9.2787   -7.2837   15.2094 O   0  0  0  0  0  0  0  0  0  0  0  0
    8.2187   -3.0617   21.0891 N   0  0  0  0  0  0  0  0  0  0  0  0
    9.5895   -3.1491   21.0658 C   0  0  0  0  0  0  0  0  0  0  0  0
   10.1993   -4.2937   21.5302 N   0  0  0  0  0  0  0  0  0  0  0  0
    9.4723   -5.3302   22.0043 C   0  0  0  0  0  0  0  0  0  0  0  0
    8.0868   -5.2621   22.0213 C   0  0  0  0  0  0  0  0  0  0  0  0
    7.4557   -4.1070   21.5645 C   0  0  0  0  0  0  0  0  0  0  0  0
    6.1267   -4.0008   21.5710 N   0  0  0  0  0  0  0  0  0  0  0  0
    7.6177   -6.4293   22.5330 N   0  0  0  0  0  0  0  0  0  0  0  0
    8.6764   -7.2225   22.8170 C   0  0  0  0  0  0  0  0  0  0  0  0
    9.8330   -6.5591   22.4886 N   0  0  0  0  0  0  0  0  0  0  0  0
  2  1  1  6  0  0  0
  2  3  1  0  0  0  0
  2  5  1  0  0  0  0
  3  4  1  0  0  0  0
  3 17  1  0  0  0  0
  5  6  1  0  0  0  0
  7  6  1  6  0  0  0
  7  8  1  0  0  0  0
  7  9  1  0  0  0  0
 10  9  1  6  0  0  0
 10 11  1  0  0  0  0
 10 12  1  0  0  0  0
 11 16  1  0  0  0  0
 12 13  1  1  0  0  0
 12 14  1  0  0  0  0
 14 15  1  1  0  0  0
 14 16  1  0  0  0  0
 16 27  1  6  0  0  0
 18 19  2  0  0  0  0
 18 23  1  0  0  0  0
 19 20  1  0  0  0  0
 20 21  2  0  0  0  0
 21 22  1  0  0  0  0
 21 27  1  0  0  0  0
 22 23  2  0  0  0  0
 22 25  1  0  0  0  0
 23 24  1  0  0  0  0
 25 26  2  0  0  0  0
 26 27  1  0  0  0  0
M  END
>  <CHROM.1>
125.72010299,-58.45346314,-63.61589410,-165.97023175,177.36555657,67.88384507
-62.03401604,10.74542266,-6.97744124,20.22388761,0.67004678,0.68535978,-1.52617891

>  <Name>
ligand

>  <RI>
0

>  <Rbt.Current_Directory>
/home/itssahil/PROJECTS/Mol_Feturizer/New_Systems/rnas/3GX5

>  <Rbt.Executable>
rbdock ($Id: //depot/dev/client3/rdock/2013.1/src/exe/rbdock.cxx#4 $)

>  <Rbt.Library>
libRbt.so (2013.1, Build901 2013/11/27)

>  <Rbt.Parameter_File>
/export/apps/rDock/src/rDock_2013.1_src/data/scripts/dock_solv.prm

>  <Rbt.Receptor>
prm/blind_docking_100.prm

>  <SCORE>
-12.0871

>  <SCORE.INTER>
-13.1292

>  <SCORE.INTER.CONST>
1

>  <SCORE.INTER.POLAR>
0

>  <SCORE.INTER.ROT>
7

>  <SCORE.INTER.SOLV>
9.13124

>  <SCORE.INTER.VDW>
-20.0632

>  <SCORE.INTER.norm>
-0.486267

>  <SCORE.INTRA>
1.03577

>  <SCORE.INTRA.DIHEDRAL>
0.943991

>  <SCORE.INTRA.DIHEDRAL.0>
4.28829

>  <SCORE.INTRA.POLAR>
0

>  <SCORE.INTRA.POLAR.0>
0

>  <SCORE.INTRA.REPUL>
0

>  <SCORE.INTRA.REPUL.0>
0

>  <SCORE.INTRA.SOLV>
1.14344

>  <SCORE.INTRA.SOLV.lig_0>
-48.6018

>  <SCORE.INTRA.VDW>
-0.00794868

>  <SCORE.INTRA.VDW.0>
-2.1506

>  <SCORE.INTRA.norm>
0.0383617

>  <SCORE.RESTR>
0.00633275

>  <SCORE.RESTR.CAVITY>
0.00633275

>  <SCORE.RESTR.norm>
0.000234546

>  <SCORE.SYSTEM>
0

>  <SCORE.SYSTEM.CONST>
0

>  <SCORE.SYSTEM.DIHEDRAL>
0

>  <SCORE.SYSTEM.SOLV>
0

>  <SCORE.SYSTEM.norm>
0

>  <SCORE.heavy>
27

>  <SCORE.norm>
-0.447671

>  <RMSD>
13.862

$$$$
ligand
 OpenBabel11021811483D
libRbt.so/2013.1/901 2013/11/27
 27 29  0  0  0  0  0  0  0  0999 V2000
   12.2002   -7.7129   14.3365 N   0  0  0  0  0  0  0  0  0  0  0  0
   11.3408   -8.4080   15.2969 C   0  0  2  0  0  0  0  0  0  0  0  0
    9.8486   -8.4315   14.9572 C   0  0  0  0  0  0  0  0  0  0  0  0
    9.3184   -7.4004   14.5454 O   0  0  0  0  0  0  0  0  0  0  0  0
   11.5596   -7.8786   16.7042 C   0  0  0  0  0  0  0  0  0  0  0  0
   12.9982   -8.0664   17.1543 C   0  0  0  0  0  0  0  0  0  0  0  0
   13.2045   -7.5379   18.8641 S   0  0  2  0  0  0  0  0  0  0  0  0
   14.9792   -7.8036   19.0619 C   0  0  0  0  0  0  0  0  0  0  0  0
   12.5827   -8.9942   19.7366 C   0  0  0  0  0  0  0  0  0  0  0  0
   12.2048   -8.6491   21.1652 C   0  0  1  0  0  0  0  0  0  0  0  0
   11.1631   -7.7001   21.1878 O   0  0  0  0  0  0  0  0  0  0  0  0
   11.6701   -9.8407   21.9350 C   0  0  1  0  0  0  0  0  0  0  0  0
   12.7408  -10.4453   22.6156 O   0  0  0  0  0  0  0  0  0  0  0  0
   10.6861   -9.2222   22.9073 C   0  0  1  0  0  0  0  0  0  0  0  0
   11.3360   -9.1175   24.1541 O   0  0  0  0  0  0  0  0  0  0  0  0
   10.3611   -7.8356   22.3478 C   0  0  2  0  0  0  0  0  0  0  0  0
    9.1476   -9.4392   15.0827 O   0  0  0  0  0  0  0  0  0  0  0  0
    6.7513   -9.9503   19.1988 N   0  0  0  0  0  0  0  0  0  0  0  0
    8.0596  -10.3369   19.3606 C   0  0  0  0  0  0  0  0  0  0  0  0
    8.8611   -9.6479   20.2440 N   0  0  0  0  0  0  0  0  0  0  0  0
    8.3814   -8.6024   20.9542 C   0  0  0  0  0  0  0  0  0  0  0  0
    7.0587   -8.2090   20.8119 C   0  0  0  0  0  0  0  0  0  0  0  0
    6.2382   -8.8896   19.9147 C   0  0  0  0  0  0  0  0  0  0  0  0
    4.9635   -8.5374   19.7450 N   0  0  0  0  0  0  0  0  0  0  0  0
    6.8458   -7.1535   21.6393 N   0  0  0  0  0  0  0  0  0  0  0  0
    7.9975   -6.8953   22.3008 C   0  0  0  0  0  0  0  0  0  0  0  0
    8.9572   -7.7888   21.8930 N   0  0  0  0  0  0  0  0  0  0  0  0
  2  1  1  6  0  0  0
  2  3  1  0  0  0  0
  2  5  1  0  0  0  0
  3  4  1  0  0  0  0
  3 17  1  0  0  0  0
  5  6  1  0  0  0  0
  7  6  1  6  0  0  0
  7  8  1  0  0  0  0
  7  9  1  0  0  0  0
 10  9  1  6  0  0  0
 10 11  1  0  0  0  0
 10 12  1  0  0  0  0
 11 16  1  0  0  0  0
 12 13  1  1  0  0  0
 12 14  1  0  0  0  0
 14 15  1  1  0  0  0
 14 16  1  0  0  0  0
 16 27  1  6  0  0  0
 18 19  2  0  0  0  0
 18 23  1  0  0  0  0
 19 20  1  0  0  0  0
 20 21  2  0  0  0  0
 21 22  1  0  0  0  0
 21 27  1  0  0  0  0
 22 23  2  0  0  0  0
 22 25  1  0  0  0  0
 23 24  1  0  0  0  0
 25 26  2  0  0  0  0
 26 27  1  0  0  0  0
M  END
>  <CHROM.1>
-43.43784226,-59.98862102,-176.02536340,-177.42080879,-160.65292469,62.32111016
55.82243630,10.28046885,-8.49194465,19.50535307,-1.21603285,0.03981352,1.64629947

>  <Name>
ligand

>  <RI>
0

>  <Rbt.Current_Directory>
/home/itssahil/PROJECTS/Mol_Feturizer/New_Systems/rnas/3GX5

>  <Rbt.Executable>
rbdock ($Id: //depot/dev/client3/rdock/2013.1/src/exe/rbdock.cxx#4 $)

>  <Rbt.Library>
libRbt.so (2013.1, Build901 2013/11/27)

>  <Rbt.Parameter_File>
/export/apps/rDock/src/rDock_2013.1_src/data/scripts/dock_solv.prm

>  <Rbt.Receptor>
prm/blind_docking_80.prm

>  <SCORE>
-10.7974

>  <SCORE.INTER>
-10.2721

>  <SCORE.INTER.CONST>
1

>  <SCORE.INTER.POLAR>
0

>  <SCORE.INTER.ROT>
7

>  <SCORE.INTER.SOLV>
16.2636

>  <SCORE.INTER.VDW>
-20.5359

>  <SCORE.INTER.norm>
-0.380449

>  <SCORE.INTRA>
-0.525324

>  <SCORE.INTRA.DIHEDRAL>
1.58244

>  <SCORE.INTRA.DIHEDRAL.0>
4.28829

>  <SCORE.INTRA.POLAR>
0

>  <SCORE.INTRA.POLAR.0>
0

>  <SCORE.INTRA.REPUL>
0

>  <SCORE.INTRA.REPUL.0>
0

>  <SCORE.INTRA.SOLV>
-0.556785

>  <SCORE.INTRA.SOLV.lig_0>
-48.6018

>  <SCORE.INTRA.VDW>
-1.03815

>  <SCORE.INTRA.VDW.0>
-2.1506

>  <SCORE.INTRA.norm>
-0.0194565

>  <SCORE.RESTR>
0

>  <SCORE.RESTR.CAVITY>
0

>  <SCORE.RESTR.norm>
0

>  <SCORE.SYSTEM>
0

>  <SCORE.SYSTEM.CONST>
0

>  <SCORE.SYSTEM.DIHEDRAL>
0

>  <SCORE.SYSTEM.SOLV>
0

>  <SCORE.SYSTEM.norm>
0

>  <SCORE.heavy>
27

>  <SCORE.norm>
-0.399905

>  <RMSD>
13.869

$$$$
ligand
 OpenBabel11021811483D
libRbt.so/2013.1/901 2013/11/27
 27 29  0  0  0  0  0  0  0  0999 V2000
    8.7818   -5.9910   24.3133 N   0  0  0  0  0  0  0  0  0  0  0  0
    8.0433   -7.2553   24.3075 C   0  0  2  0  0  0  0  0  0  0  0  0
    8.0639   -8.0426   25.6200 C   0  0  0  0  0  0  0  0  0  0  0  0
    7.3733   -7.6478   26.5585 O   0  0  0  0  0  0  0  0  0  0  0  0
    8.4828   -8.1360   23.1498 C   0  0  0  0  0  0  0  0  0  0  0  0
    9.9724   -8.4285   23.2046 C   0  0  0  0  0  0  0  0  0  0  0  0
   10.4271   -9.6514   21.9625 S   0  0  2  0  0  0  0  0  0  0  0  0
   12.1916   -9.8094   22.3101 C   0  0  0  0  0  0  0  0  0  0  0  0
   10.5029   -8.6099   20.4867 C   0  0  0  0  0  0  0  0  0  0  0  0
   11.0272   -9.3934   19.2974 C   0  0  1  0  0  0  0  0  0  0  0  0
   10.3202  -10.6035   19.1494 O   0  0  0  0  0  0  0  0  0  0  0  0
   10.8375   -8.6620   17.9831 C   0  0  1  0  0  0  0  0  0  0  0  0
   12.0047   -7.9277   17.7120 O   0  0  0  0  0  0  0  0  0  0  0  0
   10.6519   -9.7809   16.9782 C   0  0  1  0  0  0  0  0  0  0  0  0
   11.8871   -9.9685   16.3247 O   0  0  0  0  0  0  0  0  0  0  0  0
   10.2782  -11.0193   17.7957 C   0  0  2  0  0  0  0  0  0  0  0  0
    8.7482   -9.0564   25.7836 O   0  0  0  0  0  0  0  0  0  0  0  0
    5.6163   -9.4408   16.0087 N   0  0  0  0  0  0  0  0  0  0  0  0
    6.7804   -8.7152   16.0828 C   0  0  0  0  0  0  0  0  0  0  0  0
    7.9143   -9.3112   16.5897 N   0  0  0  0  0  0  0  0  0  0  0  0
    7.9003  -10.5955   17.0113 C   0  0  0  0  0  0  0  0  0  0  0  0
    6.7359  -11.3452   16.9298 C   0  0  0  0  0  0  0  0  0  0  0  0
    5.5782  -10.7534   16.4290 C   0  0  0  0  0  0  0  0  0  0  0  0
    4.4380  -11.4388   16.3410 N   0  0  0  0  0  0  0  0  0  0  0  0
    7.0050  -12.5877   17.4073 N   0  0  0  0  0  0  0  0  0  0  0  0
    8.3089  -12.6298   17.7660 C   0  0  0  0  0  0  0  0  0  0  0  0
    8.8800  -11.4054   17.5203 N   0  0  0  0  0  0  0  0  0  0  0  0
  2  1  1  1  0  0  0
  2  3  1  0  0  0  0
  2  5  1  0  0  0  0
  3  4  1  0  0  0  0
  3 17  1  0  0  0  0
  5  6  1  0  0  0  0
  7  6  1  1  0  0  0
  7  8  1  0  0  0  0
  7  9  1  0  0  0  0
 10  9  1  1  0  0  0
 10 11  1  0  0  0  0
 10 12  1  0  0  0  0
 11 16  1  0  0  0  0
 12 13  1  6  0  0  0
 12 14  1  0  0  0  0
 14 15  1  1  0  0  0
 14 16  1  0  0  0  0
 16 27  1  6  0  0  0
 18 19  2  0  0  0  0
 18 23  1  0  0  0  0
 19 20  1  0  0  0  0
 20 21  2  0  0  0  0
 21 22  1  0  0  0  0
 21 27  1  0  0  0  0
 22 23  2  0  0  0  0
 22 25  1  0  0  0  0
 23 24  1  0  0  0  0
 25 26  2  0  0  0  0
 26 27  1  0  0  0  0
M  END
>  <CHROM.1>
74.87871291,58.01686204,172.17177217,-178.43840204,173.68904431,50.54039223
92.61264804,8.98887861,-9.53469173,19.86448030,1.43932236,0.11479632,1.27784389

>  <Name>
ligand

>  <RI>
0

>  <Rbt.Current_Directory>
/home/itssahil/PROJECTS/Mol_Feturizer/New_Systems/rnas/3GX5

>  <Rbt.Executable>
rbdock ($Id: //depot/dev/client3/rdock/2013.1/src/exe/rbdock.cxx#4 $)

>  <Rbt.Library>
libRbt.so (2013.1, Build901 2013/11/27)

>  <Rbt.Parameter_File>
/export/apps/rDock/src/rDock_2013.1_src/data/scripts/dock_solv.prm

>  <Rbt.Receptor>
prm/blind_docking_40.prm

>  <SCORE>
-9.16107

>  <SCORE.INTER>
-9.89815

>  <SCORE.INTER.CONST>
1

>  <SCORE.INTER.POLAR>
0

>  <SCORE.INTER.ROT>
7

>  <SCORE.INTER.SOLV>
15.9382

>  <SCORE.INTER.VDW>
-20.1782

>  <SCORE.INTER.norm>
-0.366598

>  <SCORE.INTRA>
0.737075

>  <SCORE.INTRA.DIHEDRAL>
-0.00689032

>  <SCORE.INTRA.DIHEDRAL.0>
4.28829

>  <SCORE.INTRA.POLAR>
0

>  <SCORE.INTRA.POLAR.0>
0

>  <SCORE.INTRA.REPUL>
0

>  <SCORE.INTRA.REPUL.0>
0

>  <SCORE.INTRA.SOLV>
-0.553997

>  <SCORE.INTRA.SOLV.lig_0>
-48.6018

>  <SCORE.INTRA.VDW>
1.01752

>  <SCORE.INTRA.VDW.0>
-2.1506

>  <SCORE.INTRA.norm>
0.0272991

>  <SCORE.RESTR>
0

>  <SCORE.RESTR.CAVITY>
0

>  <SCORE.RESTR.norm>
0

>  <SCORE.SYSTEM>
0

>  <SCORE.SYSTEM.CONST>
0

>  <SCORE.SYSTEM.DIHEDRAL>
0

>  <SCORE.SYSTEM.SOLV>
0

>  <SCORE.SYSTEM.norm>
0

>  <SCORE.heavy>
27

>  <SCORE.norm>
-0.339299

>  <RMSD>
13.949

$$$$
ligand
 OpenBabel11021811483D
libRbt.so/2013.1/901 2013/11/27
 27 29  0  0  0  0  0  0  0  0999 V2000
    7.5514  -14.6304   15.9463 N   0  0  0  0  0  0  0  0  0  0  0  0
    7.8210  -13.3577   16.6180 C   0  0  2  0  0  0  0  0  0  0  0  0
    8.8256  -13.4151   17.7714 C   0  0  0  0  0  0  0  0  0  0  0  0
    8.7943  -14.3779   18.5368 O   0  0  0  0  0  0  0  0  0  0  0  0
    6.5291  -12.6962   17.0679 C   0  0  0  0  0  0  0  0  0  0  0  0
    6.7684  -11.2781   17.5569 C   0  0  0  0  0  0  0  0  0  0  0  0
    5.2401  -10.5511   18.1740 S   0  0  2  0  0  0  0  0  0  0  0  0
    4.3709  -10.2794   16.6152 C   0  0  0  0  0  0  0  0  0  0  0  0
    5.7907   -8.8623   18.5104 C   0  0  0  0  0  0  0  0  0  0  0  0
    6.3756   -8.7514   19.9063 C   0  0  1  0  0  0  0  0  0  0  0  0
    7.5126   -9.5741   20.0350 O   0  0  0  0  0  0  0  0  0  0  0  0
    6.8621   -7.3523   20.2294 C   0  0  1  0  0  0  0  0  0  0  0  0
    5.8207   -6.6574   20.8678 O   0  0  0  0  0  0  0  0  0  0  0  0
    8.0202   -7.5896   21.1773 C   0  0  1  0  0  0  0  0  0  0  0  0
    7.5423   -7.3774   22.4867 O   0  0  0  0  0  0  0  0  0  0  0  0
    8.4291   -9.0509   20.9802 C   0  0  2  0  0  0  0  0  0  0  0  0
    9.6657  -12.5343   17.9741 O   0  0  0  0  0  0  0  0  0  0  0  0
   13.2847   -7.0937   20.8800 N   0  0  0  0  0  0  0  0  0  0  0  0
   12.2484   -6.7356   21.7076 C   0  0  0  0  0  0  0  0  0  0  0  0
   11.0331   -7.3713   21.5786 N   0  0  0  0  0  0  0  0  0  0  0  0
   10.8456   -8.3409   20.6555 C   0  0  0  0  0  0  0  0  0  0  0  0
   11.8867   -8.7231   19.8221 C   0  0  0  0  0  0  0  0  0  0  0  0
   13.1189   -8.0823   19.9334 C   0  0  0  0  0  0  0  0  0  0  0  0
   14.1418   -8.4167   19.1462 N   0  0  0  0  0  0  0  0  0  0  0  0
   11.4298   -9.7101   19.0089 N   0  0  0  0  0  0  0  0  0  0  0  0
   10.1390   -9.9587   19.3295 C   0  0  0  0  0  0  0  0  0  0  0  0
    9.7637   -9.1237   20.3529 N   0  0  0  0  0  0  0  0  0  0  0  0
  2  1  1  1  0  0  0
  2  3  1  0  0  0  0
  2  5  1  0  0  0  0
  3  4  1  0  0  0  0
  3 17  1  0  0  0  0
  5  6  1  0  0  0  0
  7  6  1  6  0  0  0
  7  8  1  0  0  0  0
  7  9  1  0  0  0  0
 10  9  1  6  0  0  0
 10 11  1  0  0  0  0
 10 12  1  0  0  0  0
 11 16  1  0  0  0  0
 12 13  1  1  0  0  0
 12 14  1  0  0  0  0
 14 15  1  1  0  0  0
 14 16  1  0  0  0  0
 16 27  1  6  0  0  0
 18 19  2  0  0  0  0
 18 23  1  0  0  0  0
 19 20  1  0  0  0  0
 20 21  2  0  0  0  0
 21 22  1  0  0  0  0
 21 27  1  0  0  0  0
 22 23  2  0  0  0  0
 22 25  1  0  0  0  0
 23 24  1  0  0  0  0
 25 26  2  0  0  0  0
 26 27  1  0  0  0  0
M  END
>  <CHROM.1>
-39.59979927,-170.57192084,-176.66810310,-72.66233636,-87.03838701,62.15804959
155.29018015,8.62235820,-9.77223224,19.29783713,-2.29090202,-0.08329972,0.57483830

>  <Name>
ligand

>  <RI>
0

>  <Rbt.Current_Directory>
/home/itssahil/PROJECTS/Mol_Feturizer/New_Systems/rnas/3GX5

>  <Rbt.Executable>
rbdock ($Id: //depot/dev/client3/rdock/2013.1/src/exe/rbdock.cxx#4 $)

>  <Rbt.Library>
libRbt.so (2013.1, Build901 2013/11/27)

>  <Rbt.Parameter_File>
/export/apps/rDock/src/rDock_2013.1_src/data/scripts/dock_solv.prm

>  <Rbt.Receptor>
prm/blind_docking_100.prm

>  <SCORE>
-17.1801

>  <SCORE.INTER>
-16.5897

>  <SCORE.INTER.CONST>
1

>  <SCORE.INTER.POLAR>
0

>  <SCORE.INTER.ROT>
7

>  <SCORE.INTER.SOLV>
13.3993

>  <SCORE.INTER.VDW>
-23.7929

>  <SCORE.INTER.norm>
-0.614433

>  <SCORE.INTRA>
-0.590439

>  <SCORE.INTRA.DIHEDRAL>
0.484376

>  <SCORE.INTRA.DIHEDRAL.0>
4.28829

>  <SCORE.INTRA.POLAR>
0

>  <SCORE.INTRA.POLAR.0>
0

>  <SCORE.INTRA.REPUL>
0

>  <SCORE.INTRA.REPUL.0>
0

>  <SCORE.INTRA.SOLV>
-1.20786

>  <SCORE.INTRA.SOLV.lig_0>
-48.6018

>  <SCORE.INTRA.VDW>
-0.228698

>  <SCORE.INTRA.VDW.0>
-2.1506

>  <SCORE.INTRA.norm>
-0.0218681

>  <SCORE.RESTR>
0

>  <SCORE.RESTR.CAVITY>
0

>  <SCORE.RESTR.norm>
0

>  <SCORE.SYSTEM>
0

>  <SCORE.SYSTEM.CONST>
0

>  <SCORE.SYSTEM.DIHEDRAL>
0

>  <SCORE.SYSTEM.SOLV>
0

>  <SCORE.SYSTEM.norm>
0

>  <SCORE.heavy>
27

>  <SCORE.norm>
-0.636301

>  <RMSD>
14.013

$$$$
ligand
 OpenBabel11021811483D
libRbt.so/2013.1/901 2013/11/27
 27 29  0  0  0  0  0  0  0  0999 V2000
    8.7268   -3.6893   23.8493 N   0  0  0  0  0  0  0  0  0  0  0  0
    8.3961   -5.1127   23.9416 C   0  0  2  0  0  0  0  0  0  0  0  0
    6.9420   -5.4353   24.2943 C   0  0  0  0  0  0  0  0  0  0  0  0
    6.2136   -4.5273   24.6926 O   0  0  0  0  0  0  0  0  0  0  0  0
    9.3462   -5.8313   24.8850 C   0  0  0  0  0  0  0  0  0  0  0  0
   10.7384   -5.9532   24.2896 C   0  0  0  0  0  0  0  0  0  0  0  0
   10.7295   -7.0650   22.8722 S   0  0  2  0  0  0  0  0  0  0  0  0
   10.9827   -8.6435   23.7109 C   0  0  0  0  0  0  0  0  0  0  0  0
   12.3977   -6.7939   22.2301 C   0  0  0  0  0  0  0  0  0  0  0  0
   12.5555   -7.4140   20.8540 C   0  0  1  0  0  0  0  0  0  0  0  0
   13.6720   -6.8688   20.1889 O   0  0  0  0  0  0  0  0  0  0  0  0
   12.8187   -8.9060   20.9093 C   0  0  1  0  0  0  0  0  0  0  0  0
   11.5880   -9.5771   20.8096 O   0  0  0  0  0  0  0  0  0  0  0  0
   13.6784   -9.1599   19.6876 C   0  0  1  0  0  0  0  0  0  0  0  0
   12.8361   -9.6725   18.6797 O   0  0  0  0  0  0  0  0  0  0  0  0
   14.2409   -7.7961   19.2814 C   0  0  2  0  0  0  0  0  0  0  0  0
    6.4652   -6.5698   24.2029 O   0  0  0  0  0  0  0  0  0  0  0  0
   18.1834   -5.4350   21.7914 N   0  0  0  0  0  0  0  0  0  0  0  0
   16.8409   -5.1580   21.8809 C   0  0  0  0  0  0  0  0  0  0  0  0
   15.9497   -5.8957   21.1331 N   0  0  0  0  0  0  0  0  0  0  0  0
   16.3738   -6.8868   20.3174 C   0  0  0  0  0  0  0  0  0  0  0  0
   17.7251   -7.1875   20.2270 C   0  0  0  0  0  0  0  0  0  0  0  0
   18.6398   -6.4434   20.9693 C   0  0  0  0  0  0  0  0  0  0  0  0
   19.9470   -6.6975   20.9044 N   0  0  0  0  0  0  0  0  0  0  0  0
   17.8661   -8.2176   19.3534 N   0  0  0  0  0  0  0  0  0  0  0  0
   16.6361   -8.5717   18.9148 C   0  0  0  0  0  0  0  0  0  0  0  0
   15.6995   -7.7615   19.5080 N   0  0  0  0  0  0  0  0  0  0  0  0
  2  1  1  1  0  0  0
  2  3  1  0  0  0  0
  2  5  1  0  0  0  0
  3  4  1  0  0  0  0
  3 17  1  0  0  0  0
  5  6  1  0  0  0  0
  7  6  1  1  0  0  0
  7  8  1  0  0  0  0
  7  9  1  0  0  0  0
 10  9  1  1  0  0  0
 10 11  1  0  0  0  0
 10 12  1  0  0  0  0
 11 16  1  0  0  0  0
 12 13  1  6  0  0  0
 12 14  1  0  0  0  0
 14 15  1  6  0  0  0
 14 16  1  0  0  0  0
 16 27  1  1  0  0  0
 18 19  2  0  0  0  0
 18 23  1  0  0  0  0
 19 20  1  0  0  0  0
 20 21  2  0  0  0  0
 21 22  1  0  0  0  0
 21 27  1  0  0  0  0
 22 23  2  0  0  0  0
 22 25  1  0  0  0  0
 23 24  1  0  0  0  0
 25 26  2  0  0  0  0
 26 27  1  0  0  0  0
M  END
>  <CHROM.1>
-12.02965754,-70.83390207,-67.73053895,-87.22778407,-168.48942100,161.87198200
-7.27704088,12.93380227,-6.95973560,21.73369349,-2.77288914,-0.22254058,-2.45135964

>  <Name>
ligand

>  <RI>
0

>  <Rbt.Current_Directory>
/home/itssahil/PROJECTS/Mol_Feturizer/New_Systems/rnas/3GX5

>  <Rbt.Executable>
rbdock ($Id: //depot/dev/client3/rdock/2013.1/src/exe/rbdock.cxx#4 $)

>  <Rbt.Library>
libRbt.so (2013.1, Build901 2013/11/27)

>  <Rbt.Parameter_File>
/export/apps/rDock/src/rDock_2013.1_src/data/scripts/dock_solv.prm

>  <Rbt.Receptor>
prm/blind_docking_40.prm

>  <SCORE>
-16.3224

>  <SCORE.INTER>
-17.5517

>  <SCORE.INTER.CONST>
1

>  <SCORE.INTER.POLAR>
0

>  <SCORE.INTER.ROT>
7

>  <SCORE.INTER.SOLV>
15.8477

>  <SCORE.INTER.VDW>
-25.2504

>  <SCORE.INTER.norm>
-0.650063

>  <SCORE.INTRA>
1.2293

>  <SCORE.INTRA.DIHEDRAL>
2.91174

>  <SCORE.INTRA.DIHEDRAL.0>
4.28829

>  <SCORE.INTRA.POLAR>
0

>  <SCORE.INTRA.POLAR.0>
0

>  <SCORE.INTRA.REPUL>
0

>  <SCORE.INTRA.REPUL.0>
0

>  <SCORE.INTRA.SOLV>
0.127125

>  <SCORE.INTRA.SOLV.lig_0>
-48.6018

>  <SCORE.INTRA.VDW>
-0.290125

>  <SCORE.INTRA.VDW.0>
-2.1506

>  <SCORE.INTRA.norm>
0.0455298

>  <SCORE.RESTR>
0

>  <SCORE.RESTR.CAVITY>
0

>  <SCORE.RESTR.norm>
0

>  <SCORE.SYSTEM>
0

>  <SCORE.SYSTEM.CONST>
0

>  <SCORE.SYSTEM.DIHEDRAL>
0

>  <SCORE.SYSTEM.SOLV>
0

>  <SCORE.SYSTEM.norm>
0

>  <SCORE.heavy>
27

>  <SCORE.norm>
-0.604533

>  <RMSD>
14.015

$$$$
ligand
 OpenBabel11021811483D
libRbt.so/2013.1/901 2013/11/27
 27 29  0  0  0  0  0  0  0  0999 V2000
    8.1875  -13.1398   18.1856 N   0  0  0  0  0  0  0  0  0  0  0  0
    8.1346  -13.0114   16.7281 C   0  0  2  0  0  0  0  0  0  0  0  0
    7.4060  -14.1359   15.9883 C   0  0  0  0  0  0  0  0  0  0  0  0
    7.2012  -15.1968   16.5768 O   0  0  0  0  0  0  0  0  0  0  0  0
    9.5246  -12.8052   16.1499 C   0  0  0  0  0  0  0  0  0  0  0  0
    9.9261  -11.3404   16.1694 C   0  0  0  0  0  0  0  0  0  0  0  0
    9.0788  -10.4307   14.8657 S   0  0  2  0  0  0  0  0  0  0  0  0
   10.4281   -9.3782   14.2906 C   0  0  0  0  0  0  0  0  0  0  0  0
    8.1561   -9.2269   15.8497 C   0  0  0  0  0  0  0  0  0  0  0  0
    7.1259   -9.9179   16.7239 C   0  0  1  0  0  0  0  0  0  0  0  0
    7.5882  -10.0181   18.0514 O   0  0  0  0  0  0  0  0  0  0  0  0
    5.8234   -9.1478   16.8164 C   0  0  1  0  0  0  0  0  0  0  0  0
    4.9532   -9.6275   15.8225 O   0  0  0  0  0  0  0  0  0  0  0  0
    5.3088   -9.4864   18.2009 C   0  0  1  0  0  0  0  0  0  0  0  0
    4.3302  -10.4905   18.0519 O   0  0  0  0  0  0  0  0  0  0  0  0
    6.5158  -10.0174   18.9772 C   0  0  2  0  0  0  0  0  0  0  0  0
    7.0173  -14.0301   14.8219 O   0  0  0  0  0  0  0  0  0  0  0  0
    9.7977   -9.0128   22.9316 N   0  0  0  0  0  0  0  0  0  0  0  0
    9.8045  -10.0942   22.0845 C   0  0  0  0  0  0  0  0  0  0  0  0
    8.8483  -10.1819   21.0968 N   0  0  0  0  0  0  0  0  0  0  0  0
    7.9080   -9.2222   20.9466 C   0  0  0  0  0  0  0  0  0  0  0  0
    7.8968   -8.1174   21.7855 C   0  0  0  0  0  0  0  0  0  0  0  0
    8.8512   -8.0195   22.7959 C   0  0  0  0  0  0  0  0  0  0  0  0
    8.8693   -6.9765   23.6263 N   0  0  0  0  0  0  0  0  0  0  0  0
    6.8649   -7.3185   21.4100 N   0  0  0  0  0  0  0  0  0  0  0  0
    6.2490   -7.8927   20.3510 C   0  0  0  0  0  0  0  0  0  0  0  0
    6.8875   -9.0696   20.0466 N   0  0  0  0  0  0  0  0  0  0  0  0
  2  1  1  1  0  0  0
  2  3  1  0  0  0  0
  2  5  1  0  0  0  0
  3  4  1  0  0  0  0
  3 17  1  0  0  0  0
  5  6  1  0  0  0  0
  7  6  1  1  0  0  0
  7  8  1  0  0  0  0
  7  9  1  0  0  0  0
 10  9  1  6  0  0  0
 10 11  1  0  0  0  0
 10 12  1  0  0  0  0
 11 16  1  0  0  0  0
 12 13  1  6  0  0  0
 12 14  1  0  0  0  0
 14 15  1  6  0  0  0
 14 16  1  0  0  0  0
 16 27  1  1  0  0  0
 18 19  2  0  0  0  0
 18 23  1  0  0  0  0
 19 20  1  0  0  0  0
 20 21  2  0  0  0  0
 21 22  1  0  0  0  0
 21 27  1  0  0  0  0
 22 23  2  0  0  0  0
 22 25  1  0  0  0  0
 23 24  1  0  0  0  0
 25 26  2  0  0  0  0
 26 27  1  0  0  0  0
M  END
>  <CHROM.1>
-17.09897113,-85.42514945,-75.59990345,-138.91023767,-64.69801144,101.36541480
-66.96752787,7.76579318,-10.33727878,18.21462591,-1.60437489,-0.59510709
1.00410805

>  <Name>
ligand

>  <RI>
0

>  <Rbt.Current_Directory>
/home/itssahil/PROJECTS/Mol_Feturizer/New_Systems/rnas/3GX5

>  <Rbt.Executable>
rbdock ($Id: //depot/dev/client3/rdock/2013.1/src/exe/rbdock.cxx#4 $)

>  <Rbt.Library>
libRbt.so (2013.1, Build901 2013/11/27)

>  <Rbt.Parameter_File>
/export/apps/rDock/src/rDock_2013.1_src/data/scripts/dock_solv.prm

>  <Rbt.Receptor>
prm/blind_docking_100.prm

>  <SCORE>
-8.54902

>  <SCORE.INTER>
-13.287

>  <SCORE.INTER.CONST>
1

>  <SCORE.INTER.POLAR>
0

>  <SCORE.INTER.ROT>
7

>  <SCORE.INTER.SOLV>
10.2012

>  <SCORE.INTER.VDW>
-20.5251

>  <SCORE.INTER.norm>
-0.492113

>  <SCORE.INTRA>
4.73802

>  <SCORE.INTRA.DIHEDRAL>
10.3175

>  <SCORE.INTRA.DIHEDRAL.0>
4.28829

>  <SCORE.INTRA.POLAR>
0

>  <SCORE.INTRA.POLAR.0>
0

>  <SCORE.INTRA.REPUL>
0

>  <SCORE.INTRA.REPUL.0>
0

>  <SCORE.INTRA.SOLV>
1.8734

>  <SCORE.INTRA.SOLV.lig_0>
-48.6018

>  <SCORE.INTRA.VDW>
-1.35743

>  <SCORE.INTRA.VDW.0>
-2.1506

>  <SCORE.INTRA.norm>
0.175482

>  <SCORE.RESTR>
0

>  <SCORE.RESTR.CAVITY>
0

>  <SCORE.RESTR.norm>
0

>  <SCORE.SYSTEM>
0

>  <SCORE.SYSTEM.CONST>
0

>  <SCORE.SYSTEM.DIHEDRAL>
0

>  <SCORE.SYSTEM.SOLV>
0

>  <SCORE.SYSTEM.norm>
0

>  <SCORE.heavy>
27

>  <SCORE.norm>
-0.31663

>  <RMSD>
14.022

$$$$
ligand
 OpenBabel11021811483D
libRbt.so/2013.1/901 2013/11/27
 27 29  0  0  0  0  0  0  0  0999 V2000
   15.1109   -8.7707   18.9731 N   0  0  0  0  0  0  0  0  0  0  0  0
   13.8434   -8.1330   18.6116 C   0  0  2  0  0  0  0  0  0  0  0  0
   13.8639   -7.2924   17.3326 C   0  0  0  0  0  0  0  0  0  0  0  0
   12.8120   -7.1252   16.7167 O   0  0  0  0  0  0  0  0  0  0  0  0
   13.2913   -7.3241   19.7733 C   0  0  0  0  0  0  0  0  0  0  0  0
   12.9080   -8.2151   20.9422 C   0  0  0  0  0  0  0  0  0  0  0  0
   12.2439   -7.2342   22.2994 S   0  0  2  0  0  0  0  0  0  0  0  0
   12.1683   -8.4951   23.5892 C   0  0  0  0  0  0  0  0  0  0  0  0
   10.4973   -7.1711   21.8369 C   0  0  0  0  0  0  0  0  0  0  0  0
    9.6992   -6.3643   22.8444 C   0  0  1  0  0  0  0  0  0  0  0  0
    9.8079   -4.9854   22.5741 O   0  0  0  0  0  0  0  0  0  0  0  0
    8.2136   -6.6615   22.7896 C   0  0  1  0  0  0  0  0  0  0  0  0
    7.9283   -7.6690   23.7268 O   0  0  0  0  0  0  0  0  0  0  0  0
    7.5741   -5.3475   23.1903 C   0  0  1  0  0  0  0  0  0  0  0  0
    7.2165   -5.4512   24.5502 O   0  0  0  0  0  0  0  0  0  0  0  0
    8.6530   -4.2804   22.9939 C   0  0  2  0  0  0  0  0  0  0  0  0
   14.8917   -6.7767   16.8850 O   0  0  0  0  0  0  0  0  0  0  0  0
   10.3114   -0.6100   19.6479 N   0  0  0  0  0  0  0  0  0  0  0  0
   11.0438   -1.2740   20.6017 C   0  0  0  0  0  0  0  0  0  0  0  0
   10.4225   -2.2137   21.3945 N   0  0  0  0  0  0  0  0  0  0  0  0
    9.1082   -2.4941   21.2471 C   0  0  0  0  0  0  0  0  0  0  0  0
    8.3588   -1.8418   20.2789 C   0  0  0  0  0  0  0  0  0  0  0  0
    8.9706   -0.8813   19.4762 C   0  0  0  0  0  0  0  0  0  0  0  0
    8.2826   -0.2282   18.5393 N   0  0  0  0  0  0  0  0  0  0  0  0
    7.0883   -2.3170   20.3441 N   0  0  0  0  0  0  0  0  0  0  0  0
    7.0375   -3.2571   21.3158 C   0  0  0  0  0  0  0  0  0  0  0  0
    8.2827   -3.3841   21.8805 N   0  0  0  0  0  0  0  0  0  0  0  0
  2  1  1  1  0  0  0
  2  3  1  0  0  0  0
  2  5  1  0  0  0  0
  3  4  1  0  0  0  0
  3 17  1  0  0  0  0
  5  6  1  0  0  0  0
  7  6  1  6  0  0  0
  7  8  1  0  0  0  0
  7  9  1  0  0  0  0
 10  9  1  6  0  0  0
 10 11  1  0  0  0  0
 10 12  1  0  0  0  0
 11 16  1  0  0  0  0
 12 13  1  1  0  0  0
 12 14  1  0  0  0  0
 14 15  1  1  0  0  0
 14 16  1  0  0  0  0
 16 27  1  6  0  0  0
 18 19  2  0  0  0  0
 18 23  1  0  0  0  0
 19 20  1  0  0  0  0
 20 21  2  0  0  0  0
 21 22  1  0  0  0  0
 21 27  1  0  0  0  0
 22 23  2  0  0  0  0
 22 25  1  0  0  0  0
 23 24  1  0  0  0  0
 25 26  2  0  0  0  0
 26 27  1  0  0  0  0
M  END
>  <CHROM.1>
154.71002909,-65.61587000,-179.51740607,-170.55200348,-179.41706410,82.31117623
-52.29167287,10.48227652,-5.22894761,20.98484555,-0.36394335,0.72661437,-0.65566431

>  <Name>
ligand

>  <RI>
0

>  <Rbt.Current_Directory>
/home/itssahil/PROJECTS/Mol_Feturizer/New_Systems/rnas/3GX5

>  <Rbt.Executable>
rbdock ($Id: //depot/dev/client3/rdock/2013.1/src/exe/rbdock.cxx#4 $)

>  <Rbt.Library>
libRbt.so (2013.1, Build901 2013/11/27)

>  <Rbt.Parameter_File>
/export/apps/rDock/src/rDock_2013.1_src/data/scripts/dock_solv.prm

>  <Rbt.Receptor>
prm/blind_docking_40.prm

>  <SCORE>
-12.8772

>  <SCORE.INTER>
-13.6032

>  <SCORE.INTER.CONST>
1

>  <SCORE.INTER.POLAR>
0

>  <SCORE.INTER.ROT>
7

>  <SCORE.INTER.SOLV>
8.6948

>  <SCORE.INTER.VDW>
-20.2337

>  <SCORE.INTER.norm>
-0.503823

>  <SCORE.INTRA>
0.72597

>  <SCORE.INTRA.DIHEDRAL>
2.08502

>  <SCORE.INTRA.DIHEDRAL.0>
4.28829

>  <SCORE.INTRA.POLAR>
0

>  <SCORE.INTRA.POLAR.0>
0

>  <SCORE.INTRA.REPUL>
0

>  <SCORE.INTRA.REPUL.0>
0

>  <SCORE.INTRA.SOLV>
-0.655136

>  <SCORE.INTRA.SOLV.lig_0>
-48.6018

>  <SCORE.INTRA.VDW>
0.0110259

>  <SCORE.INTRA.VDW.0>
-2.1506

>  <SCORE.INTRA.norm>
0.0268878

>  <SCORE.RESTR>
0

>  <SCORE.RESTR.CAVITY>
0

>  <SCORE.RESTR.norm>
0

>  <SCORE.SYSTEM>
0

>  <SCORE.SYSTEM.CONST>
0

>  <SCORE.SYSTEM.DIHEDRAL>
0

>  <SCORE.SYSTEM.SOLV>
0

>  <SCORE.SYSTEM.norm>
0

>  <SCORE.heavy>
27

>  <SCORE.norm>
-0.476935

>  <RMSD>
14.166

$$$$
ligand
 OpenBabel11021811483D
libRbt.so/2013.1/901 2013/11/27
 27 29  0  0  0  0  0  0  0  0999 V2000
   11.1532   -8.4856   20.8797 N   0  0  0  0  0  0  0  0  0  0  0  0
   10.1333   -8.9075   19.9176 C   0  0  2  0  0  0  0  0  0  0  0  0
    8.8860   -9.5622   20.5161 C   0  0  0  0  0  0  0  0  0  0  0  0
    8.0451  -10.0402   19.7558 O   0  0  0  0  0  0  0  0  0  0  0  0
   10.7361   -9.7931   18.8400 C   0  0  0  0  0  0  0  0  0  0  0  0
    9.9051   -9.7702   17.5687 C   0  0  0  0  0  0  0  0  0  0  0  0
   10.5099  -10.9916   16.3907 S   0  0  2  0  0  0  0  0  0  0  0  0
   12.0094  -10.1625   15.8223 C   0  0  0  0  0  0  0  0  0  0  0  0
    9.4274  -10.6555   14.9822 C   0  0  0  0  0  0  0  0  0  0  0  0
    8.0736  -11.3150   15.1703 C   0  0  1  0  0  0  0  0  0  0  0  0
    8.2258  -12.6812   15.4810 O   0  0  0  0  0  0  0  0  0  0  0  0
    7.2924  -10.7308   16.3309 C   0  0  1  0  0  0  0  0  0  0  0  0
    6.4615   -9.7106   15.8370 O   0  0  0  0  0  0  0  0  0  0  0  0
    6.4751  -11.9033   16.8342 C   0  0  1  0  0  0  0  0  0  0  0  0
    5.1740  -11.7655   16.3090 O   0  0  0  0  0  0  0  0  0  0  0  0
    7.1542  -13.1562   16.2768 C   0  0  2  0  0  0  0  0  0  0  0  0
    8.6804   -9.6285   21.7311 O   0  0  0  0  0  0  0  0  0  0  0  0
    7.7824  -17.9035   18.3949 N   0  0  0  0  0  0  0  0  0  0  0  0
    7.1024  -17.5758   17.2471 C   0  0  0  0  0  0  0  0  0  0  0  0
    7.0474  -16.2578   16.8500 N   0  0  0  0  0  0  0  0  0  0  0  0
    7.6526  -15.2854   17.5681 C   0  0  0  0  0  0  0  0  0  0  0  0
    8.3547  -15.6027   18.7218 C   0  0  0  0  0  0  0  0  0  0  0  0
    8.4107  -16.9299   19.1420 C   0  0  0  0  0  0  0  0  0  0  0  0
    9.0699  -17.2738   20.2487 N   0  0  0  0  0  0  0  0  0  0  0  0
    8.8622  -14.4509   19.2317 N   0  0  0  0  0  0  0  0  0  0  0  0
    8.5059  -13.4332   18.4144 C   0  0  0  0  0  0  0  0  0  0  0  0
    7.7619  -13.9343   17.3747 N   0  0  0  0  0  0  0  0  0  0  0  0
  2  1  1  1  0  0  0
  2  3  1  0  0  0  0
  2  5  1  0  0  0  0
  3  4  1  0  0  0  0
  3 17  1  0  0  0  0
  5  6  1  0  0  0  0
  7  6  1  1  0  0  0
  7  8  1  0  0  0  0
  7  9  1  0  0  0  0
 10  9  1  1  0  0  0
 10 11  1  0  0  0  0
 10 12  1  0  0  0  0
 11 16  1  0  0  0  0
 12 13  1  6  0  0  0
 12 14  1  0  0  0  0
 14 15  1  6  0  0  0
 14 16  1  0  0  0  0
 16 27  1  1  0  0  0
 18 19  2  0  0  0  0
 18 23  1  0  0  0  0
 19 20  1  0  0  0  0
 20 21  2  0  0  0  0
 21 22  1  0  0  0  0
 21 27  1  0  0  0  0
 22 23  2  0  0  0  0
 22 25  1  0  0  0  0
 23 24  1  0  0  0  0
 25 26  2  0  0  0  0
 26 27  1  0  0  0  0
M  END
>  <CHROM.1>
-173.91092433,-156.29868067,-172.32465984,-74.56149466,-80.54048377,-51.66377549
-113.08219305,8.56965291,-12.34199323,17.76120121,-0.86649997,1.12305868
2.53800673

>  <Name>
ligand

>  <RI>
0

>  <Rbt.Current_Directory>
/home/itssahil/PROJECTS/Mol_Feturizer/New_Systems/rnas/3GX5

>  <Rbt.Executable>
rbdock ($Id: //depot/dev/client3/rdock/2013.1/src/exe/rbdock.cxx#4 $)

>  <Rbt.Library>
libRbt.so (2013.1, Build901 2013/11/27)

>  <Rbt.Parameter_File>
/export/apps/rDock/src/rDock_2013.1_src/data/scripts/dock_solv.prm

>  <Rbt.Receptor>
prm/blind_docking_80.prm

>  <SCORE>
-13.3293

>  <SCORE.INTER>
-13.4971

>  <SCORE.INTER.CONST>
1

>  <SCORE.INTER.POLAR>
0

>  <SCORE.INTER.ROT>
7

>  <SCORE.INTER.SOLV>
15.329

>  <SCORE.INTER.VDW>
-22.3744

>  <SCORE.INTER.norm>
-0.499893

>  <SCORE.INTRA>
0.167854

>  <SCORE.INTRA.DIHEDRAL>
1.85283

>  <SCORE.INTRA.DIHEDRAL.0>
4.28829

>  <SCORE.INTRA.POLAR>
0

>  <SCORE.INTRA.POLAR.0>
0

>  <SCORE.INTRA.REPUL>
0

>  <SCORE.INTRA.REPUL.0>
0

>  <SCORE.INTRA.SOLV>
-0.959665

>  <SCORE.INTRA.SOLV.lig_0>
-48.6018

>  <SCORE.INTRA.VDW>
-0.27873

>  <SCORE.INTRA.VDW.0>
-2.1506

>  <SCORE.INTRA.norm>
0.00621681

>  <SCORE.RESTR>
0

>  <SCORE.RESTR.CAVITY>
0

>  <SCORE.RESTR.norm>
0

>  <SCORE.SYSTEM>
0

>  <SCORE.SYSTEM.CONST>
0

>  <SCORE.SYSTEM.DIHEDRAL>
0

>  <SCORE.SYSTEM.SOLV>
0

>  <SCORE.SYSTEM.norm>
0

>  <SCORE.heavy>
27

>  <SCORE.norm>
-0.493676

>  <RMSD>
14.170

$$$$
ligand
 OpenBabel11021811483D
libRbt.so/2013.1/901 2013/11/27
 27 29  0  0  0  0  0  0  0  0999 V2000
   15.0353   -8.7707   18.8815 N   0  0  0  0  0  0  0  0  0  0  0  0
   13.7356   -8.1829   18.5513 C   0  0  2  0  0  0  0  0  0  0  0  0
   13.6880   -7.3570   17.2635 C   0  0  0  0  0  0  0  0  0  0  0  0
   14.6801   -6.7048   16.9410 O   0  0  0  0  0  0  0  0  0  0  0  0
   13.1892   -7.3807   19.7204 C   0  0  0  0  0  0  0  0  0  0  0  0
   12.9434   -8.2596   20.9346 C   0  0  0  0  0  0  0  0  0  0  0  0
   12.3024   -7.2846   22.3071 S   0  0  2  0  0  0  0  0  0  0  0  0
   12.2802   -8.5429   23.6015 C   0  0  0  0  0  0  0  0  0  0  0  0
   10.5431   -7.2482   21.8922 C   0  0  0  0  0  0  0  0  0  0  0  0
    9.7645   -6.4303   22.9061 C   0  0  1  0  0  0  0  0  0  0  0  0
    9.8585   -5.0552   22.6122 O   0  0  0  0  0  0  0  0  0  0  0  0
    8.2798   -6.7365   22.8915 C   0  0  1  0  0  0  0  0  0  0  0  0
    8.0229   -7.7311   23.8506 O   0  0  0  0  0  0  0  0  0  0  0  0
    7.6423   -5.4201   23.2873 C   0  0  1  0  0  0  0  0  0  0  0  0
    7.3179   -5.5049   24.6568 O   0  0  0  0  0  0  0  0  0  0  0  0
    8.7099   -4.3502   23.0488 C   0  0  2  0  0  0  0  0  0  0  0  0
   12.6946   -7.3098   16.5329 O   0  0  0  0  0  0  0  0  0  0  0  0
   10.2459   -0.6651   19.6608 N   0  0  0  0  0  0  0  0  0  0  0  0
   11.0026   -1.3016   20.6144 C   0  0  0  0  0  0  0  0  0  0  0  0
   10.4122   -2.2508   21.4194 N   0  0  0  0  0  0  0  0  0  0  0  0
    9.1048   -2.5670   21.2843 C   0  0  0  0  0  0  0  0  0  0  0  0
    8.3312   -1.9428   20.3165 C   0  0  0  0  0  0  0  0  0  0  0  0
    8.9115   -0.9731   19.5015 C   0  0  0  0  0  0  0  0  0  0  0  0
    8.1995   -0.3462   18.5646 N   0  0  0  0  0  0  0  0  0  0  0  0
    7.0743   -2.4507   20.3952 N   0  0  0  0  0  0  0  0  0  0  0  0
    7.0555   -3.3838   21.3748 C   0  0  0  0  0  0  0  0  0  0  0  0
    8.3078   -3.4732   21.9311 N   0  0  0  0  0  0  0  0  0  0  0  0
  2  1  1  1  0  0  0
  2  3  1  0  0  0  0
  2  5  1  0  0  0  0
  3  4  1  0  0  0  0
  3 17  1  0  0  0  0
  5  6  1  0  0  0  0
  7  6  1  6  0  0  0
  7  8  1  0  0  0  0
  7  9  1  0  0  0  0
 10  9  1  6  0  0  0
 10 11  1  0  0  0  0
 10 12  1  0  0  0  0
 11 16  1  0  0  0  0
 12 13  1  1  0  0  0
 12 14  1  0  0  0  0
 14 15  1  1  0  0  0
 14 16  1  0  0  0  0
 16 27  1  6  0  0  0
 18 19  2  0  0  0  0
 18 23  1  0  0  0  0
 19 20  1  0  0  0  0
 20 21  2  0  0  0  0
 21 22  1  0  0  0  0
 21 27  1  0  0  0  0
 22 23  2  0  0  0  0
 22 25  1  0  0  0  0
 23 24  1  0  0  0  0
 25 26  2  0  0  0  0
 26 27  1  0  0  0  0
M  END
>  <CHROM.1>
-34.22626404,-62.54168082,179.78916331,-174.55951492,-178.44960008,81.90777121
-53.86179984,10.47531372,-5.29511663,21.00582291,-0.33898604,0.74941024,-0.68769031

>  <Name>
ligand

>  <RI>
0

>  <Rbt.Current_Directory>
/home/itssahil/PROJECTS/Mol_Feturizer/New_Systems/rnas/3GX5

>  <Rbt.Executable>
rbdock ($Id: //depot/dev/client3/rdock/2013.1/src/exe/rbdock.cxx#4 $)

>  <Rbt.Library>
libRbt.so (2013.1, Build901 2013/11/27)

>  <Rbt.Parameter_File>
/export/apps/rDock/src/rDock_2013.1_src/data/scripts/dock_solv.prm

>  <Rbt.Receptor>
prm/blind_docking_40.prm

>  <SCORE>
-12.9348

>  <SCORE.INTER>
-13.4963

>  <SCORE.INTER.CONST>
1

>  <SCORE.INTER.POLAR>
0

>  <SCORE.INTER.ROT>
7

>  <SCORE.INTER.SOLV>
8.39212

>  <SCORE.INTER.VDW>
-20.0615

>  <SCORE.INTER.norm>
-0.499862

>  <SCORE.INTRA>
0.561461

>  <SCORE.INTRA.DIHEDRAL>
1.62578

>  <SCORE.INTRA.DIHEDRAL.0>
4.28829

>  <SCORE.INTRA.POLAR>
0

>  <SCORE.INTRA.POLAR.0>
0

>  <SCORE.INTRA.REPUL>
0

>  <SCORE.INTRA.REPUL.0>
0

>  <SCORE.INTRA.SOLV>
-0.613655

>  <SCORE.INTRA.SOLV.lig_0>
-48.6018

>  <SCORE.INTRA.VDW>
0.0553996

>  <SCORE.INTRA.VDW.0>
-2.1506

>  <SCORE.INTRA.norm>
0.0207949

>  <SCORE.RESTR>
0

>  <SCORE.RESTR.CAVITY>
0

>  <SCORE.RESTR.norm>
0

>  <SCORE.SYSTEM>
0

>  <SCORE.SYSTEM.CONST>
0

>  <SCORE.SYSTEM.DIHEDRAL>
0

>  <SCORE.SYSTEM.SOLV>
0

>  <SCORE.SYSTEM.norm>
0

>  <SCORE.heavy>
27

>  <SCORE.norm>
-0.479067

>  <RMSD>
14.195

$$$$
ligand
 OpenBabel11021811483D
libRbt.so/2013.1/901 2013/11/27
 27 29  0  0  0  0  0  0  0  0999 V2000
    8.8728  -17.4693   18.9541 N   0  0  0  0  0  0  0  0  0  0  0  0
    8.9861  -16.1697   19.6189 C   0  0  2  0  0  0  0  0  0  0  0  0
    9.0403  -16.2084   21.1481 C   0  0  0  0  0  0  0  0  0  0  0  0
   10.1388  -16.2242   21.7018 O   0  0  0  0  0  0  0  0  0  0  0  0
    7.8968  -15.2212   19.1471 C   0  0  0  0  0  0  0  0  0  0  0  0
    8.4066  -14.2745   18.0742 C   0  0  0  0  0  0  0  0  0  0  0  0
    7.0368  -13.5948   17.1218 S   0  0  2  0  0  0  0  0  0  0  0  0
    7.2324  -14.5232   15.5859 C   0  0  0  0  0  0  0  0  0  0  0  0
    7.7448  -12.0121   16.6095 C   0  0  0  0  0  0  0  0  0  0  0  0
    6.9347  -10.8530   17.1601 C   0  0  1  0  0  0  0  0  0  0  0  0
    7.0295  -10.8043   18.5654 O   0  0  0  0  0  0  0  0  0  0  0  0
    7.4395   -9.5054   16.6834 C   0  0  1  0  0  0  0  0  0  0  0  0
    6.7235   -9.1472   15.5283 O   0  0  0  0  0  0  0  0  0  0  0  0
    7.1142   -8.5769   17.8359 C   0  0  1  0  0  0  0  0  0  0  0  0
    5.9294   -7.8898   17.5010 O   0  0  0  0  0  0  0  0  0  0  0  0
    6.8914   -9.4804   19.0505 C   0  0  2  0  0  0  0  0  0  0  0  0
    8.0290  -16.2301   21.8549 O   0  0  0  0  0  0  0  0  0  0  0  0
   12.0660   -9.3697   19.8440 N   0  0  0  0  0  0  0  0  0  0  0  0
   11.3987   -9.5849   18.6627 C   0  0  0  0  0  0  0  0  0  0  0  0
   10.0212   -9.5779   18.6564 N   0  0  0  0  0  0  0  0  0  0  0  0
    9.3179   -9.3604   19.7903 C   0  0  0  0  0  0  0  0  0  0  0  0
    9.9777   -9.1277   20.9882 C   0  0  0  0  0  0  0  0  0  0  0  0
   11.3708   -9.1419   21.0126 C   0  0  0  0  0  0  0  0  0  0  0  0
   12.0411   -8.9292   22.1454 N   0  0  0  0  0  0  0  0  0  0  0  0
    9.0396   -8.9340   21.9508 N   0  0  0  0  0  0  0  0  0  0  0  0
    7.8183   -9.0244   21.3756 C   0  0  0  0  0  0  0  0  0  0  0  0
    7.9731   -9.2813   20.0356 N   0  0  0  0  0  0  0  0  0  0  0  0
  2  1  1  1  0  0  0
  2  3  1  0  0  0  0
  2  5  1  0  0  0  0
  3  4  1  0  0  0  0
  3 17  1  0  0  0  0
  5  6  1  0  0  0  0
  7  6  1  1  0  0  0
  7  8  1  0  0  0  0
  7  9  1  0  0  0  0
 10  9  1  6  0  0  0
 10 11  1  0  0  0  0
 10 12  1  0  0  0  0
 11 16  1  0  0  0  0
 12 13  1  6  0  0  0
 12 14  1  0  0  0  0
 14 15  1  6  0  0  0
 14 16  1  0  0  0  0
 16 27  1  1  0  0  0
 18 19  2  0  0  0  0
 18 23  1  0  0  0  0
 19 20  1  0  0  0  0
 20 21  2  0  0  0  0
 21 22  1  0  0  0  0
 21 27  1  0  0  0  0
 22 23  2  0  0  0  0
 22 25  1  0  0  0  0
 23 24  1  0  0  0  0
 25 26  2  0  0  0  0
 26 27  1  0  0  0  0
M  END
>  <CHROM.1>
93.85309947,-98.40539691,159.49357228,-106.10287491,-118.42070626,66.28596347
60.65665030,8.48426481,-11.66093088,18.99989332,-1.62278366,-0.91235476,-0.09011421

>  <Name>
ligand

>  <RI>
0

>  <Rbt.Current_Directory>
/home/itssahil/PROJECTS/Mol_Feturizer/New_Systems/rnas/3GX5

>  <Rbt.Executable>
rbdock ($Id: //depot/dev/client3/rdock/2013.1/src/exe/rbdock.cxx#4 $)

>  <Rbt.Library>
libRbt.so (2013.1, Build901 2013/11/27)

>  <Rbt.Parameter_File>
/export/apps/rDock/src/rDock_2013.1_src/data/scripts/dock_solv.prm

>  <Rbt.Receptor>
prm/blind_docking_100.prm

>  <SCORE>
-13.4688

>  <SCORE.INTER>
-17.663

>  <SCORE.INTER.CONST>
1

>  <SCORE.INTER.POLAR>
0

>  <SCORE.INTER.ROT>
7

>  <SCORE.INTER.SOLV>
13.4331

>  <SCORE.INTER.VDW>
-24.5197

>  <SCORE.INTER.norm>
-0.654183

>  <SCORE.INTRA>
4.19413

>  <SCORE.INTRA.DIHEDRAL>
11.49

>  <SCORE.INTRA.DIHEDRAL.0>
4.28829

>  <SCORE.INTRA.POLAR>
0

>  <SCORE.INTRA.POLAR.0>
0

>  <SCORE.INTRA.REPUL>
0

>  <SCORE.INTRA.REPUL.0>
0

>  <SCORE.INTRA.SOLV>
-0.876574

>  <SCORE.INTRA.SOLV.lig_0>
-48.6018

>  <SCORE.INTRA.VDW>
-1.1126

>  <SCORE.INTRA.VDW.0>
-2.1506

>  <SCORE.INTRA.norm>
0.155338

>  <SCORE.RESTR>
0

>  <SCORE.RESTR.CAVITY>
0

>  <SCORE.RESTR.norm>
0

>  <SCORE.SYSTEM>
0

>  <SCORE.SYSTEM.CONST>
0

>  <SCORE.SYSTEM.DIHEDRAL>
0

>  <SCORE.SYSTEM.SOLV>
0

>  <SCORE.SYSTEM.norm>
0

>  <SCORE.heavy>
27

>  <SCORE.norm>
-0.498845

>  <RMSD>
14.196

$$$$
ligand
 OpenBabel11021811483D
libRbt.so/2013.1/901 2013/11/27
 27 29  0  0  0  0  0  0  0  0999 V2000
    8.5208    1.2044   15.6025 N   0  0  0  0  0  0  0  0  0  0  0  0
    8.7946    0.1255   16.5538 C   0  0  2  0  0  0  0  0  0  0  0  0
    7.9182   -1.1216   16.4138 C   0  0  0  0  0  0  0  0  0  0  0  0
    8.4603   -2.2254   16.3767 O   0  0  0  0  0  0  0  0  0  0  0  0
    8.7654    0.6408   17.9830 C   0  0  0  0  0  0  0  0  0  0  0  0
    9.1675   -0.4380   18.9739 C   0  0  0  0  0  0  0  0  0  0  0  0
    9.0826    0.1848   20.6622 S   0  0  2  0  0  0  0  0  0  0  0  0
   10.8429    0.3744   21.0148 C   0  0  0  0  0  0  0  0  0  0  0  0
    8.7583   -1.3487   21.5633 C   0  0  0  0  0  0  0  0  0  0  0  0
    7.3975   -1.9133   21.1991 C   0  0  1  0  0  0  0  0  0  0  0  0
    7.4955   -2.7603   20.0770 O   0  0  0  0  0  0  0  0  0  0  0  0
    6.8081   -2.7778   22.2962 C   0  0  1  0  0  0  0  0  0  0  0  0
    5.9922   -1.9702   23.1068 O   0  0  0  0  0  0  0  0  0  0  0  0
    5.9835   -3.7987   21.5386 C   0  0  1  0  0  0  0  0  0  0  0  0
    4.6391   -3.3773   21.5928 O   0  0  0  0  0  0  0  0  0  0  0  0
    6.5024   -3.7704   20.0994 C   0  0  2  0  0  0  0  0  0  0  0  0
    6.6881   -1.0713   16.3305 O   0  0  0  0  0  0  0  0  0  0  0  0
    9.0299   -6.5368   16.4420 N   0  0  0  0  0  0  0  0  0  0  0  0
    8.5228   -5.2645   16.3361 C   0  0  0  0  0  0  0  0  0  0  0  0
    7.8829   -4.7023   17.4187 N   0  0  0  0  0  0  0  0  0  0  0  0
    7.7490   -5.3796   18.5810 C   0  0  0  0  0  0  0  0  0  0  0  0
    8.2680   -6.6600   18.7076 C   0  0  0  0  0  0  0  0  0  0  0  0
    8.9089   -7.2461   17.6181 C   0  0  0  0  0  0  0  0  0  0  0  0
    9.4150   -8.4769   17.6983 N   0  0  0  0  0  0  0  0  0  0  0  0
    8.0024   -7.0956   19.9661 N   0  0  0  0  0  0  0  0  0  0  0  0
    7.3477   -6.1118   20.6250 C   0  0  0  0  0  0  0  0  0  0  0  0
    7.1889   -5.0387   19.7830 N   0  0  0  0  0  0  0  0  0  0  0  0
  2  1  1  6  0  0  0
  2  3  1  0  0  0  0
  2  5  1  0  0  0  0
  3  4  1  0  0  0  0
  3 17  1  0  0  0  0
  5  6  1  0  0  0  0
  7  6  1  6  0  0  0
  7  8  1  0  0  0  0
  7  9  1  0  0  0  0
 10  9  1  1  0  0  0
 10 11  1  0  0  0  0
 10 12  1  0  0  0  0
 11 16  1  0  0  0  0
 12 13  1  1  0  0  0
 12 14  1  0  0  0  0
 14 15  1  6  0  0  0
 14 16  1  0  0  0  0
 16 27  1  1  0  0  0
 18 19  2  0  0  0  0
 18 23  1  0  0  0  0
 19 20  1  0  0  0  0
 20 21  2  0  0  0  0
 21 22  1  0  0  0  0
 21 27  1  0  0  0  0
 22 23  2  0  0  0  0
 22 25  1  0  0  0  0
 23 24  1  0  0  0  0
 25 26  2  0  0  0  0
 26 27  1  0  0  0  0
M  END
>  <CHROM.1>
130.70079081,-174.98401714,-178.49098912,-105.72457292,-65.81995697,88.34938434
-67.90647978,7.96411788,-2.96118143,19.16322769,-1.33764413,-1.24290693,-2.80947512

>  <Name>
ligand

>  <RI>
0

>  <Rbt.Current_Directory>
/home/itssahil/PROJECTS/Mol_Feturizer/New_Systems/rnas/3GX5

>  <Rbt.Executable>
rbdock ($Id: //depot/dev/client3/rdock/2013.1/src/exe/rbdock.cxx#4 $)

>  <Rbt.Library>
libRbt.so (2013.1, Build901 2013/11/27)

>  <Rbt.Parameter_File>
/export/apps/rDock/src/rDock_2013.1_src/data/scripts/dock_solv.prm

>  <Rbt.Receptor>
prm/blind_docking_60.prm

>  <SCORE>
-8.34054

>  <SCORE.INTER>
-9.52367

>  <SCORE.INTER.CONST>
1

>  <SCORE.INTER.POLAR>
0

>  <SCORE.INTER.ROT>
7

>  <SCORE.INTER.SOLV>
9.39904

>  <SCORE.INTER.VDW>
-17.7488

>  <SCORE.INTER.norm>
-0.352729

>  <SCORE.INTRA>
1.18314

>  <SCORE.INTRA.DIHEDRAL>
4.56976

>  <SCORE.INTRA.DIHEDRAL.0>
4.28829

>  <SCORE.INTRA.POLAR>
0

>  <SCORE.INTRA.POLAR.0>
0

>  <SCORE.INTRA.REPUL>
0

>  <SCORE.INTRA.REPUL.0>
0

>  <SCORE.INTRA.SOLV>
-1.26697

>  <SCORE.INTRA.SOLV.lig_0>
-48.6018

>  <SCORE.INTRA.VDW>
-0.46826

>  <SCORE.INTRA.VDW.0>
-2.1506

>  <SCORE.INTRA.norm>
0.0438199

>  <SCORE.RESTR>
0

>  <SCORE.RESTR.CAVITY>
0

>  <SCORE.RESTR.norm>
0

>  <SCORE.SYSTEM>
0

>  <SCORE.SYSTEM.CONST>
0

>  <SCORE.SYSTEM.DIHEDRAL>
0

>  <SCORE.SYSTEM.SOLV>
0

>  <SCORE.SYSTEM.norm>
0

>  <SCORE.heavy>
27

>  <SCORE.norm>
-0.308909

>  <RMSD>
14.254

$$$$
ligand
 OpenBabel11021811483D
libRbt.so/2013.1/901 2013/11/27
 27 29  0  0  0  0  0  0  0  0999 V2000
    7.9499  -11.5874   17.9654 N   0  0  0  0  0  0  0  0  0  0  0  0
    6.5934  -11.0581   17.8112 C   0  0  2  0  0  0  0  0  0  0  0  0
    5.6808  -11.8367   16.8605 C   0  0  0  0  0  0  0  0  0  0  0  0
    4.5261  -11.4457   16.6949 O   0  0  0  0  0  0  0  0  0  0  0  0
    6.6239   -9.5861   17.4357 C   0  0  0  0  0  0  0  0  0  0  0  0
    7.2596   -8.7440   18.5285 C   0  0  0  0  0  0  0  0  0  0  0  0
    6.2230   -8.7248   20.0017 S   0  0  2  0  0  0  0  0  0  0  0  0
    5.0196   -7.4678   19.5213 C   0  0  0  0  0  0  0  0  0  0  0  0
    7.2538   -7.7442   21.1173 C   0  0  0  0  0  0  0  0  0  0  0  0
    8.1050   -8.6414   21.9969 C   0  0  1  0  0  0  0  0  0  0  0  0
    9.0174   -9.3801   21.2171 O   0  0  0  0  0  0  0  0  0  0  0  0
    8.9619   -7.8622   22.9750 C   0  0  1  0  0  0  0  0  0  0  0  0
    8.2574   -7.7443   24.1853 O   0  0  0  0  0  0  0  0  0  0  0  0
   10.1904   -8.7334   23.1423 C   0  0  1  0  0  0  0  0  0  0  0  0
   10.0368   -9.4505   24.3465 O   0  0  0  0  0  0  0  0  0  0  0  0
   10.1955   -9.6837   21.9430 C   0  0  2  0  0  0  0  0  0  0  0  0
    6.0487  -12.8463   16.2538 O   0  0  0  0  0  0  0  0  0  0  0  0
   11.6460   -7.8204   17.2694 N   0  0  0  0  0  0  0  0  0  0  0  0
   10.3730   -7.9362   17.7726 C   0  0  0  0  0  0  0  0  0  0  0  0
   10.1927   -8.4573   19.0350 N   0  0  0  0  0  0  0  0  0  0  0  0
   11.2456   -8.8527   19.7852 C   0  0  0  0  0  0  0  0  0  0  0  0
   12.5379   -8.7290   19.2961 C   0  0  0  0  0  0  0  0  0  0  0  0
   12.7358   -8.2133   18.0169 C   0  0  0  0  0  0  0  0  0  0  0  0
   13.9619   -8.0850   17.5091 N   0  0  0  0  0  0  0  0  0  0  0  0
   13.3904   -9.1876   20.2485 N   0  0  0  0  0  0  0  0  0  0  0  0
   12.6596   -9.5757   21.3190 C   0  0  0  0  0  0  0  0  0  0  0  0
   11.3290   -9.3680   21.0510 N   0  0  0  0  0  0  0  0  0  0  0  0
  2  1  1  6  0  0  0
  2  3  1  0  0  0  0
  2  5  1  0  0  0  0
  3  4  1  0  0  0  0
  3 17  1  0  0  0  0
  5  6  1  0  0  0  0
  7  6  1  6  0  0  0
  7  8  1  0  0  0  0
  7  9  1  0  0  0  0
 10  9  1  6  0  0  0
 10 11  1  0  0  0  0
 10 12  1  0  0  0  0
 11 16  1  0  0  0  0
 12 13  1  1  0  0  0
 12 14  1  0  0  0  0
 14 15  1  1  0  0  0
 14 16  1  0  0  0  0
 16 27  1  6  0  0  0
 18 19  2  0  0  0  0
 18 23  1  0  0  0  0
 19 20  1  0  0  0  0
 20 21  2  0  0  0  0
 21 22  1  0  0  0  0
 21 27  1  0  0  0  0
 22 23  2  0  0  0  0
 22 25  1  0  0  0  0
 23 24  1  0  0  0  0
 25 26  2  0  0  0  0
 26 27  1  0  0  0  0
M  END
>  <CHROM.1>
179.59492139,-62.97437345,-67.47559541,-80.90299721,-94.99058095,64.07384577
1.44859679,8.94941777,-9.21155151,19.78762753,-2.57115019,0.16345688,1.28412032

>  <Name>
ligand

>  <RI>
0

>  <Rbt.Current_Directory>
/home/itssahil/PROJECTS/Mol_Feturizer/New_Systems/rnas/3GX5

>  <Rbt.Executable>
rbdock ($Id: //depot/dev/client3/rdock/2013.1/src/exe/rbdock.cxx#4 $)

>  <Rbt.Library>
libRbt.so (2013.1, Build901 2013/11/27)

>  <Rbt.Parameter_File>
/export/apps/rDock/src/rDock_2013.1_src/data/scripts/dock_solv.prm

>  <Rbt.Receptor>
prm/blind_docking_60.prm

>  <SCORE>
-12.5097

>  <SCORE.INTER>
-12.4573

>  <SCORE.INTER.CONST>
1

>  <SCORE.INTER.POLAR>
0

>  <SCORE.INTER.ROT>
7

>  <SCORE.INTER.SOLV>
9.71166

>  <SCORE.INTER.VDW>
-19.8088

>  <SCORE.INTER.norm>
-0.461382

>  <SCORE.INTRA>
-0.0542392

>  <SCORE.INTRA.DIHEDRAL>
1.5889

>  <SCORE.INTRA.DIHEDRAL.0>
4.28829

>  <SCORE.INTRA.POLAR>
0

>  <SCORE.INTRA.POLAR.0>
0

>  <SCORE.INTRA.REPUL>
0

>  <SCORE.INTRA.REPUL.0>
0

>  <SCORE.INTRA.SOLV>
0.190039

>  <SCORE.INTRA.SOLV.lig_0>
-48.6018

>  <SCORE.INTRA.VDW>
-0.943709

>  <SCORE.INTRA.VDW.0>
-2.1506

>  <SCORE.INTRA.norm>
-0.00200886

>  <SCORE.RESTR>
0.00185448

>  <SCORE.RESTR.CAVITY>
0.00185448

>  <SCORE.RESTR.norm>
6.86843e-05

>  <SCORE.SYSTEM>
0

>  <SCORE.SYSTEM.CONST>
0

>  <SCORE.SYSTEM.DIHEDRAL>
0

>  <SCORE.SYSTEM.SOLV>
0

>  <SCORE.SYSTEM.norm>
0

>  <SCORE.heavy>
27

>  <SCORE.norm>
-0.463322

>  <RMSD>
14.255

$$$$
ligand
 OpenBabel11021811483D
libRbt.so/2013.1/901 2013/11/27
 27 29  0  0  0  0  0  0  0  0999 V2000
    9.6724   -8.0520   22.7295 N   0  0  0  0  0  0  0  0  0  0  0  0
   10.4458   -6.9342   22.1851 C   0  0  2  0  0  0  0  0  0  0  0  0
   11.9675   -7.0754   22.2709 C   0  0  0  0  0  0  0  0  0  0  0  0
   12.6628   -6.5189   21.4220 O   0  0  0  0  0  0  0  0  0  0  0  0
    9.9969   -5.6159   22.7928 C   0  0  0  0  0  0  0  0  0  0  0  0
    8.4906   -5.4426   22.7010 C   0  0  0  0  0  0  0  0  0  0  0  0
    7.9962   -3.8276   23.3276 S   0  0  2  0  0  0  0  0  0  0  0  0
    6.2141   -4.0790   23.4689 C   0  0  0  0  0  0  0  0  0  0  0  0
    8.0433   -2.8545   21.8046 C   0  0  0  0  0  0  0  0  0  0  0  0
    9.4185   -2.2490   21.5913 C   0  0  1  0  0  0  0  0  0  0  0  0
    9.5603   -1.7938   20.2651 O   0  0  0  0  0  0  0  0  0  0  0  0
    9.6626   -1.0280   22.4561 C   0  0  1  0  0  0  0  0  0  0  0  0
   10.2907   -1.4436   23.6426 O   0  0  0  0  0  0  0  0  0  0  0  0
   10.5939   -0.1784   21.6153 C   0  0  1  0  0  0  0  0  0  0  0  0
   11.9022   -0.3834   22.0992 O   0  0  0  0  0  0  0  0  0  0  0  0
   10.4579   -0.7008   20.1835 C   0  0  2  0  0  0  0  0  0  0  0  0
   12.5321   -7.7287   23.1524 O   0  0  0  0  0  0  0  0  0  0  0  0
    8.2574    0.2986   15.5384 N   0  0  0  0  0  0  0  0  0  0  0  0
    8.7680   -0.8940   15.9902 C   0  0  0  0  0  0  0  0  0  0  0  0
    9.3123   -0.9579   17.2541 N   0  0  0  0  0  0  0  0  0  0  0  0
    9.3491    0.1303   18.0553 C   0  0  0  0  0  0  0  0  0  0  0  0
    8.8248    1.3381   17.6183 C   0  0  0  0  0  0  0  0  0  0  0  0
    8.2802    1.4212   16.3385 C   0  0  0  0  0  0  0  0  0  0  0  0
    7.7726    2.5656   15.8799 N   0  0  0  0  0  0  0  0  0  0  0  0
    8.9840    2.2472   18.6144 N   0  0  0  0  0  0  0  0  0  0  0  0
    9.5777    1.6284   19.6610 C   0  0  0  0  0  0  0  0  0  0  0  0
    9.8042    0.3143   19.3335 N   0  0  0  0  0  0  0  0  0  0  0  0
  2  1  1  1  0  0  0
  2  3  1  0  0  0  0
  2  5  1  0  0  0  0
  3  4  1  0  0  0  0
  3 17  1  0  0  0  0
  5  6  1  0  0  0  0
  7  6  1  6  0  0  0
  7  8  1  0  0  0  0
  7  9  1  0  0  0  0
 10  9  1  6  0  0  0
 10 11  1  0  0  0  0
 10 12  1  0  0  0  0
 11 16  1  0  0  0  0
 12 13  1  1  0  0  0
 12 14  1  0  0  0  0
 14 15  1  1  0  0  0
 14 16  1  0  0  0  0
 16 27  1  6  0  0  0
 18 19  2  0  0  0  0
 18 23  1  0  0  0  0
 19 20  1  0  0  0  0
 20 21  2  0  0  0  0
 21 22  1  0  0  0  0
 21 27  1  0  0  0  0
 22 23  2  0  0  0  0
 22 25  1  0  0  0  0
 23 24  1  0  0  0  0
 25 26  2  0  0  0  0
 26 27  1  0  0  0  0
M  END
>  <CHROM.1>
151.10981961,-51.06305776,-176.24012758,-166.81483734,-89.69179176,164.74893856
-56.36343528,9.54722968,-2.30837601,20.67881275,-1.17965448,1.14622970,-1.00393653

>  <Name>
ligand

>  <RI>
0

>  <Rbt.Current_Directory>
/home/itssahil/PROJECTS/Mol_Feturizer/New_Systems/rnas/3GX5

>  <Rbt.Executable>
rbdock ($Id: //depot/dev/client3/rdock/2013.1/src/exe/rbdock.cxx#4 $)

>  <Rbt.Library>
libRbt.so (2013.1, Build901 2013/11/27)

>  <Rbt.Parameter_File>
/export/apps/rDock/src/rDock_2013.1_src/data/scripts/dock_solv.prm

>  <Rbt.Receptor>
prm/blind_docking_60.prm

>  <SCORE>
-11.2265

>  <SCORE.INTER>
-12.2765

>  <SCORE.INTER.CONST>
1

>  <SCORE.INTER.POLAR>
0

>  <SCORE.INTER.ROT>
7

>  <SCORE.INTER.SOLV>
7.6184

>  <SCORE.INTER.VDW>
-18.9904

>  <SCORE.INTER.norm>
-0.454684

>  <SCORE.INTRA>
1.03823

>  <SCORE.INTRA.DIHEDRAL>
2.67907

>  <SCORE.INTRA.DIHEDRAL.0>
4.28829

>  <SCORE.INTRA.POLAR>
0

>  <SCORE.INTRA.POLAR.0>
0

>  <SCORE.INTRA.REPUL>
0

>  <SCORE.INTRA.REPUL.0>
0

>  <SCORE.INTRA.SOLV>
-0.346961

>  <SCORE.INTRA.SOLV.lig_0>
-48.6018

>  <SCORE.INTRA.VDW>
-0.127828

>  <SCORE.INTRA.VDW.0>
-2.1506

>  <SCORE.INTRA.norm>
0.0384528

>  <SCORE.RESTR>
0.0117071

>  <SCORE.RESTR.CAVITY>
0.0117071

>  <SCORE.RESTR.norm>
0.000433596

>  <SCORE.SYSTEM>
0

>  <SCORE.SYSTEM.CONST>
0

>  <SCORE.SYSTEM.DIHEDRAL>
0

>  <SCORE.SYSTEM.SOLV>
0

>  <SCORE.SYSTEM.norm>
0

>  <SCORE.heavy>
27

>  <SCORE.norm>
-0.415797

>  <RMSD>
14.263

$$$$
ligand
 OpenBabel11021811483D
libRbt.so/2013.1/901 2013/11/27
 27 29  0  0  0  0  0  0  0  0999 V2000
    7.9119  -17.3428   19.1149 N   0  0  0  0  0  0  0  0  0  0  0  0
    8.7985  -16.2702   19.5704 C   0  0  2  0  0  0  0  0  0  0  0  0
    9.1156  -16.2614   21.0678 C   0  0  0  0  0  0  0  0  0  0  0  0
    8.1913  -16.3883   21.8698 O   0  0  0  0  0  0  0  0  0  0  0  0
    8.2812  -14.9122   19.1264 C   0  0  0  0  0  0  0  0  0  0  0  0
    8.0916  -14.8518   17.6204 C   0  0  0  0  0  0  0  0  0  0  0  0
    7.7131  -13.1713   17.0933 S   0  0  2  0  0  0  0  0  0  0  0  0
    7.9086  -13.3518   15.3078 C   0  0  0  0  0  0  0  0  0  0  0  0
    9.2722  -12.3439   17.4850 C   0  0  0  0  0  0  0  0  0  0  0  0
    9.1787  -10.8545   17.2098 C   0  0  1  0  0  0  0  0  0  0  0  0
    8.2479  -10.2469   18.0762 O   0  0  0  0  0  0  0  0  0  0  0  0
   10.4853  -10.1280   17.4618 C   0  0  1  0  0  0  0  0  0  0  0  0
   11.1982  -10.0657   16.2523 O   0  0  0  0  0  0  0  0  0  0  0  0
   10.0439   -8.7481   17.9058 C   0  0  1  0  0  0  0  0  0  0  0  0
   10.1558   -7.8918   16.7913 O   0  0  0  0  0  0  0  0  0  0  0  0
    8.5815   -8.8940   18.3320 C   0  0  2  0  0  0  0  0  0  0  0  0
   10.2595  -16.1269   21.5106 O   0  0  0  0  0  0  0  0  0  0  0  0
    8.3542   -5.4189   22.2423 N   0  0  0  0  0  0  0  0  0  0  0  0
    8.4544   -5.1672   20.8956 C   0  0  0  0  0  0  0  0  0  0  0  0
    8.5031   -6.2250   20.0145 N   0  0  0  0  0  0  0  0  0  0  0  0
    8.4511   -7.5029   20.4526 C   0  0  0  0  0  0  0  0  0  0  0  0
    8.3360   -7.7727   21.8086 C   0  0  0  0  0  0  0  0  0  0  0  0
    8.2959   -6.7135   22.7130 C   0  0  0  0  0  0  0  0  0  0  0  0
    8.1923   -6.9322   24.0241 N   0  0  0  0  0  0  0  0  0  0  0  0
    8.2968   -9.1212   21.9641 N   0  0  0  0  0  0  0  0  0  0  0  0
    8.3681   -9.6906   20.7388 C   0  0  0  0  0  0  0  0  0  0  0  0
    8.4569   -8.7014   19.7905 N   0  0  0  0  0  0  0  0  0  0  0  0
  2  1  1  1  0  0  0
  2  3  1  0  0  0  0
  2  5  1  0  0  0  0
  3  4  1  0  0  0  0
  3 17  1  0  0  0  0
  5  6  1  0  0  0  0
  7  6  1  1  0  0  0
  7  8  1  0  0  0  0
  7  9  1  0  0  0  0
 10  9  1  1  0  0  0
 10 11  1  0  0  0  0
 10 12  1  0  0  0  0
 11 16  1  0  0  0  0
 12 13  1  6  0  0  0
 12 14  1  0  0  0  0
 14 15  1  6  0  0  0
 14 16  1  0  0  0  0
 16 27  1  1  0  0  0
 18 19  2  0  0  0  0
 18 23  1  0  0  0  0
 19 20  1  0  0  0  0
 20 21  2  0  0  0  0
 21 22  1  0  0  0  0
 21 27  1  0  0  0  0
 22 23  2  0  0  0  0
 22 25  1  0  0  0  0
 23 24  1  0  0  0  0
 25 26  2  0  0  0  0
 26 27  1  0  0  0  0
M  END
>  <CHROM.1>
-47.19057350,-55.94388522,-171.68483268,168.18591801,-176.23542421,65.34156380
-167.51935342,8.75293804,-10.99057662,19.32314595,1.65317848,-1.42977944
-2.84962174

>  <Name>
ligand

>  <RI>
0

>  <Rbt.Current_Directory>
/home/itssahil/PROJECTS/Mol_Feturizer/New_Systems/rnas/3GX5

>  <Rbt.Executable>
rbdock ($Id: //depot/dev/client3/rdock/2013.1/src/exe/rbdock.cxx#4 $)

>  <Rbt.Library>
libRbt.so (2013.1, Build901 2013/11/27)

>  <Rbt.Parameter_File>
/export/apps/rDock/src/rDock_2013.1_src/data/scripts/dock_solv.prm

>  <Rbt.Receptor>
prm/blind_docking_100.prm

>  <SCORE>
-16.7944

>  <SCORE.INTER>
-16.5669

>  <SCORE.INTER.CONST>
1

>  <SCORE.INTER.POLAR>
0

>  <SCORE.INTER.ROT>
7

>  <SCORE.INTER.SOLV>
11.7031

>  <SCORE.INTER.VDW>
-23.2123

>  <SCORE.INTER.norm>
-0.613588

>  <SCORE.INTRA>
-0.227557

>  <SCORE.INTRA.DIHEDRAL>
-0.00380106

>  <SCORE.INTRA.DIHEDRAL.0>
4.28829

>  <SCORE.INTRA.POLAR>
0

>  <SCORE.INTRA.POLAR.0>
0

>  <SCORE.INTRA.REPUL>
0

>  <SCORE.INTRA.REPUL.0>
0

>  <SCORE.INTRA.SOLV>
-0.59726

>  <SCORE.INTRA.SOLV.lig_0>
-48.6018

>  <SCORE.INTRA.VDW>
0.072973

>  <SCORE.INTRA.VDW.0>
-2.1506

>  <SCORE.INTRA.norm>
-0.00842805

>  <SCORE.RESTR>
0

>  <SCORE.RESTR.CAVITY>
0

>  <SCORE.RESTR.norm>
0

>  <SCORE.SYSTEM>
0

>  <SCORE.SYSTEM.CONST>
0

>  <SCORE.SYSTEM.DIHEDRAL>
0

>  <SCORE.SYSTEM.SOLV>
0

>  <SCORE.SYSTEM.norm>
0

>  <SCORE.heavy>
27

>  <SCORE.norm>
-0.622016

>  <RMSD>
14.274

$$$$
ligand
 OpenBabel11021811483D
libRbt.so/2013.1/901 2013/11/27
 27 29  0  0  0  0  0  0  0  0999 V2000
    6.6641   -2.9927   21.7260 N   0  0  0  0  0  0  0  0  0  0  0  0
    6.2327   -4.3260   21.3018 C   0  0  2  0  0  0  0  0  0  0  0  0
    5.0703   -4.9310   22.0928 C   0  0  0  0  0  0  0  0  0  0  0  0
    4.2661   -5.6531   21.5051 O   0  0  0  0  0  0  0  0  0  0  0  0
    7.4073   -5.2890   21.2585 C   0  0  0  0  0  0  0  0  0  0  0  0
    7.0545   -6.5675   20.5180 C   0  0  0  0  0  0  0  0  0  0  0  0
    8.4558   -7.6994   20.4987 S   0  0  2  0  0  0  0  0  0  0  0  0
    7.7433   -9.0635   19.5550 C   0  0  0  0  0  0  0  0  0  0  0  0
    8.3418   -8.3935   22.1643 C   0  0  0  0  0  0  0  0  0  0  0  0
    9.7115   -8.7992   22.6766 C   0  0  1  0  0  0  0  0  0  0  0  0
   10.4237   -9.5037   21.6853 O   0  0  0  0  0  0  0  0  0  0  0  0
   10.5857   -7.6093   23.0203 C   0  0  1  0  0  0  0  0  0  0  0  0
   10.4230   -7.3195   24.3857 O   0  0  0  0  0  0  0  0  0  0  0  0
   11.9884   -8.1047   22.7317 C   0  0  1  0  0  0  0  0  0  0  0  0
   12.5655   -8.4748   23.9638 O   0  0  0  0  0  0  0  0  0  0  0  0
   11.8223   -9.3247   21.8232 C   0  0  2  0  0  0  0  0  0  0  0  0
    4.8979   -4.7229   23.2968 O   0  0  0  0  0  0  0  0  0  0  0  0
   11.2178  -10.0931   16.6791 N   0  0  0  0  0  0  0  0  0  0  0  0
   10.4338  -10.5714   17.7007 C   0  0  0  0  0  0  0  0  0  0  0  0
   10.7592  -10.2587   19.0023 N   0  0  0  0  0  0  0  0  0  0  0  0
   11.8326   -9.4886   19.2890 C   0  0  0  0  0  0  0  0  0  0  0  0
   12.6257   -8.9868   18.2673 C   0  0  0  0  0  0  0  0  0  0  0  0
   12.3155   -9.3028   16.9462 C   0  0  0  0  0  0  0  0  0  0  0  0
   13.0572   -8.8452   15.9372 N   0  0  0  0  0  0  0  0  0  0  0  0
   13.6158   -8.2484   18.8317 N   0  0  0  0  0  0  0  0  0  0  0  0
   13.4453   -8.2674   20.1738 C   0  0  0  0  0  0  0  0  0  0  0  0
   12.3405   -9.0258   20.4734 N   0  0  0  0  0  0  0  0  0  0  0  0
  2  1  1  1  0  0  0
  2  3  1  0  0  0  0
  2  5  1  0  0  0  0
  3  4  1  0  0  0  0
  3 17  1  0  0  0  0
  5  6  1  0  0  0  0
  7  6  1  1  0  0  0
  7  8  1  0  0  0  0
  7  9  1  0  0  0  0
 10  9  1  6  0  0  0
 10 11  1  0  0  0  0
 10 12  1  0  0  0  0
 11 16  1  0  0  0  0
 12 13  1  1  0  0  0
 12 14  1  0  0  0  0
 14 15  1  1  0  0  0
 14 16  1  0  0  0  0
 16 27  1  6  0  0  0
 18 19  2  0  0  0  0
 18 23  1  0  0  0  0
 19 20  1  0  0  0  0
 20 21  2  0  0  0  0
 21 22  1  0  0  0  0
 21 27  1  0  0  0  0
 22 23  2  0  0  0  0
 22 25  1  0  0  0  0
 23 24  1  0  0  0  0
 25 26  2  0  0  0  0
 26 27  1  0  0  0  0
M  END
>  <CHROM.1>
146.25028817,-166.54943372,-179.29399239,-179.20259253,-150.74503141,-45.42810709
-31.24944832,9.68551485,-7.80467457,20.72493622,2.61601116,-0.48203815,1.35286374

>  <Name>
ligand

>  <RI>
0

>  <Rbt.Current_Directory>
/home/itssahil/PROJECTS/Mol_Feturizer/New_Systems/rnas/3GX5

>  <Rbt.Executable>
rbdock ($Id: //depot/dev/client3/rdock/2013.1/src/exe/rbdock.cxx#4 $)

>  <Rbt.Library>
libRbt.so (2013.1, Build901 2013/11/27)

>  <Rbt.Parameter_File>
/export/apps/rDock/src/rDock_2013.1_src/data/scripts/dock_solv.prm

>  <Rbt.Receptor>
prm/blind_docking_60.prm

>  <SCORE>
-9.30708

>  <SCORE.INTER>
-9.56089

>  <SCORE.INTER.CONST>
1

>  <SCORE.INTER.POLAR>
0

>  <SCORE.INTER.ROT>
7

>  <SCORE.INTER.SOLV>
6.73907

>  <SCORE.INTER.VDW>
-16.887

>  <SCORE.INTER.norm>
-0.354107

>  <SCORE.INTRA>
0.253815

>  <SCORE.INTRA.DIHEDRAL>
3.73793

>  <SCORE.INTRA.DIHEDRAL.0>
4.28829

>  <SCORE.INTRA.POLAR>
0

>  <SCORE.INTRA.POLAR.0>
0

>  <SCORE.INTRA.REPUL>
0

>  <SCORE.INTRA.REPUL.0>
0

>  <SCORE.INTRA.SOLV>
-1.07431

>  <SCORE.INTRA.SOLV.lig_0>
-48.6018

>  <SCORE.INTRA.VDW>
-1.078

>  <SCORE.INTRA.VDW.0>
-2.1506

>  <SCORE.INTRA.norm>
0.00940054

>  <SCORE.RESTR>
0

>  <SCORE.RESTR.CAVITY>
0

>  <SCORE.RESTR.norm>
0

>  <SCORE.SYSTEM>
0

>  <SCORE.SYSTEM.CONST>
0

>  <SCORE.SYSTEM.DIHEDRAL>
0

>  <SCORE.SYSTEM.SOLV>
0

>  <SCORE.SYSTEM.norm>
0

>  <SCORE.heavy>
27

>  <SCORE.norm>
-0.344706

>  <RMSD>
14.298

$$$$
ligand
 OpenBabel11021811483D
libRbt.so/2013.1/901 2013/11/27
 27 29  0  0  0  0  0  0  0  0999 V2000
    6.7888   -5.9615   18.9180 N   0  0  0  0  0  0  0  0  0  0  0  0
    7.7580   -6.1802   19.9935 C   0  0  2  0  0  0  0  0  0  0  0  0
    8.0262   -7.6422   20.3588 C   0  0  0  0  0  0  0  0  0  0  0  0
    9.1746   -8.0743   20.2686 O   0  0  0  0  0  0  0  0  0  0  0  0
    7.3863   -5.3804   21.2308 C   0  0  0  0  0  0  0  0  0  0  0  0
    7.4115   -3.8862   20.9586 C   0  0  0  0  0  0  0  0  0  0  0  0
    7.1026   -2.9582   22.4713 S   0  0  2  0  0  0  0  0  0  0  0  0
    5.3110   -3.1442   22.5924 C   0  0  0  0  0  0  0  0  0  0  0  0
    7.1880   -1.2652   21.8427 C   0  0  0  0  0  0  0  0  0  0  0  0
    8.5981   -0.9232   21.3980 C   0  0  1  0  0  0  0  0  0  0  0  0
    8.8466   -1.4262   20.1051 O   0  0  0  0  0  0  0  0  0  0  0  0
    8.8342    0.5706   21.2926 C   0  0  1  0  0  0  0  0  0  0  0  0
    9.3642    1.0227   22.5131 O   0  0  0  0  0  0  0  0  0  0  0  0
    9.8537    0.6907   20.1780 C   0  0  1  0  0  0  0  0  0  0  0  0
   11.1173    0.8598   20.7802 O   0  0  0  0  0  0  0  0  0  0  0  0
    9.7920   -0.6318   19.4107 C   0  0  2  0  0  0  0  0  0  0  0  0
    7.1395   -8.4131   20.7359 O   0  0  0  0  0  0  0  0  0  0  0  0
    5.8885    1.4577   16.6152 N   0  0  0  0  0  0  0  0  0  0  0  0
    6.0633    1.4941   17.9772 C   0  0  0  0  0  0  0  0  0  0  0  0
    7.1639    0.8784   18.5316 N   0  0  0  0  0  0  0  0  0  0  0  0
    8.0733    0.2435   17.7587 C   0  0  0  0  0  0  0  0  0  0  0  0
    7.9177    0.2103   16.3805 C   0  0  0  0  0  0  0  0  0  0  0  0
    6.8043    0.8196   15.8057 C   0  0  0  0  0  0  0  0  0  0  0  0
    6.6160    0.8035   14.4859 N   0  0  0  0  0  0  0  0  0  0  0  0
    8.9667   -0.4760   15.8583 N   0  0  0  0  0  0  0  0  0  0  0  0
    9.7744   -0.8530   16.8762 C   0  0  0  0  0  0  0  0  0  0  0  0
    9.2388   -0.4088   18.0600 N   0  0  0  0  0  0  0  0  0  0  0  0
  2  1  1  6  0  0  0
  2  3  1  0  0  0  0
  2  5  1  0  0  0  0
  3  4  1  0  0  0  0
  3 17  1  0  0  0  0
  5  6  1  0  0  0  0
  7  6  1  6  0  0  0
  7  8  1  0  0  0  0
  7  9  1  0  0  0  0
 10  9  1  6  0  0  0
 10 11  1  0  0  0  0
 10 12  1  0  0  0  0
 11 16  1  0  0  0  0
 12 13  1  1  0  0  0
 12 14  1  0  0  0  0
 14 15  1  1  0  0  0
 14 16  1  0  0  0  0
 16 27  1  6  0  0  0
 18 19  2  0  0  0  0
 18 23  1  0  0  0  0
 19 20  1  0  0  0  0
 20 21  2  0  0  0  0
 21 22  1  0  0  0  0
 21 27  1  0  0  0  0
 22 23  2  0  0  0  0
 22 25  1  0  0  0  0
 23 24  1  0  0  0  0
 25 26  2  0  0  0  0
 26 27  1  0  0  0  0
M  END
>  <CHROM.1>
121.07321962,-62.63754819,-175.28428589,-78.03060254,-67.30541902,81.27689826
62.18869409,7.98189425,-1.92464449,19.61823886,1.84455779,1.34098114,2.43605104

>  <Name>
ligand

>  <RI>
0

>  <Rbt.Current_Directory>
/home/itssahil/PROJECTS/Mol_Feturizer/New_Systems/rnas/3GX5

>  <Rbt.Executable>
rbdock ($Id: //depot/dev/client3/rdock/2013.1/src/exe/rbdock.cxx#4 $)

>  <Rbt.Library>
libRbt.so (2013.1, Build901 2013/11/27)

>  <Rbt.Parameter_File>
/export/apps/rDock/src/rDock_2013.1_src/data/scripts/dock_solv.prm

>  <Rbt.Receptor>
prm/blind_docking_100.prm

>  <SCORE>
-6.89319

>  <SCORE.INTER>
-6.46146

>  <SCORE.INTER.CONST>
1

>  <SCORE.INTER.POLAR>
0

>  <SCORE.INTER.ROT>
7

>  <SCORE.INTER.SOLV>
5.30004

>  <SCORE.INTER.VDW>
-14.341

>  <SCORE.INTER.norm>
-0.239313

>  <SCORE.INTRA>
-0.431728

>  <SCORE.INTRA.DIHEDRAL>
0.991123

>  <SCORE.INTRA.DIHEDRAL.0>
4.28829

>  <SCORE.INTRA.POLAR>
0

>  <SCORE.INTRA.POLAR.0>
0

>  <SCORE.INTRA.REPUL>
0

>  <SCORE.INTRA.REPUL.0>
0

>  <SCORE.INTRA.SOLV>
-0.539459

>  <SCORE.INTRA.SOLV.lig_0>
-48.6018

>  <SCORE.INTRA.VDW>
-0.65756

>  <SCORE.INTRA.VDW.0>
-2.1506

>  <SCORE.INTRA.norm>
-0.0159899

>  <SCORE.RESTR>
0

>  <SCORE.RESTR.CAVITY>
0

>  <SCORE.RESTR.norm>
0

>  <SCORE.SYSTEM>
0

>  <SCORE.SYSTEM.CONST>
0

>  <SCORE.SYSTEM.DIHEDRAL>
0

>  <SCORE.SYSTEM.SOLV>
0

>  <SCORE.SYSTEM.norm>
0

>  <SCORE.heavy>
27

>  <SCORE.norm>
-0.255303

>  <RMSD>
14.315

$$$$
ligand
 OpenBabel11021811483D
libRbt.so/2013.1/901 2013/11/27
 27 29  0  0  0  0  0  0  0  0999 V2000
    7.9052  -17.2907   19.1451 N   0  0  0  0  0  0  0  0  0  0  0  0
    8.8241  -16.2274   19.5561 C   0  0  2  0  0  0  0  0  0  0  0  0
    9.1972  -16.2090   21.0404 C   0  0  0  0  0  0  0  0  0  0  0  0
    8.3009  -16.3054   21.8778 O   0  0  0  0  0  0  0  0  0  0  0  0
    8.3109  -14.8661   19.1177 C   0  0  0  0  0  0  0  0  0  0  0  0
    8.0709  -14.8158   17.6186 C   0  0  0  0  0  0  0  0  0  0  0  0
    7.7824  -13.1223   17.0765 S   0  0  2  0  0  0  0  0  0  0  0  0
    7.8914  -13.3433   15.2881 C   0  0  0  0  0  0  0  0  0  0  0  0
    9.4075  -12.3945   17.3897 C   0  0  0  0  0  0  0  0  0  0  0  0
    9.3553  -10.8824   17.2724 C   0  0  1  0  0  0  0  0  0  0  0  0
    8.5039  -10.3374   18.2544 O   0  0  0  0  0  0  0  0  0  0  0  0
   10.7021  -10.2284   17.5105 C   0  0  1  0  0  0  0  0  0  0  0  0
   11.3411  -10.0651   16.2696 O   0  0  0  0  0  0  0  0  0  0  0  0
   10.3429   -8.8880   18.1190 C   0  0  1  0  0  0  0  0  0  0  0  0
   10.4192   -7.9256   17.0914 O   0  0  0  0  0  0  0  0  0  0  0  0
    8.9049   -9.0295   18.6228 C   0  0  2  0  0  0  0  0  0  0  0  0
   10.3596  -16.0958   21.4388 O   0  0  0  0  0  0  0  0  0  0  0  0
   11.6677   -9.6330   23.0297 N   0  0  0  0  0  0  0  0  0  0  0  0
   12.1102   -9.7505   21.7346 C   0  0  0  0  0  0  0  0  0  0  0  0
   11.2229   -9.5544   20.6993 N   0  0  0  0  0  0  0  0  0  0  0  0
    9.9282   -9.2463   20.9369 C   0  0  0  0  0  0  0  0  0  0  0  0
    9.4698   -9.1105   22.2392 C   0  0  0  0  0  0  0  0  0  0  0  0
   10.3528   -9.3159   23.2972 C   0  0  0  0  0  0  0  0  0  0  0  0
    9.9488   -9.2011   24.5626 N   0  0  0  0  0  0  0  0  0  0  0  0
    8.1505   -8.7931   22.1865 N   0  0  0  0  0  0  0  0  0  0  0  0
    7.7863   -8.7130   20.8859 C   0  0  0  0  0  0  0  0  0  0  0  0
    8.8780   -8.9841   20.0983 N   0  0  0  0  0  0  0  0  0  0  0  0
  2  1  1  1  0  0  0
  2  3  1  0  0  0  0
  2  5  1  0  0  0  0
  3  4  1  0  0  0  0
  3 17  1  0  0  0  0
  5  6  1  0  0  0  0
  7  6  1  1  0  0  0
  7  8  1  0  0  0  0
  7  9  1  0  0  0  0
 10  9  1  1  0  0  0
 10 11  1  0  0  0  0
 10 12  1  0  0  0  0
 11 16  1  0  0  0  0
 12 13  1  6  0  0  0
 12 14  1  0  0  0  0
 14 15  1  6  0  0  0
 14 16  1  0  0  0  0
 16 27  1  1  0  0  0
 18 19  2  0  0  0  0
 18 23  1  0  0  0  0
 19 20  1  0  0  0  0
 20 21  2  0  0  0  0
 21 22  1  0  0  0  0
 21 27  1  0  0  0  0
 22 23  2  0  0  0  0
 22 25  1  0  0  0  0
 23 24  1  0  0  0  0
 25 26  2  0  0  0  0
 26 27  1  0  0  0  0
M  END
>  <CHROM.1>
-47.64376853,-56.15707745,-168.75143053,168.49499203,-168.61126619,63.34013409
92.37013600,9.36346435,-11.63031326,19.52281671,-2.86150402,-1.32441871,-0.98078501

>  <Name>
ligand

>  <RI>
0

>  <Rbt.Current_Directory>
/home/itssahil/PROJECTS/Mol_Feturizer/New_Systems/rnas/3GX5

>  <Rbt.Executable>
rbdock ($Id: //depot/dev/client3/rdock/2013.1/src/exe/rbdock.cxx#4 $)

>  <Rbt.Library>
libRbt.so (2013.1, Build901 2013/11/27)

>  <Rbt.Parameter_File>
/export/apps/rDock/src/rDock_2013.1_src/data/scripts/dock_solv.prm

>  <Rbt.Receptor>
prm/blind_docking_80.prm

>  <SCORE>
-18.8262

>  <SCORE.INTER>
-19.1459

>  <SCORE.INTER.CONST>
1

>  <SCORE.INTER.POLAR>
0

>  <SCORE.INTER.ROT>
7

>  <SCORE.INTER.SOLV>
18.0432

>  <SCORE.INTER.VDW>
-27.045

>  <SCORE.INTER.norm>
-0.709109

>  <SCORE.INTRA>
0.319732

>  <SCORE.INTRA.DIHEDRAL>
0.754657

>  <SCORE.INTRA.DIHEDRAL.0>
4.28829

>  <SCORE.INTRA.POLAR>
0

>  <SCORE.INTRA.POLAR.0>
0

>  <SCORE.INTRA.REPUL>
0

>  <SCORE.INTRA.REPUL.0>
0

>  <SCORE.INTRA.SOLV>
-0.558982

>  <SCORE.INTRA.SOLV.lig_0>
-48.6018

>  <SCORE.INTRA.VDW>
0.221894

>  <SCORE.INTRA.VDW.0>
-2.1506

>  <SCORE.INTRA.norm>
0.0118419

>  <SCORE.RESTR>
0

>  <SCORE.RESTR.CAVITY>
0

>  <SCORE.RESTR.norm>
0

>  <SCORE.SYSTEM>
0

>  <SCORE.SYSTEM.CONST>
0

>  <SCORE.SYSTEM.DIHEDRAL>
0

>  <SCORE.SYSTEM.SOLV>
0

>  <SCORE.SYSTEM.norm>
0

>  <SCORE.heavy>
27

>  <SCORE.norm>
-0.697267

>  <RMSD>
14.375

$$$$
ligand
 OpenBabel11021811483D
libRbt.so/2013.1/901 2013/11/27
 27 29  0  0  0  0  0  0  0  0999 V2000
   15.2562   -7.1845   19.4179 N   0  0  0  0  0  0  0  0  0  0  0  0
   13.9149   -7.7574   19.2899 C   0  0  2  0  0  0  0  0  0  0  0  0
   13.1562   -7.3930   18.0114 C   0  0  0  0  0  0  0  0  0  0  0  0
   13.7249   -6.7126   17.1586 O   0  0  0  0  0  0  0  0  0  0  0  0
   13.0729   -7.4489   20.5165 C   0  0  0  0  0  0  0  0  0  0  0  0
   11.9664   -8.4722   20.7063 C   0  0  0  0  0  0  0  0  0  0  0  0
   11.0045   -8.1030   22.1840 S   0  0  2  0  0  0  0  0  0  0  0  0
   12.2061   -8.5425   23.4576 C   0  0  0  0  0  0  0  0  0  0  0  0
    9.9400   -9.5625   22.2576 C   0  0  0  0  0  0  0  0  0  0  0  0
    8.6320   -9.3159   21.5286 C   0  0  1  0  0  0  0  0  0  0  0  0
    7.9565   -8.2093   22.0813 O   0  0  0  0  0  0  0  0  0  0  0  0
    8.8315   -8.9668   20.0669 C   0  0  1  0  0  0  0  0  0  0  0  0
    8.7535  -10.1508   19.3138 O   0  0  0  0  0  0  0  0  0  0  0  0
    7.6666   -8.0478   19.7596 C   0  0  1  0  0  0  0  0  0  0  0  0
    6.6829   -8.8192   19.1076 O   0  0  0  0  0  0  0  0  0  0  0  0
    7.1563   -7.5523   21.1144 C   0  0  2  0  0  0  0  0  0  0  0  0
   11.9935   -7.7466   17.7972 O   0  0  0  0  0  0  0  0  0  0  0  0
    5.3777   -2.9705   22.9205 N   0  0  0  0  0  0  0  0  0  0  0  0
    4.7806   -4.2039   23.0174 C   0  0  0  0  0  0  0  0  0  0  0  0
    5.4101   -5.3015   22.4726 N   0  0  0  0  0  0  0  0  0  0  0  0
    6.6037   -5.1849   21.8487 C   0  0  0  0  0  0  0  0  0  0  0  0
    7.2255   -3.9483   21.7552 C   0  0  0  0  0  0  0  0  0  0  0  0
    6.5965   -2.8270   22.2923 C   0  0  0  0  0  0  0  0  0  0  0  0
    7.1589   -1.6205   22.2167 N   0  0  0  0  0  0  0  0  0  0  0  0
    8.4001   -4.1204   21.0958 N   0  0  0  0  0  0  0  0  0  0  0  0
    8.5276   -5.4333   20.7943 C   0  0  0  0  0  0  0  0  0  0  0  0
    7.4261   -6.1080   21.2602 N   0  0  0  0  0  0  0  0  0  0  0  0
  2  1  1  1  0  0  0
  2  3  1  0  0  0  0
  2  5  1  0  0  0  0
  3  4  1  0  0  0  0
  3 17  1  0  0  0  0
  5  6  1  0  0  0  0
  7  6  1  6  0  0  0
  7  8  1  0  0  0  0
  7  9  1  0  0  0  0
 10  9  1  1  0  0  0
 10 11  1  0  0  0  0
 10 12  1  0  0  0  0
 11 16  1  0  0  0  0
 12 13  1  6  0  0  0
 12 14  1  0  0  0  0
 14 15  1  1  0  0  0
 14 16  1  0  0  0  0
 16 27  1  6  0  0  0
 18 19  2  0  0  0  0
 18 23  1  0  0  0  0
 19 20  1  0  0  0  0
 20 21  2  0  0  0  0
 21 22  1  0  0  0  0
 21 27  1  0  0  0  0
 22 23  2  0  0  0  0
 22 25  1  0  0  0  0
 23 24  1  0  0  0  0
 25 26  2  0  0  0  0
 26 27  1  0  0  0  0
M  END
>  <CHROM.1>
3.42018068,-155.21763607,178.86312113,-71.39623252,-92.15173919,-58.14918905
-104.30819687,9.38625765,-6.87710279,20.88431947,-0.50993265,0.33510968,0.08811219

>  <Name>
ligand

>  <RI>
0

>  <Rbt.Current_Directory>
/home/itssahil/PROJECTS/Mol_Feturizer/New_Systems/rnas/3GX5

>  <Rbt.Executable>
rbdock ($Id: //depot/dev/client3/rdock/2013.1/src/exe/rbdock.cxx#4 $)

>  <Rbt.Library>
libRbt.so (2013.1, Build901 2013/11/27)

>  <Rbt.Parameter_File>
/export/apps/rDock/src/rDock_2013.1_src/data/scripts/dock_solv.prm

>  <Rbt.Receptor>
prm/blind_docking_60.prm

>  <SCORE>
-10.9039

>  <SCORE.INTER>
-11.5033

>  <SCORE.INTER.CONST>
1

>  <SCORE.INTER.POLAR>
0

>  <SCORE.INTER.ROT>
7

>  <SCORE.INTER.SOLV>
12.0319

>  <SCORE.INTER.VDW>
-19.9462

>  <SCORE.INTER.norm>
-0.426049

>  <SCORE.INTRA>
0.59939

>  <SCORE.INTRA.DIHEDRAL>
2.51276

>  <SCORE.INTRA.DIHEDRAL.0>
4.28829

>  <SCORE.INTRA.POLAR>
0

>  <SCORE.INTRA.POLAR.0>
0

>  <SCORE.INTRA.REPUL>
0

>  <SCORE.INTRA.REPUL.0>
0

>  <SCORE.INTRA.SOLV>
-0.968829

>  <SCORE.INTRA.SOLV.lig_0>
-48.6018

>  <SCORE.INTRA.VDW>
-0.172576

>  <SCORE.INTRA.VDW.0>
-2.1506

>  <SCORE.INTRA.norm>
0.0221996

>  <SCORE.RESTR>
0

>  <SCORE.RESTR.CAVITY>
0

>  <SCORE.RESTR.norm>
0

>  <SCORE.SYSTEM>
0

>  <SCORE.SYSTEM.CONST>
0

>  <SCORE.SYSTEM.DIHEDRAL>
0

>  <SCORE.SYSTEM.SOLV>
0

>  <SCORE.SYSTEM.norm>
0

>  <SCORE.heavy>
27

>  <SCORE.norm>
-0.403849

>  <RMSD>
14.387

$$$$
ligand
 OpenBabel11021811483D
libRbt.so/2013.1/901 2013/11/27
 27 29  0  0  0  0  0  0  0  0999 V2000
    7.0005  -11.8829   17.2367 N   0  0  0  0  0  0  0  0  0  0  0  0
    8.0748  -10.9141   17.4628 C   0  0  2  0  0  0  0  0  0  0  0  0
    9.4926  -11.4901   17.4954 C   0  0  0  0  0  0  0  0  0  0  0  0
    9.7911  -12.3751   16.6946 O   0  0  0  0  0  0  0  0  0  0  0  0
    7.8064  -10.0858   18.7080 C   0  0  0  0  0  0  0  0  0  0  0  0
    6.4812   -9.3492   18.6139 C   0  0  0  0  0  0  0  0  0  0  0  0
    6.1842   -8.3805   20.1034 S   0  0  2  0  0  0  0  0  0  0  0  0
    4.5144   -7.7853   19.7619 C   0  0  0  0  0  0  0  0  0  0  0  0
    7.1224   -6.8843   19.7162 C   0  0  0  0  0  0  0  0  0  0  0  0
    8.0383   -6.5069   20.8658 C   0  0  1  0  0  0  0  0  0  0  0  0
    8.9471   -5.5057   20.4685 O   0  0  0  0  0  0  0  0  0  0  0  0
    7.2888   -5.9150   22.0433 C   0  0  1  0  0  0  0  0  0  0  0  0
    6.9824   -6.9525   22.9403 O   0  0  0  0  0  0  0  0  0  0  0  0
    8.2861   -4.9480   22.6486 C   0  0  1  0  0  0  0  0  0  0  0  0
    8.8732   -5.5893   23.7586 O   0  0  0  0  0  0  0  0  0  0  0  0
    9.3291   -4.6871   21.5598 C   0  0  2  0  0  0  0  0  0  0  0  0
   10.3527  -11.1106   18.2947 O   0  0  0  0  0  0  0  0  0  0  0  0
    6.2716   -1.0646   19.3355 N   0  0  0  0  0  0  0  0  0  0  0  0
    5.9465   -2.3599   19.6573 C   0  0  0  0  0  0  0  0  0  0  0  0
    6.8974   -3.1677   20.2413 N   0  0  0  0  0  0  0  0  0  0  0  0
    8.1406   -2.7064   20.5046 C   0  0  0  0  0  0  0  0  0  0  0  0
    8.4794   -1.3965   20.1982 C   0  0  0  0  0  0  0  0  0  0  0  0
    7.5317   -0.5702   19.5977 C   0  0  0  0  0  0  0  0  0  0  0  0
    7.8212    0.6924   19.2821 N   0  0  0  0  0  0  0  0  0  0  0  0
    9.7700   -1.2006   20.5725 N   0  0  0  0  0  0  0  0  0  0  0  0
   10.2317   -2.3499   21.1170 C   0  0  0  0  0  0  0  0  0  0  0  0
    9.2321   -3.2910   21.0891 N   0  0  0  0  0  0  0  0  0  0  0  0
  2  1  1  1  0  0  0
  2  3  1  0  0  0  0
  2  5  1  0  0  0  0
  3  4  1  0  0  0  0
  3 17  1  0  0  0  0
  5  6  1  0  0  0  0
  7  6  1  6  0  0  0
  7  8  1  0  0  0  0
  7  9  1  0  0  0  0
 10  9  1  6  0  0  0
 10 11  1  0  0  0  0
 10 12  1  0  0  0  0
 11 16  1  0  0  0  0
 12 13  1  1  0  0  0
 12 14  1  0  0  0  0
 14 15  1  1  0  0  0
 14 16  1  0  0  0  0
 16 27  1  6  0  0  0
 18 19  2  0  0  0  0
 18 23  1  0  0  0  0
 19 20  1  0  0  0  0
 20 21  2  0  0  0  0
 21 22  1  0  0  0  0
 21 27  1  0  0  0  0
 22 23  2  0  0  0  0
 22 25  1  0  0  0  0
 23 24  1  0  0  0  0
 25 26  2  0  0  0  0
 26 27  1  0  0  0  0
M  END
>  <CHROM.1>
39.71540223,-57.99040022,179.79154078,-174.59181733,-130.41956209,168.66039605
53.03398979,7.88015526,-6.09238829,20.00957811,1.55590280,1.22246224,-2.86913569

>  <Name>
ligand

>  <RI>
0

>  <Rbt.Current_Directory>
/home/itssahil/PROJECTS/Mol_Feturizer/New_Systems/rnas/3GX5

>  <Rbt.Executable>
rbdock ($Id: //depot/dev/client3/rdock/2013.1/src/exe/rbdock.cxx#4 $)

>  <Rbt.Library>
libRbt.so (2013.1, Build901 2013/11/27)

>  <Rbt.Parameter_File>
/export/apps/rDock/src/rDock_2013.1_src/data/scripts/dock_solv.prm

>  <Rbt.Receptor>
prm/blind_docking_60.prm

>  <SCORE>
-6.45487

>  <SCORE.INTER>
-8.02124

>  <SCORE.INTER.CONST>
1

>  <SCORE.INTER.POLAR>
0

>  <SCORE.INTER.ROT>
7

>  <SCORE.INTER.SOLV>
7.47012

>  <SCORE.INTER.VDW>
-16.1042

>  <SCORE.INTER.norm>
-0.297083

>  <SCORE.INTRA>
1.56636

>  <SCORE.INTRA.DIHEDRAL>
4.50282

>  <SCORE.INTRA.DIHEDRAL.0>
4.28829

>  <SCORE.INTRA.POLAR>
0

>  <SCORE.INTRA.POLAR.0>
0

>  <SCORE.INTRA.REPUL>
0

>  <SCORE.INTRA.REPUL.0>
0

>  <SCORE.INTRA.SOLV>
-0.347283

>  <SCORE.INTRA.SOLV.lig_0>
-48.6018

>  <SCORE.INTRA.VDW>
-0.511409

>  <SCORE.INTRA.VDW.0>
-2.1506

>  <SCORE.INTRA.norm>
0.0580134

>  <SCORE.RESTR>
0

>  <SCORE.RESTR.CAVITY>
0

>  <SCORE.RESTR.norm>
0

>  <SCORE.SYSTEM>
0

>  <SCORE.SYSTEM.CONST>
0

>  <SCORE.SYSTEM.DIHEDRAL>
0

>  <SCORE.SYSTEM.SOLV>
0

>  <SCORE.SYSTEM.norm>
0

>  <SCORE.heavy>
27

>  <SCORE.norm>
-0.239069

>  <RMSD>
14.416

$$$$
ligand
 OpenBabel11021811483D
libRbt.so/2013.1/901 2013/11/27
 27 29  0  0  0  0  0  0  0  0999 V2000
   11.2151   -9.5246   16.7381 N   0  0  0  0  0  0  0  0  0  0  0  0
   11.3151   -8.0689   16.8595 C   0  0  2  0  0  0  0  0  0  0  0  0
   10.1869   -7.2686   16.2042 C   0  0  0  0  0  0  0  0  0  0  0  0
    9.5738   -6.4449   16.8818 O   0  0  0  0  0  0  0  0  0  0  0  0
   12.6691   -7.5752   16.3780 C   0  0  0  0  0  0  0  0  0  0  0  0
   13.8056   -8.2073   17.1630 C   0  0  0  0  0  0  0  0  0  0  0  0
   13.9053   -7.5027   18.8179 S   0  0  2  0  0  0  0  0  0  0  0  0
   15.4547   -8.2400   19.3792 C   0  0  0  0  0  0  0  0  0  0  0  0
   12.7323   -8.5603   19.6978 C   0  0  0  0  0  0  0  0  0  0  0  0
   12.8173   -8.3338   21.1959 C   0  0  1  0  0  0  0  0  0  0  0  0
   12.4263   -7.0198   21.5224 O   0  0  0  0  0  0  0  0  0  0  0  0
   11.8793   -9.2309   21.9793 C   0  0  1  0  0  0  0  0  0  0  0  0
   12.5828  -10.3883   22.3540 O   0  0  0  0  0  0  0  0  0  0  0  0
   11.5194   -8.3957   23.1912 C   0  0  1  0  0  0  0  0  0  0  0  0
   12.3206   -8.8415   24.2623 O   0  0  0  0  0  0  0  0  0  0  0  0
   11.8647   -6.9516   22.8212 C   0  0  2  0  0  0  0  0  0  0  0  0
    9.8580   -7.4154   15.0239 O   0  0  0  0  0  0  0  0  0  0  0  0
    8.4928   -3.7895   25.2809 N   0  0  0  0  0  0  0  0  0  0  0  0
    9.6374   -4.3574   25.7854 C   0  0  0  0  0  0  0  0  0  0  0  0
   10.3995   -5.1701   24.9753 N   0  0  0  0  0  0  0  0  0  0  0  0
   10.0416   -5.4145   23.6947 C   0  0  0  0  0  0  0  0  0  0  0  0
    8.8960   -4.8370   23.1669 C   0  0  0  0  0  0  0  0  0  0  0  0
    8.1092   -4.0208   23.9770 C   0  0  0  0  0  0  0  0  0  0  0  0
    6.9976   -3.4530   23.5083 N   0  0  0  0  0  0  0  0  0  0  0  0
    8.7826   -5.2397   21.8750 N   0  0  0  0  0  0  0  0  0  0  0  0
    9.8368   -6.0373   21.5864 C   0  0  0  0  0  0  0  0  0  0  0  0
   10.6304   -6.1501   22.7013 N   0  0  0  0  0  0  0  0  0  0  0  0
  2  1  1  6  0  0  0
  2  3  1  0  0  0  0
  2  5  1  0  0  0  0
  3  4  1  0  0  0  0
  3 17  1  0  0  0  0
  5  6  1  0  0  0  0
  7  6  1  6  0  0  0
  7  8  1  0  0  0  0
  7  9  1  0  0  0  0
 10  9  1  6  0  0  0
 10 11  1  0  0  0  0
 10 12  1  0  0  0  0
 11 16  1  0  0  0  0
 12 13  1  1  0  0  0
 12 14  1  0  0  0  0
 14 15  1  1  0  0  0
 14 16  1  0  0  0  0
 16 27  1  6  0  0  0
 18 19  2  0  0  0  0
 18 23  1  0  0  0  0
 19 20  1  0  0  0  0
 20 21  2  0  0  0  0
 21 22  1  0  0  0  0
 21 27  1  0  0  0  0
 22 23  2  0  0  0  0
 22 25  1  0  0  0  0
 23 24  1  0  0  0  0
 25 26  2  0  0  0  0
 26 27  1  0  0  0  0
M  END
>  <CHROM.1>
126.37736890,-58.69121810,-73.66715438,-171.61071110,169.56670631,64.35433612
-153.87819485,11.22587665,-6.99720439,20.82410257,1.08721875,0.66256915,-1.67500471

>  <Name>
ligand

>  <RI>
0

>  <Rbt.Current_Directory>
/home/itssahil/PROJECTS/Mol_Feturizer/New_Systems/rnas/3GX5

>  <Rbt.Executable>
rbdock ($Id: //depot/dev/client3/rdock/2013.1/src/exe/rbdock.cxx#4 $)

>  <Rbt.Library>
libRbt.so (2013.1, Build901 2013/11/27)

>  <Rbt.Parameter_File>
/export/apps/rDock/src/rDock_2013.1_src/data/scripts/dock_solv.prm

>  <Rbt.Receptor>
prm/blind_docking_40.prm

>  <SCORE>
-12.3574

>  <SCORE.INTER>
-12.72

>  <SCORE.INTER.CONST>
1

>  <SCORE.INTER.POLAR>
0

>  <SCORE.INTER.ROT>
7

>  <SCORE.INTER.SOLV>
12.6796

>  <SCORE.INTER.VDW>
-20.9732

>  <SCORE.INTER.norm>
-0.471112

>  <SCORE.INTRA>
0.362681

>  <SCORE.INTRA.DIHEDRAL>
0.68832

>  <SCORE.INTRA.DIHEDRAL.0>
4.28829

>  <SCORE.INTRA.POLAR>
0

>  <SCORE.INTRA.POLAR.0>
0

>  <SCORE.INTRA.REPUL>
0

>  <SCORE.INTRA.REPUL.0>
0

>  <SCORE.INTRA.SOLV>
0.821846

>  <SCORE.INTRA.SOLV.lig_0>
-48.6018

>  <SCORE.INTRA.VDW>
-0.392402

>  <SCORE.INTRA.VDW.0>
-2.1506

>  <SCORE.INTRA.norm>
0.0134326

>  <SCORE.RESTR>
0

>  <SCORE.RESTR.CAVITY>
0

>  <SCORE.RESTR.norm>
0

>  <SCORE.SYSTEM>
0

>  <SCORE.SYSTEM.CONST>
0

>  <SCORE.SYSTEM.DIHEDRAL>
0

>  <SCORE.SYSTEM.SOLV>
0

>  <SCORE.SYSTEM.norm>
0

>  <SCORE.heavy>
27

>  <SCORE.norm>
-0.45768

>  <RMSD>
14.419

$$$$
ligand
 OpenBabel11021811483D
libRbt.so/2013.1/901 2013/11/27
 27 29  0  0  0  0  0  0  0  0999 V2000
   11.0343   -8.2394   14.5616 N   0  0  0  0  0  0  0  0  0  0  0  0
   12.2561   -8.6573   15.2517 C   0  0  2  0  0  0  0  0  0  0  0  0
   12.4084  -10.1633   15.4792 C   0  0  0  0  0  0  0  0  0  0  0  0
   13.4212  -10.7256   15.0647 O   0  0  0  0  0  0  0  0  0  0  0  0
   12.4287   -7.9001   16.5577 C   0  0  0  0  0  0  0  0  0  0  0  0
   13.7609   -8.2167   17.2152 C   0  0  0  0  0  0  0  0  0  0  0  0
   13.8404   -7.5046   18.8680 S   0  0  2  0  0  0  0  0  0  0  0  0
   15.4225   -8.1750   19.4219 C   0  0  0  0  0  0  0  0  0  0  0  0
   12.7177   -8.6084   19.7568 C   0  0  0  0  0  0  0  0  0  0  0  0
   12.7783   -8.3532   21.2515 C   0  0  1  0  0  0  0  0  0  0  0  0
   12.3423   -7.0467   21.5503 O   0  0  0  0  0  0  0  0  0  0  0  0
   11.8602   -9.2659   22.0404 C   0  0  1  0  0  0  0  0  0  0  0  0
   12.5956  -10.3936   22.4434 O   0  0  0  0  0  0  0  0  0  0  0  0
   11.4601   -8.4214   23.2333 C   0  0  1  0  0  0  0  0  0  0  0  0
   12.2627   -8.8229   24.3209 O   0  0  0  0  0  0  0  0  0  0  0  0
   11.7638   -6.9738   22.8414 C   0  0  2  0  0  0  0  0  0  0  0  0
   11.5566  -10.8442   16.0566 O   0  0  0  0  0  0  0  0  0  0  0  0
    6.8696   -6.3111   24.5807 N   0  0  0  0  0  0  0  0  0  0  0  0
    7.8178   -7.1896   25.0458 C   0  0  0  0  0  0  0  0  0  0  0  0
    9.0600   -7.2167   24.4510 N   0  0  0  0  0  0  0  0  0  0  0  0
    9.3607   -6.3932   23.4220 C   0  0  0  0  0  0  0  0  0  0  0  0
    8.4181   -5.4910   22.9505 C   0  0  0  0  0  0  0  0  0  0  0  0
    7.1538   -5.4588   23.5350 C   0  0  0  0  0  0  0  0  0  0  0  0
    6.2189   -4.6106   23.1057 N   0  0  0  0  0  0  0  0  0  0  0  0
    8.9824   -4.7917   21.9323 N   0  0  0  0  0  0  0  0  0  0  0  0
   10.2537   -5.2267   21.7737 C   0  0  0  0  0  0  0  0  0  0  0  0
   10.5064   -6.2142   22.6938 N   0  0  0  0  0  0  0  0  0  0  0  0
  2  1  1  1  0  0  0
  2  3  1  0  0  0  0
  2  5  1  0  0  0  0
  3  4  1  0  0  0  0
  3 17  1  0  0  0  0
  5  6  1  0  0  0  0
  7  6  1  6  0  0  0
  7  8  1  0  0  0  0
  7  9  1  0  0  0  0
 10  9  1  6  0  0  0
 10 11  1  0  0  0  0
 10 12  1  0  0  0  0
 11 16  1  0  0  0  0
 12 13  1  1  0  0  0
 12 14  1  0  0  0  0
 14 15  1  1  0  0  0
 14 16  1  0  0  0  0
 16 27  1  6  0  0  0
 18 19  2  0  0  0  0
 18 23  1  0  0  0  0
 19 20  1  0  0  0  0
 20 21  2  0  0  0  0
 21 22  1  0  0  0  0
 21 27  1  0  0  0  0
 22 23  2  0  0  0  0
 22 25  1  0  0  0  0
 23 24  1  0  0  0  0
 25 26  2  0  0  0  0
 26 27  1  0  0  0  0
M  END
>  <CHROM.1>
124.71210064,-174.13079381,-171.62035577,174.80769957,170.85952158,63.12012614
147.52043947,11.27678446,-7.73947001,20.56508121,0.98767659,0.50506825,-1.64038024

>  <Name>
ligand

>  <RI>
0

>  <Rbt.Current_Directory>
/home/itssahil/PROJECTS/Mol_Feturizer/New_Systems/rnas/3GX5

>  <Rbt.Executable>
rbdock ($Id: //depot/dev/client3/rdock/2013.1/src/exe/rbdock.cxx#4 $)

>  <Rbt.Library>
libRbt.so (2013.1, Build901 2013/11/27)

>  <Rbt.Parameter_File>
/export/apps/rDock/src/rDock_2013.1_src/data/scripts/dock_solv.prm

>  <Rbt.Receptor>
prm/blind_docking_40.prm

>  <SCORE>
-12.0315

>  <SCORE.INTER>
-11.6472

>  <SCORE.INTER.CONST>
1

>  <SCORE.INTER.POLAR>
0

>  <SCORE.INTER.ROT>
7

>  <SCORE.INTER.SOLV>
11.519

>  <SCORE.INTER.VDW>
-19.8712

>  <SCORE.INTER.norm>
-0.43138

>  <SCORE.INTRA>
-0.384216

>  <SCORE.INTRA.DIHEDRAL>
-0.325746

>  <SCORE.INTRA.DIHEDRAL.0>
4.28829

>  <SCORE.INTRA.POLAR>
0

>  <SCORE.INTRA.POLAR.0>
0

>  <SCORE.INTRA.REPUL>
0

>  <SCORE.INTRA.REPUL.0>
0

>  <SCORE.INTRA.SOLV>
-1.28603

>  <SCORE.INTRA.SOLV.lig_0>
-48.6018

>  <SCORE.INTRA.VDW>
0.42167

>  <SCORE.INTRA.VDW.0>
-2.1506

>  <SCORE.INTRA.norm>
-0.0142302

>  <SCORE.RESTR>
0

>  <SCORE.RESTR.CAVITY>
0

>  <SCORE.RESTR.norm>
0

>  <SCORE.SYSTEM>
0

>  <SCORE.SYSTEM.CONST>
0

>  <SCORE.SYSTEM.DIHEDRAL>
0

>  <SCORE.SYSTEM.SOLV>
0

>  <SCORE.SYSTEM.norm>
0

>  <SCORE.heavy>
27

>  <SCORE.norm>
-0.44561

>  <RMSD>
14.445

$$$$
ligand
 OpenBabel11021811483D
libRbt.so/2013.1/901 2013/11/27
 27 29  0  0  0  0  0  0  0  0999 V2000
   10.2606   -7.4787   22.9642 N   0  0  0  0  0  0  0  0  0  0  0  0
    8.8169   -7.7023   22.8666 C   0  0  2  0  0  0  0  0  0  0  0  0
    8.3028   -8.1314   21.4902 C   0  0  0  0  0  0  0  0  0  0  0  0
    7.5939   -9.1336   21.4086 O   0  0  0  0  0  0  0  0  0  0  0  0
    8.0446   -6.4955   23.3724 C   0  0  0  0  0  0  0  0  0  0  0  0
    8.2792   -5.2756   22.4982 C   0  0  0  0  0  0  0  0  0  0  0  0
    7.4446   -3.8327   23.1814 S   0  0  2  0  0  0  0  0  0  0  0  0
    5.7245   -4.3468   22.9909 C   0  0  0  0  0  0  0  0  0  0  0  0
    7.5727   -2.6875   21.7883 C   0  0  0  0  0  0  0  0  0  0  0  0
    9.0123   -2.2594   21.5700 C   0  0  1  0  0  0  0  0  0  0  0  0
    9.2013   -1.8090   20.2481 O   0  0  0  0  0  0  0  0  0  0  0  0
    9.4165   -1.0907   22.4469 C   0  0  1  0  0  0  0  0  0  0  0  0
    9.9951   -1.5982   23.6228 O   0  0  0  0  0  0  0  0  0  0  0  0
   10.4423   -0.3559   21.6080 C   0  0  1  0  0  0  0  0  0  0  0  0
   11.7173   -0.7323   22.0777 O   0  0  0  0  0  0  0  0  0  0  0  0
   10.2303   -0.8383   20.1713 C   0  0  2  0  0  0  0  0  0  0  0  0
    8.5718   -7.5196   20.4528 O   0  0  0  0  0  0  0  0  0  0  0  0
    8.3941    0.5445   15.4666 N   0  0  0  0  0  0  0  0  0  0  0  0
    8.7879   -0.7036   15.8843 C   0  0  0  0  0  0  0  0  0  0  0  0
    9.2485   -0.8685   17.1721 N   0  0  0  0  0  0  0  0  0  0  0  0
    9.3161    0.1746   18.0295 C   0  0  0  0  0  0  0  0  0  0  0  0
    8.9089    1.4381   17.6265 C   0  0  0  0  0  0  0  0  0  0  0  0
    8.4504    1.6228   16.3238 C   0  0  0  0  0  0  0  0  0  0  0  0
    8.0564    2.8230   15.8970 N   0  0  0  0  0  0  0  0  0  0  0  0
    9.0734    2.2842   18.6758 N   0  0  0  0  0  0  0  0  0  0  0  0
    9.5558    1.5732   19.7210 C   0  0  0  0  0  0  0  0  0  0  0  0
    9.7052    0.2626   19.3393 N   0  0  0  0  0  0  0  0  0  0  0  0
  2  1  1  6  0  0  0
  2  3  1  0  0  0  0
  2  5  1  0  0  0  0
  3  4  1  0  0  0  0
  3 17  1  0  0  0  0
  5  6  1  0  0  0  0
  7  6  1  6  0  0  0
  7  8  1  0  0  0  0
  7  9  1  0  0  0  0
 10  9  1  6  0  0  0
 10 11  1  0  0  0  0
 10 12  1  0  0  0  0
 11 16  1  0  0  0  0
 12 13  1  1  0  0  0
 12 14  1  0  0  0  0
 14 15  1  1  0  0  0
 14 16  1  0  0  0  0
 16 27  1  6  0  0  0
 18 19  2  0  0  0  0
 18 23  1  0  0  0  0
 19 20  1  0  0  0  0
 20 21  2  0  0  0  0
 21 22  1  0  0  0  0
 21 27  1  0  0  0  0
 22 23  2  0  0  0  0
 22 25  1  0  0  0  0
 23 24  1  0  0  0  0
 25 26  2  0  0  0  0
 26 27  1  0  0  0  0
M  END
>  <CHROM.1>
128.17678711,64.91779752,-176.12760884,-65.88538165,-68.73062534,157.72257255
-61.70780655,8.82276862,-2.47349880,20.54833271,1.87462153,1.27148925,2.29140022

>  <Name>
ligand

>  <RI>
0

>  <Rbt.Current_Directory>
/home/itssahil/PROJECTS/Mol_Feturizer/New_Systems/rnas/3GX5

>  <Rbt.Executable>
rbdock ($Id: //depot/dev/client3/rdock/2013.1/src/exe/rbdock.cxx#4 $)

>  <Rbt.Library>
libRbt.so (2013.1, Build901 2013/11/27)

>  <Rbt.Parameter_File>
/export/apps/rDock/src/rDock_2013.1_src/data/scripts/dock_solv.prm

>  <Rbt.Receptor>
prm/blind_docking_100.prm

>  <SCORE>
-10.1289

>  <SCORE.INTER>
-11.0071

>  <SCORE.INTER.CONST>
1

>  <SCORE.INTER.POLAR>
0

>  <SCORE.INTER.ROT>
7

>  <SCORE.INTER.SOLV>
6.39556

>  <SCORE.INTER.VDW>
-17.7366

>  <SCORE.INTER.norm>
-0.407669

>  <SCORE.INTRA>
0.87811

>  <SCORE.INTRA.DIHEDRAL>
0.897646

>  <SCORE.INTRA.DIHEDRAL.0>
4.28829

>  <SCORE.INTRA.POLAR>
0

>  <SCORE.INTRA.POLAR.0>
0

>  <SCORE.INTRA.REPUL>
0

>  <SCORE.INTRA.REPUL.0>
0

>  <SCORE.INTRA.SOLV>
-0.515556

>  <SCORE.INTRA.SOLV.lig_0>
-48.6018

>  <SCORE.INTRA.VDW>
0.687065

>  <SCORE.INTRA.VDW.0>
-2.1506

>  <SCORE.INTRA.norm>
0.0325226

>  <SCORE.RESTR>
0

>  <SCORE.RESTR.CAVITY>
0

>  <SCORE.RESTR.norm>
0

>  <SCORE.SYSTEM>
0

>  <SCORE.SYSTEM.CONST>
0

>  <SCORE.SYSTEM.DIHEDRAL>
0

>  <SCORE.SYSTEM.SOLV>
0

>  <SCORE.SYSTEM.norm>
0

>  <SCORE.heavy>
27

>  <SCORE.norm>
-0.375146

>  <RMSD>
14.462

$$$$
ligand
 OpenBabel11021811483D
libRbt.so/2013.1/901 2013/11/27
 27 29  0  0  0  0  0  0  0  0999 V2000
    8.1790   -9.7281   16.6992 N   0  0  0  0  0  0  0  0  0  0  0  0
    9.1799  -10.0412   17.7209 C   0  0  2  0  0  0  0  0  0  0  0  0
   10.4058  -10.8176   17.2339 C   0  0  0  0  0  0  0  0  0  0  0  0
   11.5136  -10.5118   17.6730 O   0  0  0  0  0  0  0  0  0  0  0  0
    8.5426  -10.7408   18.9097 C   0  0  0  0  0  0  0  0  0  0  0  0
    7.7599   -9.7690   19.7760 C   0  0  0  0  0  0  0  0  0  0  0  0
    8.8523   -8.5211   20.4794 S   0  0  2  0  0  0  0  0  0  0  0  0
    9.7961   -9.5437   21.6295 C   0  0  0  0  0  0  0  0  0  0  0  0
    7.7275   -7.7171   21.6443 C   0  0  0  0  0  0  0  0  0  0  0  0
    8.4767   -6.7451   22.5370 C   0  0  1  0  0  0  0  0  0  0  0  0
    9.0747   -5.7257   21.7693 O   0  0  0  0  0  0  0  0  0  0  0  0
    7.5673   -6.0232   23.5118 C   0  0  1  0  0  0  0  0  0  0  0  0
    7.5472   -6.7455   24.7172 O   0  0  0  0  0  0  0  0  0  0  0  0
    8.2396   -4.6775   23.6941 C   0  0  1  0  0  0  0  0  0  0  0  0
    8.9608   -4.7281   24.9045 O   0  0  0  0  0  0  0  0  0  0  0  0
    9.1887   -4.5199   22.5043 C   0  0  2  0  0  0  0  0  0  0  0  0
   10.3355  -11.7367   16.4135 O   0  0  0  0  0  0  0  0  0  0  0  0
   10.4123   -0.0461   20.0739 N   0  0  0  0  0  0  0  0  0  0  0  0
   11.2228   -0.8261   20.8626 C   0  0  0  0  0  0  0  0  0  0  0  0
   10.7130   -1.9777   21.4207 N   0  0  0  0  0  0  0  0  0  0  0  0
    9.4325   -2.3527   21.2030 C   0  0  0  0  0  0  0  0  0  0  0  0
    8.6061   -1.5828   20.3976 C   0  0  0  0  0  0  0  0  0  0  0  0
    9.1042   -0.4098   19.8343 C   0  0  0  0  0  0  0  0  0  0  0  0
    8.3392    0.3603   19.0601 N   0  0  0  0  0  0  0  0  0  0  0  0
    7.3923   -2.1894   20.3441 N   0  0  0  0  0  0  0  0  0  0  0  0
    7.4525   -3.3221   21.0817 C   0  0  0  0  0  0  0  0  0  0  0  0
    8.7122   -3.4418   21.6150 N   0  0  0  0  0  0  0  0  0  0  0  0
  2  1  1  6  0  0  0
  2  3  1  0  0  0  0
  2  5  1  0  0  0  0
  3  4  1  0  0  0  0
  3 17  1  0  0  0  0
  5  6  1  0  0  0  0
  7  6  1  6  0  0  0
  7  8  1  0  0  0  0
  7  9  1  0  0  0  0
 10  9  1  6  0  0  0
 10 11  1  0  0  0  0
 10 12  1  0  0  0  0
 11 16  1  0  0  0  0
 12 13  1  1  0  0  0
 12 14  1  0  0  0  0
 14 15  1  1  0  0  0
 14 16  1  0  0  0  0
 16 27  1  6  0  0  0
 18 19  2  0  0  0  0
 18 23  1  0  0  0  0
 19 20  1  0  0  0  0
 20 21  2  0  0  0  0
 21 22  1  0  0  0  0
 21 27  1  0  0  0  0
 22 23  2  0  0  0  0
 22 25  1  0  0  0  0
 23 24  1  0  0  0  0
 25 26  2  0  0  0  0
 26 27  1  0  0  0  0
M  END
>  <CHROM.1>
139.73467897,-75.15148614,-62.78942609,-69.03368392,171.17280168,61.36259969
-120.78901647,8.99256197,-5.97076450,20.66154682,-1.43010441,1.29464424,0.18106629

>  <Name>
ligand

>  <RI>
0

>  <Rbt.Current_Directory>
/home/itssahil/PROJECTS/Mol_Feturizer/New_Systems/rnas/3GX5

>  <Rbt.Executable>
rbdock ($Id: //depot/dev/client3/rdock/2013.1/src/exe/rbdock.cxx#4 $)

>  <Rbt.Library>
libRbt.so (2013.1, Build901 2013/11/27)

>  <Rbt.Parameter_File>
/export/apps/rDock/src/rDock_2013.1_src/data/scripts/dock_solv.prm

>  <Rbt.Receptor>
prm/blind_docking_100.prm

>  <SCORE>
-10.5053

>  <SCORE.INTER>
-10.4087

>  <SCORE.INTER.CONST>
1

>  <SCORE.INTER.POLAR>
0

>  <SCORE.INTER.ROT>
7

>  <SCORE.INTER.SOLV>
6.12984

>  <SCORE.INTER.VDW>
-17.2491

>  <SCORE.INTER.norm>
-0.385508

>  <SCORE.INTRA>
-0.0965333

>  <SCORE.INTRA.DIHEDRAL>
0.0709697

>  <SCORE.INTRA.DIHEDRAL.0>
4.28829

>  <SCORE.INTRA.POLAR>
0

>  <SCORE.INTRA.POLAR.0>
0

>  <SCORE.INTRA.REPUL>
0

>  <SCORE.INTRA.REPUL.0>
0

>  <SCORE.INTRA.SOLV>
-0.263127

>  <SCORE.INTRA.SOLV.lig_0>
-48.6018

>  <SCORE.INTRA.VDW>
-0.00045487

>  <SCORE.INTRA.VDW.0>
-2.1506

>  <SCORE.INTRA.norm>
-0.00357531

>  <SCORE.RESTR>
0

>  <SCORE.RESTR.CAVITY>
0

>  <SCORE.RESTR.norm>
0

>  <SCORE.SYSTEM>
0

>  <SCORE.SYSTEM.CONST>
0

>  <SCORE.SYSTEM.DIHEDRAL>
0

>  <SCORE.SYSTEM.SOLV>
0

>  <SCORE.SYSTEM.norm>
0

>  <SCORE.heavy>
27

>  <SCORE.norm>
-0.389084

>  <RMSD>
14.489

$$$$
ligand
 OpenBabel11021811483D
libRbt.so/2013.1/901 2013/11/27
 27 29  0  0  0  0  0  0  0  0999 V2000
    8.3839  -16.9032   20.4208 N   0  0  0  0  0  0  0  0  0  0  0  0
    7.5981  -17.1053   19.2020 C   0  0  2  0  0  0  0  0  0  0  0  0
    8.2312  -18.0154   18.1467 C   0  0  0  0  0  0  0  0  0  0  0  0
    9.4058  -18.3544   18.2845 O   0  0  0  0  0  0  0  0  0  0  0  0
    7.1962  -15.7748   18.5877 C   0  0  0  0  0  0  0  0  0  0  0  0
    8.4108  -14.9449   18.2090 C   0  0  0  0  0  0  0  0  0  0  0  0
    7.9087  -13.3419   17.5583 S   0  0  2  0  0  0  0  0  0  0  0  0
    7.8135  -13.7341   15.7987 C   0  0  0  0  0  0  0  0  0  0  0  0
    9.4895  -12.4649   17.5864 C   0  0  0  0  0  0  0  0  0  0  0  0
    9.2846  -10.9733   17.3959 C   0  0  1  0  0  0  0  0  0  0  0  0
    8.4445  -10.4551   18.4018 O   0  0  0  0  0  0  0  0  0  0  0  0
   10.5738  -10.1842   17.5129 C   0  0  1  0  0  0  0  0  0  0  0  0
   11.1191  -10.0329   16.2266 O   0  0  0  0  0  0  0  0  0  0  0  0
   10.1236   -8.8507   18.0743 C   0  0  1  0  0  0  0  0  0  0  0  0
   10.0454   -7.9453   16.9963 O   0  0  0  0  0  0  0  0  0  0  0  0
    8.7386   -9.0967   18.6765 C   0  0  2  0  0  0  0  0  0  0  0  0
    7.6176  -18.4225   17.1565 O   0  0  0  0  0  0  0  0  0  0  0  0
   11.7530   -9.4392   22.9443 N   0  0  0  0  0  0  0  0  0  0  0  0
   12.1223   -9.6251   21.6342 C   0  0  0  0  0  0  0  0  0  0  0  0
   11.1757   -9.4919   20.6423 N   0  0  0  0  0  0  0  0  0  0  0  0
    9.8938   -9.1793   20.9365 C   0  0  0  0  0  0  0  0  0  0  0  0
    9.5089   -8.9749   22.2536 C   0  0  0  0  0  0  0  0  0  0  0  0
   10.4526   -9.1161   23.2689 C   0  0  0  0  0  0  0  0  0  0  0  0
   10.1201   -8.9343   24.5472 N   0  0  0  0  0  0  0  0  0  0  0  0
    8.1858   -8.6691   22.2593 N   0  0  0  0  0  0  0  0  0  0  0  0
    7.7475   -8.6631   20.9792 C   0  0  0  0  0  0  0  0  0  0  0  0
    8.7952   -8.9703   20.1465 N   0  0  0  0  0  0  0  0  0  0  0  0
  2  1  1  1  0  0  0
  2  3  1  0  0  0  0
  2  5  1  0  0  0  0
  3  4  1  0  0  0  0
  3 17  1  0  0  0  0
  5  6  1  0  0  0  0
  7  6  1  1  0  0  0
  7  8  1  0  0  0  0
  7  9  1  0  0  0  0
 10  9  1  1  0  0  0
 10 11  1  0  0  0  0
 10 12  1  0  0  0  0
 11 16  1  0  0  0  0
 12 13  1  6  0  0  0
 12 14  1  0  0  0  0
 14 15  1  6  0  0  0
 14 16  1  0  0  0  0
 16 27  1  1  0  0  0
 18 19  2  0  0  0  0
 18 23  1  0  0  0  0
 19 20  1  0  0  0  0
 20 21  2  0  0  0  0
 21 22  1  0  0  0  0
 21 27  1  0  0  0  0
 22 23  2  0  0  0  0
 22 25  1  0  0  0  0
 23 24  1  0  0  0  0
 25 26  2  0  0  0  0
 26 27  1  0  0  0  0
M  END
>  <CHROM.1>
-10.41384330,60.43521699,-177.23347749,-91.29953868,-166.33368051,58.45176510
87.36361363,9.18724571,-11.91889439,19.21633878,-3.13285296,-1.34423497,-1.19055193

>  <Name>
ligand

>  <RI>
0

>  <Rbt.Current_Directory>
/home/itssahil/PROJECTS/Mol_Feturizer/New_Systems/rnas/3GX5

>  <Rbt.Executable>
rbdock ($Id: //depot/dev/client3/rdock/2013.1/src/exe/rbdock.cxx#4 $)

>  <Rbt.Library>
libRbt.so (2013.1, Build901 2013/11/27)

>  <Rbt.Parameter_File>
/export/apps/rDock/src/rDock_2013.1_src/data/scripts/dock_solv.prm

>  <Rbt.Receptor>
prm/blind_docking_100.prm

>  <SCORE>
-13.7384

>  <SCORE.INTER>
-14.3652

>  <SCORE.INTER.CONST>
1

>  <SCORE.INTER.POLAR>
0

>  <SCORE.INTER.ROT>
7

>  <SCORE.INTER.SOLV>
17.7001

>  <SCORE.INTER.VDW>
-23.7435

>  <SCORE.INTER.norm>
-0.532045

>  <SCORE.INTRA>
0.626777

>  <SCORE.INTRA.DIHEDRAL>
1.74428

>  <SCORE.INTRA.DIHEDRAL.0>
4.28829

>  <SCORE.INTRA.POLAR>
0

>  <SCORE.INTRA.POLAR.0>
0

>  <SCORE.INTRA.REPUL>
0

>  <SCORE.INTRA.REPUL.0>
0

>  <SCORE.INTRA.SOLV>
-0.575327

>  <SCORE.INTRA.SOLV.lig_0>
-48.6018

>  <SCORE.INTRA.VDW>
0.0423033

>  <SCORE.INTRA.VDW.0>
-2.1506

>  <SCORE.INTRA.norm>
0.023214

>  <SCORE.RESTR>
0

>  <SCORE.RESTR.CAVITY>
0

>  <SCORE.RESTR.norm>
0

>  <SCORE.SYSTEM>
0

>  <SCORE.SYSTEM.CONST>
0

>  <SCORE.SYSTEM.DIHEDRAL>
0

>  <SCORE.SYSTEM.SOLV>
0

>  <SCORE.SYSTEM.norm>
0

>  <SCORE.heavy>
27

>  <SCORE.norm>
-0.508831

>  <RMSD>
14.518

$$$$
ligand
 OpenBabel11021811483D
libRbt.so/2013.1/901 2013/11/27
 27 29  0  0  0  0  0  0  0  0999 V2000
    6.1298   -3.7717   21.6639 N   0  0  0  0  0  0  0  0  0  0  0  0
    5.5979   -4.8482   22.5018 C   0  0  2  0  0  0  0  0  0  0  0  0
    4.0763   -4.8715   22.6667 C   0  0  0  0  0  0  0  0  0  0  0  0
    3.4019   -5.5027   21.8540 O   0  0  0  0  0  0  0  0  0  0  0  0
    6.2822   -4.8696   23.8583 C   0  0  0  0  0  0  0  0  0  0  0  0
    7.7785   -5.0948   23.7256 C   0  0  0  0  0  0  0  0  0  0  0  0
    8.1331   -6.8254   23.3731 S   0  0  2  0  0  0  0  0  0  0  0  0
    8.1661   -7.4865   25.0527 C   0  0  0  0  0  0  0  0  0  0  0  0
    9.9096   -6.7385   23.0486 C   0  0  0  0  0  0  0  0  0  0  0  0
   10.5021   -8.1281   22.9037 C   0  0  1  0  0  0  0  0  0  0  0  0
    9.9507   -8.7891   21.7879 O   0  0  0  0  0  0  0  0  0  0  0  0
   11.9967   -8.1053   22.6502 C   0  0  1  0  0  0  0  0  0  0  0  0
   12.6575   -8.2108   23.8860 O   0  0  0  0  0  0  0  0  0  0  0  0
   12.2310   -9.3375   21.8001 C   0  0  1  0  0  0  0  0  0  0  0  0
   12.7171  -10.3502   22.6522 O   0  0  0  0  0  0  0  0  0  0  0  0
   10.8628   -9.7192   21.2310 C   0  0  2  0  0  0  0  0  0  0  0  0
    3.4910   -4.2795   23.5775 O   0  0  0  0  0  0  0  0  0  0  0  0
   13.0780   -7.2386   17.1865 N   0  0  0  0  0  0  0  0  0  0  0  0
   13.4442   -7.1879   18.5096 C   0  0  0  0  0  0  0  0  0  0  0  0
   12.7298   -7.9173   19.4345 N   0  0  0  0  0  0  0  0  0  0  0  0
   11.6792   -8.6820   19.0615 C   0  0  0  0  0  0  0  0  0  0  0  0
   11.3062   -8.7542   17.7272 C   0  0  0  0  0  0  0  0  0  0  0  0
   12.0125   -8.0141   16.7813 C   0  0  0  0  0  0  0  0  0  0  0  0
   11.6805   -8.0520   15.4906 N   0  0  0  0  0  0  0  0  0  0  0  0
   10.2400   -9.5903   17.6366 N   0  0  0  0  0  0  0  0  0  0  0  0
    9.9554  -10.0491   18.8772 C   0  0  0  0  0  0  0  0  0  0  0  0
   10.8425   -9.5014   19.7708 N   0  0  0  0  0  0  0  0  0  0  0  0
  2  1  1  1  0  0  0
  2  3  1  0  0  0  0
  2  5  1  0  0  0  0
  3  4  1  0  0  0  0
  3 17  1  0  0  0  0
  5  6  1  0  0  0  0
  7  6  1  1  0  0  0
  7  8  1  0  0  0  0
  7  9  1  0  0  0  0
 10  9  1  6  0  0  0
 10 11  1  0  0  0  0
 10 12  1  0  0  0  0
 11 16  1  0  0  0  0
 12 13  1  1  0  0  0
 12 14  1  0  0  0  0
 14 15  1  1  0  0  0
 14 16  1  0  0  0  0
 16 27  1  6  0  0  0
 18 19  2  0  0  0  0
 18 23  1  0  0  0  0
 19 20  1  0  0  0  0
 20 21  2  0  0  0  0
 21 22  1  0  0  0  0
 21 27  1  0  0  0  0
 22 23  2  0  0  0  0
 22 25  1  0  0  0  0
 23 24  1  0  0  0  0
 25 26  2  0  0  0  0
 26 27  1  0  0  0  0
M  END
>  <CHROM.1>
89.22874123,-60.29157274,-76.54390600,-85.62488046,172.26393057,63.46223670
92.71148662,9.52492385,-7.42585927,21.27472008,2.64583007,-0.51376057,1.61822532

>  <Name>
ligand

>  <RI>
0

>  <Rbt.Current_Directory>
/home/itssahil/PROJECTS/Mol_Feturizer/New_Systems/rnas/3GX5

>  <Rbt.Executable>
rbdock ($Id: //depot/dev/client3/rdock/2013.1/src/exe/rbdock.cxx#4 $)

>  <Rbt.Library>
libRbt.so (2013.1, Build901 2013/11/27)

>  <Rbt.Parameter_File>
/export/apps/rDock/src/rDock_2013.1_src/data/scripts/dock_solv.prm

>  <Rbt.Receptor>
prm/blind_docking_80.prm

>  <SCORE>
-12.6601

>  <SCORE.INTER>
-13.4387

>  <SCORE.INTER.CONST>
1

>  <SCORE.INTER.POLAR>
0

>  <SCORE.INTER.ROT>
7

>  <SCORE.INTER.SOLV>
10.9147

>  <SCORE.INTER.VDW>
-20.864

>  <SCORE.INTER.norm>
-0.49773

>  <SCORE.INTRA>
0.778655

>  <SCORE.INTRA.DIHEDRAL>
0.860971

>  <SCORE.INTRA.DIHEDRAL.0>
4.28829

>  <SCORE.INTRA.POLAR>
0

>  <SCORE.INTRA.POLAR.0>
0

>  <SCORE.INTRA.REPUL>
0

>  <SCORE.INTRA.REPUL.0>
0

>  <SCORE.INTRA.SOLV>
-0.124596

>  <SCORE.INTRA.SOLV.lig_0>
-48.6018

>  <SCORE.INTRA.VDW>
0.410467

>  <SCORE.INTRA.VDW.0>
-2.1506

>  <SCORE.INTRA.norm>
0.0288391

>  <SCORE.RESTR>
0

>  <SCORE.RESTR.CAVITY>
0

>  <SCORE.RESTR.norm>
0

>  <SCORE.SYSTEM>
0

>  <SCORE.SYSTEM.CONST>
0

>  <SCORE.SYSTEM.DIHEDRAL>
0

>  <SCORE.SYSTEM.SOLV>
0

>  <SCORE.SYSTEM.norm>
0

>  <SCORE.heavy>
27

>  <SCORE.norm>
-0.468891

>  <RMSD>
14.553

$$$$
ligand
 OpenBabel11021811483D
libRbt.so/2013.1/901 2013/11/27
 27 29  0  0  0  0  0  0  0  0999 V2000
    3.6826   -7.9284   17.4289 N   0  0  0  0  0  0  0  0  0  0  0  0
    5.0274   -8.4288   17.7201 C   0  0  2  0  0  0  0  0  0  0  0  0
    5.6748   -9.2729   16.6194 C   0  0  0  0  0  0  0  0  0  0  0  0
    5.0143  -10.1677   16.0933 O   0  0  0  0  0  0  0  0  0  0  0  0
    5.0565   -9.1687   19.0469 C   0  0  0  0  0  0  0  0  0  0  0  0
    6.4793   -9.4501   19.4985 C   0  0  0  0  0  0  0  0  0  0  0  0
    7.1653   -8.0275   20.3650 S   0  0  2  0  0  0  0  0  0  0  0  0
    7.8480   -7.1097   18.9683 C   0  0  0  0  0  0  0  0  0  0  0  0
    8.6869   -8.7463   21.0259 C   0  0  0  0  0  0  0  0  0  0  0  0
    9.4078   -7.7571   21.9230 C   0  0  1  0  0  0  0  0  0  0  0  0
    9.7303   -6.5845   21.2108 O   0  0  0  0  0  0  0  0  0  0  0  0
    8.5552   -7.2905   23.0865 C   0  0  1  0  0  0  0  0  0  0  0  0
    8.8186   -8.1202   24.1898 O   0  0  0  0  0  0  0  0  0  0  0  0
    9.0417   -5.8778   23.3385 C   0  0  1  0  0  0  0  0  0  0  0  0
    9.9323   -5.9282   24.4304 O   0  0  0  0  0  0  0  0  0  0  0  0
    9.7724   -5.4534   22.0628 C   0  0  2  0  0  0  0  0  0  0  0  0
    6.8353   -9.1009   16.2370 O   0  0  0  0  0  0  0  0  0  0  0  0
    9.9492   -0.6178   20.0620 N   0  0  0  0  0  0  0  0  0  0  0  0
   10.9718   -1.3276   20.6431 C   0  0  0  0  0  0  0  0  0  0  0  0
   10.7261   -2.5979   21.1159 N   0  0  0  0  0  0  0  0  0  0  0  0
    9.4991   -3.1564   21.0148 C   0  0  0  0  0  0  0  0  0  0  0  0
    8.4600   -2.4573   20.4180 C   0  0  0  0  0  0  0  0  0  0  0  0
    8.6903   -1.1675   19.9442 C   0  0  0  0  0  0  0  0  0  0  0  0
    7.7158   -0.4612   19.3705 N   0  0  0  0  0  0  0  0  0  0  0  0
    7.3565   -3.2484   20.4422 N   0  0  0  0  0  0  0  0  0  0  0  0
    7.6911   -4.4236   21.0233 C   0  0  0  0  0  0  0  0  0  0  0  0
    9.0172   -4.3857   21.3775 N   0  0  0  0  0  0  0  0  0  0  0  0
  2  1  1  6  0  0  0
  2  3  1  0  0  0  0
  2  5  1  0  0  0  0
  3  4  1  0  0  0  0
  3 17  1  0  0  0  0
  5  6  1  0  0  0  0
  7  6  1  6  0  0  0
  7  8  1  0  0  0  0
  7  9  1  0  0  0  0
 10  9  1  6  0  0  0
 10 11  1  0  0  0  0
 10 12  1  0  0  0  0
 11 16  1  0  0  0  0
 12 13  1  1  0  0  0
 12 14  1  0  0  0  0
 14 15  1  1  0  0  0
 14 16  1  0  0  0  0
 16 27  1  6  0  0  0
 18 19  2  0  0  0  0
 18 23  1  0  0  0  0
 19 20  1  0  0  0  0
 20 21  2  0  0  0  0
 21 22  1  0  0  0  0
 21 27  1  0  0  0  0
 22 23  2  0  0  0  0
 22 25  1  0  0  0  0
 23 24  1  0  0  0  0
 25 26  2  0  0  0  0
 26 27  1  0  0  0  0
M  END
>  <CHROM.1>
-47.00451450,-168.57696843,84.24678826,-88.05841682,-174.92251875,-59.12691552
-121.19908056,7.97157129,-6.07378713,20.31692594,2.56181062,0.98684910,2.71686079

>  <Name>
ligand

>  <RI>
0

>  <Rbt.Current_Directory>
/home/itssahil/PROJECTS/Mol_Feturizer/New_Systems/rnas/3GX5

>  <Rbt.Executable>
rbdock ($Id: //depot/dev/client3/rdock/2013.1/src/exe/rbdock.cxx#4 $)

>  <Rbt.Library>
libRbt.so (2013.1, Build901 2013/11/27)

>  <Rbt.Parameter_File>
/export/apps/rDock/src/rDock_2013.1_src/data/scripts/dock_solv.prm

>  <Rbt.Receptor>
prm/blind_docking_60.prm

>  <SCORE>
-9.53979

>  <SCORE.INTER>
-9.83309

>  <SCORE.INTER.CONST>
1

>  <SCORE.INTER.POLAR>
0

>  <SCORE.INTER.ROT>
7

>  <SCORE.INTER.SOLV>
6.77446

>  <SCORE.INTER.VDW>
-17.0802

>  <SCORE.INTER.norm>
-0.364189

>  <SCORE.INTRA>
0.293304

>  <SCORE.INTRA.DIHEDRAL>
3.034

>  <SCORE.INTRA.DIHEDRAL.0>
4.28829

>  <SCORE.INTRA.POLAR>
0

>  <SCORE.INTRA.POLAR.0>
0

>  <SCORE.INTRA.REPUL>
0

>  <SCORE.INTRA.REPUL.0>
0

>  <SCORE.INTRA.SOLV>
-0.746401

>  <SCORE.INTRA.SOLV.lig_0>
-48.6018

>  <SCORE.INTRA.VDW>
-0.850493

>  <SCORE.INTRA.VDW.0>
-2.1506

>  <SCORE.INTRA.norm>
0.0108631

>  <SCORE.RESTR>
0

>  <SCORE.RESTR.CAVITY>
0

>  <SCORE.RESTR.norm>
0

>  <SCORE.SYSTEM>
0

>  <SCORE.SYSTEM.CONST>
0

>  <SCORE.SYSTEM.DIHEDRAL>
0

>  <SCORE.SYSTEM.SOLV>
0

>  <SCORE.SYSTEM.norm>
0

>  <SCORE.heavy>
27

>  <SCORE.norm>
-0.353326

>  <RMSD>
14.556

$$$$
ligand
 OpenBabel11021811483D
libRbt.so/2013.1/901 2013/11/27
 27 29  0  0  0  0  0  0  0  0999 V2000
    4.3598   -4.6167   20.2362 N   0  0  0  0  0  0  0  0  0  0  0  0
    4.6442   -5.0348   21.6102 C   0  0  2  0  0  0  0  0  0  0  0  0
    4.2618   -4.0326   22.7021 C   0  0  0  0  0  0  0  0  0  0  0  0
    3.3925   -4.3448   23.5148 O   0  0  0  0  0  0  0  0  0  0  0  0
    6.0955   -5.4592   21.7598 C   0  0  0  0  0  0  0  0  0  0  0  0
    6.4362   -6.6186   20.8394 C   0  0  0  0  0  0  0  0  0  0  0  0
    8.1942   -7.0027   20.9232 S   0  0  2  0  0  0  0  0  0  0  0  0
    8.2655   -8.3947   19.7759 C   0  0  0  0  0  0  0  0  0  0  0  0
    8.2611   -7.9006   22.4909 C   0  0  0  0  0  0  0  0  0  0  0  0
    9.6979   -8.1428   22.9153 C   0  0  1  0  0  0  0  0  0  0  0  0
   10.3891   -8.8776   21.9311 O   0  0  0  0  0  0  0  0  0  0  0  0
   10.4869   -6.8582   23.0757 C   0  0  1  0  0  0  0  0  0  0  0  0
   10.4080   -6.4545   24.4195 O   0  0  0  0  0  0  0  0  0  0  0  0
   11.9008   -7.2625   22.7103 C   0  0  1  0  0  0  0  0  0  0  0  0
   12.6048   -7.4658   23.9149 O   0  0  0  0  0  0  0  0  0  0  0  0
   11.7726   -8.5726   21.9302 C   0  0  2  0  0  0  0  0  0  0  0  0
    4.7830   -2.9186   22.8027 O   0  0  0  0  0  0  0  0  0  0  0  0
   11.2104  -10.2282   16.9945 N   0  0  0  0  0  0  0  0  0  0  0  0
   10.6073  -10.7253   18.1242 C   0  0  0  0  0  0  0  0  0  0  0  0
   10.8864  -10.1508   19.3448 N   0  0  0  0  0  0  0  0  0  0  0  0
   11.7394   -9.1071   19.4478 C   0  0  0  0  0  0  0  0  0  0  0  0
   12.3454   -8.5853   18.3141 C   0  0  0  0  0  0  0  0  0  0  0  0
   12.0811   -9.1621   17.0736 C   0  0  0  0  0  0  0  0  0  0  0  0
   12.6490   -8.6934   15.9621 N   0  0  0  0  0  0  0  0  0  0  0  0
   13.1351   -7.5508   18.7016 N   0  0  0  0  0  0  0  0  0  0  0  0
   13.0199   -7.4095   20.0422 C   0  0  0  0  0  0  0  0  0  0  0  0
   12.1531   -8.3618   20.5193 N   0  0  0  0  0  0  0  0  0  0  0  0
  2  1  1  6  0  0  0
  2  3  1  0  0  0  0
  2  5  1  0  0  0  0
  3  4  1  0  0  0  0
  3 17  1  0  0  0  0
  5  6  1  0  0  0  0
  7  6  1  1  0  0  0
  7  8  1  0  0  0  0
  7  9  1  0  0  0  0
 10  9  1  6  0  0  0
 10 11  1  0  0  0  0
 10 12  1  0  0  0  0
 11 16  1  0  0  0  0
 12 13  1  1  0  0  0
 12 14  1  0  0  0  0
 14 15  1  1  0  0  0
 14 16  1  0  0  0  0
 16 27  1  6  0  0  0
 18 19  2  0  0  0  0
 18 23  1  0  0  0  0
 19 20  1  0  0  0  0
 20 21  2  0  0  0  0
 21 22  1  0  0  0  0
 21 27  1  0  0  0  0
 22 23  2  0  0  0  0
 22 25  1  0  0  0  0
 23 24  1  0  0  0  0
 25 26  2  0  0  0  0
 26 27  1  0  0  0  0
M  END
>  <CHROM.1>
116.00448680,-59.66259143,174.76490731,179.09524870,-170.49319414,-58.70734101
-41.44322990,9.34133522,-7.33265375,20.91011467,2.60329623,-0.39610272,1.25196574

>  <Name>
ligand

>  <RI>
0

>  <Rbt.Current_Directory>
/home/itssahil/PROJECTS/Mol_Feturizer/New_Systems/rnas/3GX5

>  <Rbt.Executable>
rbdock ($Id: //depot/dev/client3/rdock/2013.1/src/exe/rbdock.cxx#4 $)

>  <Rbt.Library>
libRbt.so (2013.1, Build901 2013/11/27)

>  <Rbt.Parameter_File>
/export/apps/rDock/src/rDock_2013.1_src/data/scripts/dock_solv.prm

>  <Rbt.Receptor>
prm/blind_docking_80.prm

>  <SCORE>
-13.4152

>  <SCORE.INTER>
-12.7423

>  <SCORE.INTER.CONST>
1

>  <SCORE.INTER.POLAR>
0

>  <SCORE.INTER.ROT>
7

>  <SCORE.INTER.SOLV>
6.56421

>  <SCORE.INTER.VDW>
-18.9496

>  <SCORE.INTER.norm>
-0.471937

>  <SCORE.INTRA>
-0.672941

>  <SCORE.INTRA.DIHEDRAL>
0.328163

>  <SCORE.INTRA.DIHEDRAL.0>
4.28829

>  <SCORE.INTRA.POLAR>
0

>  <SCORE.INTRA.POLAR.0>
0

>  <SCORE.INTRA.REPUL>
0

>  <SCORE.INTRA.REPUL.0>
0

>  <SCORE.INTRA.SOLV>
-0.340627

>  <SCORE.INTRA.SOLV.lig_0>
-48.6018

>  <SCORE.INTRA.VDW>
-0.666709

>  <SCORE.INTRA.VDW.0>
-2.1506

>  <SCORE.INTRA.norm>
-0.0249237

>  <SCORE.RESTR>
0

>  <SCORE.RESTR.CAVITY>
0

>  <SCORE.RESTR.norm>
0

>  <SCORE.SYSTEM>
0

>  <SCORE.SYSTEM.CONST>
0

>  <SCORE.SYSTEM.DIHEDRAL>
0

>  <SCORE.SYSTEM.SOLV>
0

>  <SCORE.SYSTEM.norm>
0

>  <SCORE.heavy>
27

>  <SCORE.norm>
-0.496861

>  <RMSD>
14.559

$$$$
ligand
 OpenBabel11021811483D
libRbt.so/2013.1/901 2013/11/27
 27 29  0  0  0  0  0  0  0  0999 V2000
    6.7868  -17.0377   21.0888 N   0  0  0  0  0  0  0  0  0  0  0  0
    7.5843  -16.8031   19.8835 C   0  0  2  0  0  0  0  0  0  0  0  0
    9.0877  -17.0552   20.0223 C   0  0  0  0  0  0  0  0  0  0  0  0
    9.5810  -18.0257   19.4492 O   0  0  0  0  0  0  0  0  0  0  0  0
    7.3255  -15.4150   19.3222 C   0  0  0  0  0  0  0  0  0  0  0  0
    7.7628  -15.3086   17.8714 C   0  0  0  0  0  0  0  0  0  0  0  0
    7.5627  -13.6230   17.2682 S   0  0  2  0  0  0  0  0  0  0  0  0
    7.8981  -13.8769   15.5126 C   0  0  0  0  0  0  0  0  0  0  0  0
    9.1411  -12.9017   17.7753 C   0  0  0  0  0  0  0  0  0  0  0  0
    9.1701  -11.4106   17.4945 C   0  0  1  0  0  0  0  0  0  0  0  0
    8.3645  -10.7156   18.4187 O   0  0  0  0  0  0  0  0  0  0  0  0
   10.5541  -10.8113   17.6482 C   0  0  1  0  0  0  0  0  0  0  0  0
   11.1827  -10.8194   16.3913 O   0  0  0  0  0  0  0  0  0  0  0  0
   10.2779   -9.3949   18.1102 C   0  0  1  0  0  0  0  0  0  0  0  0
   10.3917   -8.5551   16.9833 O   0  0  0  0  0  0  0  0  0  0  0  0
    8.8420   -9.4001   18.6390 C   0  0  2  0  0  0  0  0  0  0  0  0
    9.8308  -16.3305   20.6896 O   0  0  0  0  0  0  0  0  0  0  0  0
   11.6820   -9.5050   23.0369 N   0  0  0  0  0  0  0  0  0  0  0  0
   12.1036   -9.7613   21.7548 C   0  0  0  0  0  0  0  0  0  0  0  0
   11.1978   -9.6838   20.7198 N   0  0  0  0  0  0  0  0  0  0  0  0
    9.9052   -9.3577   20.9448 C   0  0  0  0  0  0  0  0  0  0  0  0
    9.4678   -9.0826   22.2323 C   0  0  0  0  0  0  0  0  0  0  0  0
   10.3697   -9.1669   23.2909 C   0  0  0  0  0  0  0  0  0  0  0  0
    9.9861   -8.9165   24.5430 N   0  0  0  0  0  0  0  0  0  0  0  0
    8.1457   -8.7792   22.1680 N   0  0  0  0  0  0  0  0  0  0  0  0
    7.7592   -8.8436   20.8730 C   0  0  0  0  0  0  0  0  0  0  0  0
    8.8395   -9.1939   20.1010 N   0  0  0  0  0  0  0  0  0  0  0  0
  2  1  1  1  0  0  0
  2  3  1  0  0  0  0
  2  5  1  0  0  0  0
  3  4  1  0  0  0  0
  3 17  1  0  0  0  0
  5  6  1  0  0  0  0
  7  6  1  1  0  0  0
  7  8  1  0  0  0  0
  7  9  1  0  0  0  0
 10  9  1  1  0  0  0
 10 11  1  0  0  0  0
 10 12  1  0  0  0  0
 11 16  1  0  0  0  0
 12 13  1  6  0  0  0
 12 14  1  0  0  0  0
 14 15  1  6  0  0  0
 14 16  1  0  0  0  0
 16 27  1  1  0  0  0
 18 19  2  0  0  0  0
 18 23  1  0  0  0  0
 19 20  1  0  0  0  0
 20 21  2  0  0  0  0
 21 22  1  0  0  0  0
 21 27  1  0  0  0  0
 22 23  2  0  0  0  0
 22 25  1  0  0  0  0
 23 24  1  0  0  0  0
 25 26  2  0  0  0  0
 26 27  1  0  0  0  0
M  END
>  <CHROM.1>
109.72492081,-161.33809961,-175.67427598,-171.48772881,-174.39450030,73.79042447
95.89759077,9.20496671,-12.00165073,19.51591527,-3.05190463,-1.31880131,-1.15761362

>  <Name>
ligand

>  <RI>
0

>  <Rbt.Current_Directory>
/home/itssahil/PROJECTS/Mol_Feturizer/New_Systems/rnas/3GX5

>  <Rbt.Executable>
rbdock ($Id: //depot/dev/client3/rdock/2013.1/src/exe/rbdock.cxx#4 $)

>  <Rbt.Library>
libRbt.so (2013.1, Build901 2013/11/27)

>  <Rbt.Parameter_File>
/export/apps/rDock/src/rDock_2013.1_src/data/scripts/dock_solv.prm

>  <Rbt.Receptor>
prm/blind_docking_40.prm

>  <SCORE>
-17.185

>  <SCORE.INTER>
-17.6615

>  <SCORE.INTER.CONST>
1

>  <SCORE.INTER.POLAR>
0

>  <SCORE.INTER.ROT>
7

>  <SCORE.INTER.SOLV>
19.8697

>  <SCORE.INTER.VDW>
-26.6642

>  <SCORE.INTER.norm>
-0.654128

>  <SCORE.INTRA>
0.476446

>  <SCORE.INTRA.DIHEDRAL>
2.36871

>  <SCORE.INTRA.DIHEDRAL.0>
4.28829

>  <SCORE.INTRA.POLAR>
0

>  <SCORE.INTRA.POLAR.0>
0

>  <SCORE.INTRA.REPUL>
0

>  <SCORE.INTRA.REPUL.0>
0

>  <SCORE.INTRA.SOLV>
-1.31215

>  <SCORE.INTRA.SOLV.lig_0>
-48.6018

>  <SCORE.INTRA.VDW>
-0.0518374

>  <SCORE.INTRA.VDW.0>
-2.1506

>  <SCORE.INTRA.norm>
0.0176462

>  <SCORE.RESTR>
0

>  <SCORE.RESTR.CAVITY>
0

>  <SCORE.RESTR.norm>
0

>  <SCORE.SYSTEM>
0

>  <SCORE.SYSTEM.CONST>
0

>  <SCORE.SYSTEM.DIHEDRAL>
0

>  <SCORE.SYSTEM.SOLV>
0

>  <SCORE.SYSTEM.norm>
0

>  <SCORE.heavy>
27

>  <SCORE.norm>
-0.636482

>  <RMSD>
14.584

$$$$
ligand
 OpenBabel11021811483D
libRbt.so/2013.1/901 2013/11/27
 27 29  0  0  0  0  0  0  0  0999 V2000
    4.5138   -4.4550   20.2404 N   0  0  0  0  0  0  0  0  0  0  0  0
    4.6785   -4.9750   21.5992 C   0  0  2  0  0  0  0  0  0  0  0  0
    4.2615   -4.0287   22.7276 C   0  0  0  0  0  0  0  0  0  0  0  0
    4.8181   -2.9354   22.8201 O   0  0  0  0  0  0  0  0  0  0  0  0
    6.0951   -5.4781   21.8205 C   0  0  0  0  0  0  0  0  0  0  0  0
    6.4403   -6.6114   20.8698 C   0  0  0  0  0  0  0  0  0  0  0  0
    8.1947   -7.0096   20.9644 S   0  0  2  0  0  0  0  0  0  0  0  0
    8.2583   -8.4142   19.8321 C   0  0  0  0  0  0  0  0  0  0  0  0
    8.2480   -7.8914   22.5418 C   0  0  0  0  0  0  0  0  0  0  0  0
    9.6811   -8.1283   22.9814 C   0  0  1  0  0  0  0  0  0  0  0  0
   10.3899   -8.8467   21.9977 O   0  0  0  0  0  0  0  0  0  0  0  0
   10.4587   -6.8401   23.1666 C   0  0  1  0  0  0  0  0  0  0  0  0
   10.3600   -6.4526   24.5139 O   0  0  0  0  0  0  0  0  0  0  0  0
   11.8800   -7.2301   22.8145 C   0  0  1  0  0  0  0  0  0  0  0  0
   12.5702   -7.4424   24.0255 O   0  0  0  0  0  0  0  0  0  0  0  0
   11.7711   -8.5320   22.0178 C   0  0  2  0  0  0  0  0  0  0  0  0
    3.3930   -4.3144   23.5564 O   0  0  0  0  0  0  0  0  0  0  0  0
   11.2507  -10.1084   17.0517 N   0  0  0  0  0  0  0  0  0  0  0  0
   10.6326  -10.6188   18.1673 C   0  0  0  0  0  0  0  0  0  0  0  0
   10.9024  -10.0649   19.3994 N   0  0  0  0  0  0  0  0  0  0  0  0
   11.7608   -9.0283   19.5273 C   0  0  0  0  0  0  0  0  0  0  0  0
   12.3819   -8.4932   18.4081 C   0  0  0  0  0  0  0  0  0  0  0  0
   12.1272   -9.0493   17.1563 C   0  0  0  0  0  0  0  0  0  0  0  0
   12.7097   -8.5673   16.0581 N   0  0  0  0  0  0  0  0  0  0  0  0
   13.1739   -7.4697   18.8196 N   0  0  0  0  0  0  0  0  0  0  0  0
   13.0454   -7.3482   20.1610 C   0  0  0  0  0  0  0  0  0  0  0  0
   12.1678   -8.3021   20.6143 N   0  0  0  0  0  0  0  0  0  0  0  0
  2  1  1  6  0  0  0
  2  3  1  0  0  0  0
  2  5  1  0  0  0  0
  3  4  1  0  0  0  0
  3 17  1  0  0  0  0
  5  6  1  0  0  0  0
  7  6  1  1  0  0  0
  7  8  1  0  0  0  0
  7  9  1  0  0  0  0
 10  9  1  6  0  0  0
 10 11  1  0  0  0  0
 10 12  1  0  0  0  0
 11 16  1  0  0  0  0
 12 13  1  1  0  0  0
 12 14  1  0  0  0  0
 14 15  1  1  0  0  0
 14 16  1  0  0  0  0
 16 27  1  6  0  0  0
 18 19  2  0  0  0  0
 18 23  1  0  0  0  0
 19 20  1  0  0  0  0
 20 21  2  0  0  0  0
 21 22  1  0  0  0  0
 21 27  1  0  0  0  0
 22 23  2  0  0  0  0
 22 25  1  0  0  0  0
 23 24  1  0  0  0  0
 25 26  2  0  0  0  0
 26 27  1  0  0  0  0
M  END
>  <CHROM.1>
-59.23025713,-60.94659274,170.82111559,176.69900271,-169.88864478,-57.38911594
-40.63363205,9.35415148,-7.28891482,20.97449773,2.61703758,-0.40235658,1.27327424

>  <Name>
ligand

>  <RI>
0

>  <Rbt.Current_Directory>
/home/itssahil/PROJECTS/Mol_Feturizer/New_Systems/rnas/3GX5

>  <Rbt.Executable>
rbdock ($Id: //depot/dev/client3/rdock/2013.1/src/exe/rbdock.cxx#4 $)

>  <Rbt.Library>
libRbt.so (2013.1, Build901 2013/11/27)

>  <Rbt.Parameter_File>
/export/apps/rDock/src/rDock_2013.1_src/data/scripts/dock_solv.prm

>  <Rbt.Receptor>
prm/blind_docking_40.prm

>  <SCORE>
-13.1959

>  <SCORE.INTER>
-12.6716

>  <SCORE.INTER.CONST>
1

>  <SCORE.INTER.POLAR>
0

>  <SCORE.INTER.ROT>
7

>  <SCORE.INTER.SOLV>
6.69267

>  <SCORE.INTER.VDW>
-18.9453

>  <SCORE.INTER.norm>
-0.46932

>  <SCORE.INTRA>
-0.524232

>  <SCORE.INTRA.DIHEDRAL>
0.528537

>  <SCORE.INTRA.DIHEDRAL.0>
4.28829

>  <SCORE.INTRA.POLAR>
0

>  <SCORE.INTRA.POLAR.0>
0

>  <SCORE.INTRA.REPUL>
0

>  <SCORE.INTRA.REPUL.0>
0

>  <SCORE.INTRA.SOLV>
-0.320726

>  <SCORE.INTRA.SOLV.lig_0>
-48.6018

>  <SCORE.INTRA.VDW>
-0.628137

>  <SCORE.INTRA.VDW.0>
-2.1506

>  <SCORE.INTRA.norm>
-0.019416

>  <SCORE.RESTR>
0

>  <SCORE.RESTR.CAVITY>
0

>  <SCORE.RESTR.norm>
0

>  <SCORE.SYSTEM>
0

>  <SCORE.SYSTEM.CONST>
0

>  <SCORE.SYSTEM.DIHEDRAL>
0

>  <SCORE.SYSTEM.SOLV>
0

>  <SCORE.SYSTEM.norm>
0

>  <SCORE.heavy>
27

>  <SCORE.norm>
-0.488736

>  <RMSD>
14.598

$$$$
ligand
 OpenBabel11021811483D
libRbt.so/2013.1/901 2013/11/27
 27 29  0  0  0  0  0  0  0  0999 V2000
    6.7554  -17.0099   21.1613 N   0  0  0  0  0  0  0  0  0  0  0  0
    7.6420  -16.7807   20.0188 C   0  0  2  0  0  0  0  0  0  0  0  0
    9.1268  -17.0608   20.2636 C   0  0  0  0  0  0  0  0  0  0  0  0
    9.6473  -18.0261   19.7061 O   0  0  0  0  0  0  0  0  0  0  0  0
    7.4486  -15.3841   19.4524 C   0  0  0  0  0  0  0  0  0  0  0  0
    7.7787  -15.3316   17.9707 C   0  0  0  0  0  0  0  0  0  0  0  0
    7.5567  -13.6635   17.3277 S   0  0  2  0  0  0  0  0  0  0  0  0
    7.8500  -13.9632   15.5718 C   0  0  0  0  0  0  0  0  0  0  0  0
    9.1440  -12.9233   17.7763 C   0  0  0  0  0  0  0  0  0  0  0  0
    9.1465  -11.4329   17.4903 C   0  0  1  0  0  0  0  0  0  0  0  0
    8.3320  -10.7485   18.4146 O   0  0  0  0  0  0  0  0  0  0  0  0
   10.5205  -10.8094   17.6374 C   0  0  1  0  0  0  0  0  0  0  0  0
   11.1451  -10.8112   16.3785 O   0  0  0  0  0  0  0  0  0  0  0  0
   10.2215   -9.3963   18.0953 C   0  0  1  0  0  0  0  0  0  0  0  0
   10.3173   -8.5587   16.9652 O   0  0  0  0  0  0  0  0  0  0  0  0
    8.7876   -9.4243   18.6287 C   0  0  2  0  0  0  0  0  0  0  0  0
    9.8282  -16.3638   21.0018 O   0  0  0  0  0  0  0  0  0  0  0  0
   11.6466   -9.4485   23.0155 N   0  0  0  0  0  0  0  0  0  0  0  0
   12.0689   -9.6996   21.7326 C   0  0  0  0  0  0  0  0  0  0  0  0
   11.1575   -9.6465   20.7010 N   0  0  0  0  0  0  0  0  0  0  0  0
    9.8587   -9.3494   20.9301 C   0  0  0  0  0  0  0  0  0  0  0  0
    9.4202   -9.0798   22.2184 C   0  0  0  0  0  0  0  0  0  0  0  0
   10.3280   -9.1396   23.2736 C   0  0  0  0  0  0  0  0  0  0  0  0
    9.9437   -8.8935   24.5264 N   0  0  0  0  0  0  0  0  0  0  0  0
    8.0912   -8.8069   22.1584 N   0  0  0  0  0  0  0  0  0  0  0  0
    7.7012   -8.8847   20.8652 C   0  0  0  0  0  0  0  0  0  0  0  0
    8.7861   -9.2129   20.0900 N   0  0  0  0  0  0  0  0  0  0  0  0
  2  1  1  1  0  0  0
  2  3  1  0  0  0  0
  2  5  1  0  0  0  0
  3  4  1  0  0  0  0
  3 17  1  0  0  0  0
  5  6  1  0  0  0  0
  7  6  1  1  0  0  0
  7  8  1  0  0  0  0
  7  9  1  0  0  0  0
 10  9  1  1  0  0  0
 10 11  1  0  0  0  0
 10 12  1  0  0  0  0
 11 16  1  0  0  0  0
 12 13  1  6  0  0  0
 12 14  1  0  0  0  0
 14 15  1  6  0  0  0
 14 16  1  0  0  0  0
 16 27  1  1  0  0  0
 18 19  2  0  0  0  0
 18 23  1  0  0  0  0
 19 20  1  0  0  0  0
 20 21  2  0  0  0  0
 21 22  1  0  0  0  0
 21 27  1  0  0  0  0
 22 23  2  0  0  0  0
 22 25  1  0  0  0  0
 23 24  1  0  0  0  0
 25 26  2  0  0  0  0
 26 27  1  0  0  0  0
M  END
>  <CHROM.1>
110.61468333,-151.98296287,-179.45808407,-174.52072451,-172.85031398,71.90615210
96.22921407,9.18567040,-12.00696845,19.56133628,-2.98573728,-1.32429761,-1.12020515

>  <Name>
ligand

>  <RI>
0

>  <Rbt.Current_Directory>
/home/itssahil/PROJECTS/Mol_Feturizer/New_Systems/rnas/3GX5

>  <Rbt.Executable>
rbdock ($Id: //depot/dev/client3/rdock/2013.1/src/exe/rbdock.cxx#4 $)

>  <Rbt.Library>
libRbt.so (2013.1, Build901 2013/11/27)

>  <Rbt.Parameter_File>
/export/apps/rDock/src/rDock_2013.1_src/data/scripts/dock_solv.prm

>  <Rbt.Receptor>
prm/blind_docking_100.prm

>  <SCORE>
-17.1157

>  <SCORE.INTER>
-17.9775

>  <SCORE.INTER.CONST>
1

>  <SCORE.INTER.POLAR>
0

>  <SCORE.INTER.ROT>
7

>  <SCORE.INTER.SOLV>
19.7998

>  <SCORE.INTER.VDW>
-26.8516

>  <SCORE.INTER.norm>
-0.665832

>  <SCORE.INTRA>
0.861787

>  <SCORE.INTRA.DIHEDRAL>
3.21192

>  <SCORE.INTRA.DIHEDRAL.0>
4.28829

>  <SCORE.INTRA.POLAR>
0

>  <SCORE.INTRA.POLAR.0>
0

>  <SCORE.INTRA.REPUL>
0

>  <SCORE.INTRA.REPUL.0>
0

>  <SCORE.INTRA.SOLV>
-1.28944

>  <SCORE.INTRA.SOLV.lig_0>
-48.6018

>  <SCORE.INTRA.VDW>
-0.0994524

>  <SCORE.INTRA.VDW.0>
-2.1506

>  <SCORE.INTRA.norm>
0.031918

>  <SCORE.RESTR>
0

>  <SCORE.RESTR.CAVITY>
0

>  <SCORE.RESTR.norm>
0

>  <SCORE.SYSTEM>
0

>  <SCORE.SYSTEM.CONST>
0

>  <SCORE.SYSTEM.DIHEDRAL>
0

>  <SCORE.SYSTEM.SOLV>
0

>  <SCORE.SYSTEM.norm>
0

>  <SCORE.heavy>
27

>  <SCORE.norm>
-0.633914

>  <RMSD>
14.609

$$$$
ligand
 OpenBabel11021811483D
libRbt.so/2013.1/901 2013/11/27
 27 29  0  0  0  0  0  0  0  0999 V2000
    9.1006  -16.2570   20.8041 N   0  0  0  0  0  0  0  0  0  0  0  0
    7.7764  -15.7187   20.4872 C   0  0  2  0  0  0  0  0  0  0  0  0
    6.6859  -15.9818   21.5286 C   0  0  0  0  0  0  0  0  0  0  0  0
    6.6408  -15.2710   22.5318 O   0  0  0  0  0  0  0  0  0  0  0  0
    7.3205  -16.1725   19.1106 C   0  0  0  0  0  0  0  0  0  0  0  0
    8.1415  -15.5250   18.0087 C   0  0  0  0  0  0  0  0  0  0  0  0
    7.6484  -13.8086   17.7723 S   0  0  2  0  0  0  0  0  0  0  0  0
    7.2538  -13.8360   16.0109 C   0  0  0  0  0  0  0  0  0  0  0  0
    9.2674  -13.0066   17.7060 C   0  0  0  0  0  0  0  0  0  0  0  0
    9.1270  -11.5287   17.3911 C   0  0  1  0  0  0  0  0  0  0  0  0
    8.2876  -10.8983   18.3314 O   0  0  0  0  0  0  0  0  0  0  0  0
   10.4442  -10.7830   17.4753 C   0  0  1  0  0  0  0  0  0  0  0  0
   11.0220  -10.7580   16.1945 O   0  0  0  0  0  0  0  0  0  0  0  0
   10.0366   -9.3918   17.9164 C   0  0  1  0  0  0  0  0  0  0  0  0
   10.0177   -8.5749   16.7674 O   0  0  0  0  0  0  0  0  0  0  0  0
    8.6305   -9.5344   18.5028 C   0  0  2  0  0  0  0  0  0  0  0  0
    5.8491  -16.8812   21.4114 O   0  0  0  0  0  0  0  0  0  0  0  0
   11.5990   -9.4037   22.8144 N   0  0  0  0  0  0  0  0  0  0  0  0
   11.9940   -9.6743   21.5268 C   0  0  0  0  0  0  0  0  0  0  0  0
   11.0559   -9.6626   20.5180 N   0  0  0  0  0  0  0  0  0  0  0  0
    9.7574   -9.3870   20.7739 C   0  0  0  0  0  0  0  0  0  0  0  0
    9.3459   -9.0981   22.0669 C   0  0  0  0  0  0  0  0  0  0  0  0
   10.2811   -9.1162   23.0995 C   0  0  0  0  0  0  0  0  0  0  0  0
    9.9234   -8.8505   24.3562 N   0  0  0  0  0  0  0  0  0  0  0  0
    8.0104   -8.8538   22.0351 N   0  0  0  0  0  0  0  0  0  0  0  0
    7.5897   -8.9680   20.7543 C   0  0  0  0  0  0  0  0  0  0  0  0
    8.6614   -9.2910   19.9588 N   0  0  0  0  0  0  0  0  0  0  0  0
  2  1  1  1  0  0  0
  2  3  1  0  0  0  0
  2  5  1  0  0  0  0
  3  4  1  0  0  0  0
  3 17  1  0  0  0  0
  5  6  1  0  0  0  0
  7  6  1  6  0  0  0
  7  8  1  0  0  0  0
  7  9  1  0  0  0  0
 10  9  1  1  0  0  0
 10 11  1  0  0  0  0
 10 12  1  0  0  0  0
 11 16  1  0  0  0  0
 12 13  1  6  0  0  0
 12 14  1  0  0  0  0
 14 15  1  6  0  0  0
 14 16  1  0  0  0  0
 16 27  1  1  0  0  0
 18 19  2  0  0  0  0
 18 23  1  0  0  0  0
 19 20  1  0  0  0  0
 20 21  2  0  0  0  0
 21 22  1  0  0  0  0
 21 27  1  0  0  0  0
 22 23  2  0  0  0  0
 22 25  1  0  0  0  0
 23 24  1  0  0  0  0
 25 26  2  0  0  0  0
 26 27  1  0  0  0  0
M  END
>  <CHROM.1>
79.79294605,-69.32311901,-75.79491789,-124.50294501,175.26585531,56.30166377
92.27164971,8.85054720,-11.88006214,19.68411599,2.87527893,-1.15492109,-1.70129652

>  <Name>
ligand

>  <RI>
0

>  <Rbt.Current_Directory>
/home/itssahil/PROJECTS/Mol_Feturizer/New_Systems/rnas/3GX5

>  <Rbt.Executable>
rbdock ($Id: //depot/dev/client3/rdock/2013.1/src/exe/rbdock.cxx#4 $)

>  <Rbt.Library>
libRbt.so (2013.1, Build901 2013/11/27)

>  <Rbt.Parameter_File>
/export/apps/rDock/src/rDock_2013.1_src/data/scripts/dock_solv.prm

>  <Rbt.Receptor>
prm/blind_docking_100.prm

>  <SCORE>
-14.0415

>  <SCORE.INTER>
-16.5346

>  <SCORE.INTER.CONST>
1

>  <SCORE.INTER.POLAR>
0

>  <SCORE.INTER.ROT>
7

>  <SCORE.INTER.SOLV>
19.4395

>  <SCORE.INTER.VDW>
-25.7696

>  <SCORE.INTER.norm>
-0.612392

>  <SCORE.INTRA>
2.49305

>  <SCORE.INTRA.DIHEDRAL>
4.63476

>  <SCORE.INTRA.DIHEDRAL.0>
4.28829

>  <SCORE.INTRA.POLAR>
0

>  <SCORE.INTRA.POLAR.0>
0

>  <SCORE.INTRA.REPUL>
0

>  <SCORE.INTRA.REPUL.0>
0

>  <SCORE.INTRA.SOLV>
-0.123783

>  <SCORE.INTRA.SOLV.lig_0>
-48.6018

>  <SCORE.INTRA.VDW>
0.237557

>  <SCORE.INTRA.VDW.0>
-2.1506

>  <SCORE.INTRA.norm>
0.092335

>  <SCORE.RESTR>
0

>  <SCORE.RESTR.CAVITY>
0

>  <SCORE.RESTR.norm>
0

>  <SCORE.SYSTEM>
0

>  <SCORE.SYSTEM.CONST>
0

>  <SCORE.SYSTEM.DIHEDRAL>
0

>  <SCORE.SYSTEM.SOLV>
0

>  <SCORE.SYSTEM.norm>
0

>  <SCORE.heavy>
27

>  <SCORE.norm>
-0.520057

>  <RMSD>
14.678

$$$$
ligand
 OpenBabel11021811483D
libRbt.so/2013.1/901 2013/11/27
 27 29  0  0  0  0  0  0  0  0999 V2000
    8.0133    5.5478   20.3694 N   0  0  0  0  0  0  0  0  0  0  0  0
    7.3618    4.6537   19.4103 C   0  0  2  0  0  0  0  0  0  0  0  0
    6.2309    5.2741   18.5862 C   0  0  0  0  0  0  0  0  0  0  0  0
    6.0553    4.8835   17.4328 O   0  0  0  0  0  0  0  0  0  0  0  0
    6.8899    3.3790   20.0895 C   0  0  0  0  0  0  0  0  0  0  0  0
    6.7375    2.2401   19.0959 C   0  0  0  0  0  0  0  0  0  0  0  0
    8.3494    1.5975   18.6120 S   0  0  2  0  0  0  0  0  0  0  0  0
    8.7008    2.6653   17.1994 C   0  0  0  0  0  0  0  0  0  0  0  0
    7.8559    0.0939   17.7377 C   0  0  0  0  0  0  0  0  0  0  0  0
    7.2305   -0.9067   18.6919 C   0  0  1  0  0  0  0  0  0  0  0  0
    6.8080   -2.0579   17.9974 O   0  0  0  0  0  0  0  0  0  0  0  0
    8.2069   -1.4115   19.7360 C   0  0  1  0  0  0  0  0  0  0  0  0
    8.0884   -0.6047   20.8805 O   0  0  0  0  0  0  0  0  0  0  0  0
    7.7315   -2.8234   20.0129 C   0  0  1  0  0  0  0  0  0  0  0  0
    6.9767   -2.7872   21.2032 O   0  0  0  0  0  0  0  0  0  0  0  0
    6.8490   -3.2081   18.8235 C   0  0  2  0  0  0  0  0  0  0  0  0
    5.4871    6.1558   19.0244 O   0  0  0  0  0  0  0  0  0  0  0  0
    8.9101   -8.0212   18.8870 N   0  0  0  0  0  0  0  0  0  0  0  0
    8.3271   -7.3400   19.9278 C   0  0  0  0  0  0  0  0  0  0  0  0
    7.8401   -6.0696   19.7124 N   0  0  0  0  0  0  0  0  0  0  0  0
    7.9238   -5.4855   18.4960 C   0  0  0  0  0  0  0  0  0  0  0  0
    8.4973   -6.1663   17.4319 C   0  0  0  0  0  0  0  0  0  0  0  0
    9.0038   -7.4480   17.6366 C   0  0  0  0  0  0  0  0  0  0  0  0
    9.5681   -8.1318   16.6408 N   0  0  0  0  0  0  0  0  0  0  0  0
    8.4425   -5.3587   16.3415 N   0  0  0  0  0  0  0  0  0  0  0  0
    7.8355   -4.2040   16.7003 C   0  0  0  0  0  0  0  0  0  0  0  0
    7.5013   -4.2691   18.0306 N   0  0  0  0  0  0  0  0  0  0  0  0
  2  1  1  1  0  0  0
  2  3  1  0  0  0  0
  2  5  1  0  0  0  0
  3  4  1  0  0  0  0
  3 17  1  0  0  0  0
  5  6  1  0  0  0  0
  7  6  1  6  0  0  0
  7  8  1  0  0  0  0
  7  9  1  0  0  0  0
 10  9  1  6  0  0  0
 10 11  1  0  0  0  0
 10 12  1  0  0  0  0
 11 16  1  0  0  0  0
 12 13  1  1  0  0  0
 12 14  1  0  0  0  0
 14 15  1  1  0  0  0
 14 16  1  0  0  0  0
 16 27  1  6  0  0  0
 18 19  2  0  0  0  0
 18 23  1  0  0  0  0
 19 20  1  0  0  0  0
 20 21  2  0  0  0  0
 21 22  1  0  0  0  0
 21 27  1  0  0  0  0
 22 23  2  0  0  0  0
 22 25  1  0  0  0  0
 23 24  1  0  0  0  0
 25 26  2  0  0  0  0
 26 27  1  0  0  0  0
M  END
>  <CHROM.1>
147.04063643,-157.00416763,74.76117672,-89.22494678,-66.41058127,178.06327482
169.86241962,7.68405720,-1.17935911,18.71009425,2.41640157,1.39217269,-0.77050655

>  <Name>
ligand

>  <RI>
0

>  <Rbt.Current_Directory>
/home/itssahil/PROJECTS/Mol_Feturizer/New_Systems/rnas/3GX5

>  <Rbt.Executable>
rbdock ($Id: //depot/dev/client3/rdock/2013.1/src/exe/rbdock.cxx#4 $)

>  <Rbt.Library>
libRbt.so (2013.1, Build901 2013/11/27)

>  <Rbt.Parameter_File>
/export/apps/rDock/src/rDock_2013.1_src/data/scripts/dock_solv.prm

>  <Rbt.Receptor>
prm/blind_docking_100.prm

>  <SCORE>
-8.03657

>  <SCORE.INTER>
-8.69244

>  <SCORE.INTER.CONST>
1

>  <SCORE.INTER.POLAR>
0

>  <SCORE.INTER.ROT>
7

>  <SCORE.INTER.SOLV>
7.79755

>  <SCORE.INTER.VDW>
-16.6608

>  <SCORE.INTER.norm>
-0.321942

>  <SCORE.INTRA>
0.655873

>  <SCORE.INTRA.DIHEDRAL>
2.72906

>  <SCORE.INTRA.DIHEDRAL.0>
4.28829

>  <SCORE.INTRA.POLAR>
0

>  <SCORE.INTRA.POLAR.0>
0

>  <SCORE.INTRA.REPUL>
0

>  <SCORE.INTRA.REPUL.0>
0

>  <SCORE.INTRA.SOLV>
-0.34842

>  <SCORE.INTRA.SOLV.lig_0>
-48.6018

>  <SCORE.INTRA.VDW>
-0.534445

>  <SCORE.INTRA.VDW.0>
-2.1506

>  <SCORE.INTRA.norm>
0.0242916

>  <SCORE.RESTR>
0

>  <SCORE.RESTR.CAVITY>
0

>  <SCORE.RESTR.norm>
0

>  <SCORE.SYSTEM>
0

>  <SCORE.SYSTEM.CONST>
0

>  <SCORE.SYSTEM.DIHEDRAL>
0

>  <SCORE.SYSTEM.SOLV>
0

>  <SCORE.SYSTEM.norm>
0

>  <SCORE.heavy>
27

>  <SCORE.norm>
-0.297651

>  <RMSD>
14.682

$$$$
ligand
 OpenBabel11021811483D
libRbt.so/2013.1/901 2013/11/27
 27 29  0  0  0  0  0  0  0  0999 V2000
   12.4655   -9.3022   21.4256 N   0  0  0  0  0  0  0  0  0  0  0  0
   11.4699   -8.5766   22.2169 C   0  0  2  0  0  0  0  0  0  0  0  0
   11.9564   -8.0386   23.5648 C   0  0  0  0  0  0  0  0  0  0  0  0
   11.6002   -6.9151   23.9177 O   0  0  0  0  0  0  0  0  0  0  0  0
   10.2093   -9.4058   22.3968 C   0  0  0  0  0  0  0  0  0  0  0  0
    9.5570   -9.7271   21.0631 C   0  0  0  0  0  0  0  0  0  0  0  0
    7.8838   -9.0630   20.9965 S   0  0  2  0  0  0  0  0  0  0  0  0
    7.3338   -9.7576   19.4235 C   0  0  0  0  0  0  0  0  0  0  0  0
    8.2232   -7.3658   20.4741 C   0  0  0  0  0  0  0  0  0  0  0  0
    8.9068   -6.5850   21.5814 C   0  0  1  0  0  0  0  0  0  0  0  0
    9.4658   -5.3938   21.0768 O   0  0  0  0  0  0  0  0  0  0  0  0
    7.9454   -6.1413   22.6664 C   0  0  1  0  0  0  0  0  0  0  0  0
    7.9410   -7.1149   23.6799 O   0  0  0  0  0  0  0  0  0  0  0  0
    8.5457   -4.8413   23.1622 C   0  0  1  0  0  0  0  0  0  0  0  0
    9.2476   -5.1285   24.3508 O   0  0  0  0  0  0  0  0  0  0  0  0
    9.5061   -4.3788   22.0644 C   0  0  2  0  0  0  0  0  0  0  0  0
   12.6972   -8.6796   24.3152 O   0  0  0  0  0  0  0  0  0  0  0  0
   10.6275    0.4868   20.4876 N   0  0  0  0  0  0  0  0  0  0  0  0
   11.4723   -0.4262   21.0707 C   0  0  0  0  0  0  0  0  0  0  0  0
   10.9857   -1.6667   21.4199 N   0  0  0  0  0  0  0  0  0  0  0  0
    9.6948   -1.9999   21.1960 C   0  0  0  0  0  0  0  0  0  0  0  0
    8.8332   -1.0935   20.5954 C   0  0  0  0  0  0  0  0  0  0  0  0
    9.3079    0.1689   20.2458 C   0  0  0  0  0  0  0  0  0  0  0  0
    8.5093    1.0698   19.6728 N   0  0  0  0  0  0  0  0  0  0  0  0
    7.6159   -1.6852   20.4845 N   0  0  0  0  0  0  0  0  0  0  0  0
    7.7075   -2.9386   20.9856 C   0  0  0  0  0  0  0  0  0  0  0  0
    8.9911   -3.1521   21.4242 N   0  0  0  0  0  0  0  0  0  0  0  0
  2  1  1  1  0  0  0
  2  3  1  0  0  0  0
  2  5  1  0  0  0  0
  3  4  1  0  0  0  0
  3 17  1  0  0  0  0
  5  6  1  0  0  0  0
  7  6  1  6  0  0  0
  7  8  1  0  0  0  0
  7  9  1  0  0  0  0
 10  9  1  6  0  0  0
 10 11  1  0  0  0  0
 10 12  1  0  0  0  0
 11 16  1  0  0  0  0
 12 13  1  1  0  0  0
 12 14  1  0  0  0  0
 14 15  1  1  0  0  0
 14 16  1  0  0  0  0
 16 27  1  6  0  0  0
 18 19  2  0  0  0  0
 18 23  1  0  0  0  0
 19 20  1  0  0  0  0
 20 21  2  0  0  0  0
 21 22  1  0  0  0  0
 21 27  1  0  0  0  0
 22 23  2  0  0  0  0
 22 25  1  0  0  0  0
 23 24  1  0  0  0  0
 25 26  2  0  0  0  0
 26 27  1  0  0  0  0
M  END
>  <CHROM.1>
138.94649534,-61.16592856,-120.00689156,-173.79571867,-69.55818445,165.31237177
-115.57230844,9.50885263,-5.40434381,21.71356977,-1.50174044,-0.56432156
-0.12468817

>  <Name>
ligand

>  <RI>
0

>  <Rbt.Current_Directory>
/home/itssahil/PROJECTS/Mol_Feturizer/New_Systems/rnas/3GX5

>  <Rbt.Executable>
rbdock ($Id: //depot/dev/client3/rdock/2013.1/src/exe/rbdock.cxx#4 $)

>  <Rbt.Library>
libRbt.so (2013.1, Build901 2013/11/27)

>  <Rbt.Parameter_File>
/export/apps/rDock/src/rDock_2013.1_src/data/scripts/dock_solv.prm

>  <Rbt.Receptor>
prm/blind_docking_100.prm

>  <SCORE>
-12.1565

>  <SCORE.INTER>
-13.2792

>  <SCORE.INTER.CONST>
1

>  <SCORE.INTER.POLAR>
0

>  <SCORE.INTER.ROT>
7

>  <SCORE.INTER.SOLV>
9.82473

>  <SCORE.INTER.VDW>
-20.3943

>  <SCORE.INTER.norm>
-0.49182

>  <SCORE.INTRA>
1.1227

>  <SCORE.INTRA.DIHEDRAL>
6.09817

>  <SCORE.INTRA.DIHEDRAL.0>
4.28829

>  <SCORE.INTRA.POLAR>
0

>  <SCORE.INTRA.POLAR.0>
0

>  <SCORE.INTRA.REPUL>
0

>  <SCORE.INTRA.REPUL.0>
0

>  <SCORE.INTRA.SOLV>
0.197866

>  <SCORE.INTRA.SOLV.lig_0>
-48.6018

>  <SCORE.INTRA.VDW>
-2.02532

>  <SCORE.INTRA.VDW.0>
-2.1506

>  <SCORE.INTRA.norm>
0.0415815

>  <SCORE.RESTR>
0

>  <SCORE.RESTR.CAVITY>
0

>  <SCORE.RESTR.norm>
0

>  <SCORE.SYSTEM>
0

>  <SCORE.SYSTEM.CONST>
0

>  <SCORE.SYSTEM.DIHEDRAL>
0

>  <SCORE.SYSTEM.SOLV>
0

>  <SCORE.SYSTEM.norm>
0

>  <SCORE.heavy>
27

>  <SCORE.norm>
-0.450239

>  <RMSD>
14.690

$$$$
ligand
 OpenBabel11021811483D
libRbt.so/2013.1/901 2013/11/27
 27 29  0  0  0  0  0  0  0  0999 V2000
    7.2567  -16.7017   17.4264 N   0  0  0  0  0  0  0  0  0  0  0  0
    7.6614  -15.5687   18.2609 C   0  0  2  0  0  0  0  0  0  0  0  0
    7.1057  -15.5624   19.6871 C   0  0  0  0  0  0  0  0  0  0  0  0
    5.9108  -15.7997   19.8583 O   0  0  0  0  0  0  0  0  0  0  0  0
    7.3657  -14.2497   17.5669 C   0  0  0  0  0  0  0  0  0  0  0  0
    8.3569  -13.9716   16.4500 C   0  0  0  0  0  0  0  0  0  0  0  0
    7.9800  -12.4078   15.6390 S   0  0  2  0  0  0  0  0  0  0  0  0
    9.5660  -12.0783   14.8420 C   0  0  0  0  0  0  0  0  0  0  0  0
    8.1049  -11.2716   17.0397 C   0  0  0  0  0  0  0  0  0  0  0  0
    6.7281  -10.8880   17.5501 C   0  0  1  0  0  0  0  0  0  0  0  0
    6.7683  -10.6195   18.9330 O   0  0  0  0  0  0  0  0  0  0  0  0
    6.2006   -9.6159   16.9161 C   0  0  1  0  0  0  0  0  0  0  0  0
    5.4271   -9.9665   15.7964 O   0  0  0  0  0  0  0  0  0  0  0  0
    5.3395   -9.0079   18.0046 C   0  0  1  0  0  0  0  0  0  0  0  0
    3.9987   -9.3283   17.7084 O   0  0  0  0  0  0  0  0  0  0  0  0
    5.7805   -9.6759   19.3086 C   0  0  2  0  0  0  0  0  0  0  0  0
    7.8021  -15.3237   20.6775 O   0  0  0  0  0  0  0  0  0  0  0  0
    9.7966   -8.7836   22.5480 N   0  0  0  0  0  0  0  0  0  0  0  0
    9.5144   -9.9339   21.8520 C   0  0  0  0  0  0  0  0  0  0  0  0
    8.3997   -9.9756   21.0437 N   0  0  0  0  0  0  0  0  0  0  0  0
    7.5833   -8.9049   20.9226 C   0  0  0  0  0  0  0  0  0  0  0  0
    7.8629   -7.7318   21.6083 C   0  0  0  0  0  0  0  0  0  0  0  0
    8.9810   -7.6774   22.4378 C   0  0  0  0  0  0  0  0  0  0  0  0
    9.2796   -6.5704   23.1182 N   0  0  0  0  0  0  0  0  0  0  0  0
    6.8970   -6.8281   21.3007 N   0  0  0  0  0  0  0  0  0  0  0  0
    6.0377   -7.4070   20.4305 C   0  0  0  0  0  0  0  0  0  0  0  0
    6.4527   -8.6918   20.1802 N   0  0  0  0  0  0  0  0  0  0  0  0
  2  1  1  6  0  0  0
  2  3  1  0  0  0  0
  2  5  1  0  0  0  0
  3  4  1  0  0  0  0
  3 17  1  0  0  0  0
  5  6  1  0  0  0  0
  7  6  1  1  0  0  0
  7  8  1  0  0  0  0
  7  9  1  0  0  0  0
 10  9  1  6  0  0  0
 10 11  1  0  0  0  0
 10 12  1  0  0  0  0
 11 16  1  0  0  0  0
 12 13  1  6  0  0  0
 12 14  1  0  0  0  0
 14 15  1  6  0  0  0
 14 16  1  0  0  0  0
 16 27  1  1  0  0  0
 18 19  2  0  0  0  0
 18 23  1  0  0  0  0
 19 20  1  0  0  0  0
 20 21  2  0  0  0  0
 21 22  1  0  0  0  0
 21 27  1  0  0  0  0
 22 23  2  0  0  0  0
 22 25  1  0  0  0  0
 23 24  1  0  0  0  0
 25 26  2  0  0  0  0
 26 27  1  0  0  0  0
M  END
>  <CHROM.1>
-46.11812632,-74.73706297,179.72392399,160.79349272,-102.11555320,149.88055430
-24.50399222,7.33713928,-11.05641675,18.91672460,-1.69226697,-1.20155838
0.44092259

>  <Name>
ligand

>  <RI>
0

>  <Rbt.Current_Directory>
/home/itssahil/PROJECTS/Mol_Feturizer/New_Systems/rnas/3GX5

>  <Rbt.Executable>
rbdock ($Id: //depot/dev/client3/rdock/2013.1/src/exe/rbdock.cxx#4 $)

>  <Rbt.Library>
libRbt.so (2013.1, Build901 2013/11/27)

>  <Rbt.Parameter_File>
/export/apps/rDock/src/rDock_2013.1_src/data/scripts/dock_solv.prm

>  <Rbt.Receptor>
prm/blind_docking_80.prm

>  <SCORE>
-13.473

>  <SCORE.INTER>
-15.6734

>  <SCORE.INTER.CONST>
1

>  <SCORE.INTER.POLAR>
0

>  <SCORE.INTER.ROT>
7

>  <SCORE.INTER.SOLV>
11.5352

>  <SCORE.INTER.VDW>
-22.5607

>  <SCORE.INTER.norm>
-0.580498

>  <SCORE.INTRA>
2.19918

>  <SCORE.INTRA.DIHEDRAL>
5.32389

>  <SCORE.INTRA.DIHEDRAL.0>
4.28829

>  <SCORE.INTRA.POLAR>
0

>  <SCORE.INTRA.POLAR.0>
0

>  <SCORE.INTRA.REPUL>
0

>  <SCORE.INTRA.REPUL.0>
0

>  <SCORE.INTRA.SOLV>
-0.578458

>  <SCORE.INTRA.SOLV.lig_0>
-48.6018

>  <SCORE.INTRA.VDW>
-0.173532

>  <SCORE.INTRA.VDW.0>
-2.1506

>  <SCORE.INTRA.norm>
0.0814512

>  <SCORE.RESTR>
0.00129039

>  <SCORE.RESTR.CAVITY>
0.00129039

>  <SCORE.RESTR.norm>
4.77921e-05

>  <SCORE.SYSTEM>
0

>  <SCORE.SYSTEM.CONST>
0

>  <SCORE.SYSTEM.DIHEDRAL>
0

>  <SCORE.SYSTEM.SOLV>
0

>  <SCORE.SYSTEM.norm>
0

>  <SCORE.heavy>
27

>  <SCORE.norm>
-0.498999

>  <RMSD>
14.697

$$$$
ligand
 OpenBabel11021811483D
libRbt.so/2013.1/901 2013/11/27
 27 29  0  0  0  0  0  0  0  0999 V2000
    7.4118   -6.0376   26.5744 N   0  0  0  0  0  0  0  0  0  0  0  0
    7.7094   -7.2288   25.7767 C   0  0  2  0  0  0  0  0  0  0  0  0
    8.1263   -8.4709   26.5681 C   0  0  0  0  0  0  0  0  0  0  0  0
    7.8983   -8.5076   27.7765 O   0  0  0  0  0  0  0  0  0  0  0  0
    8.7302   -6.9174   24.6951 C   0  0  0  0  0  0  0  0  0  0  0  0
    8.2524   -5.8028   23.7804 C   0  0  0  0  0  0  0  0  0  0  0  0
    9.5639   -5.2983   22.6531 S   0  0  2  0  0  0  0  0  0  0  0  0
    8.7911   -3.8500   21.9020 C   0  0  0  0  0  0  0  0  0  0  0  0
    9.3275   -6.4929   21.3168 C   0  0  0  0  0  0  0  0  0  0  0  0
   10.0313   -7.8007   21.6289 C   0  0  1  0  0  0  0  0  0  0  0  0
    9.8518   -8.7239   20.5793 O   0  0  0  0  0  0  0  0  0  0  0  0
   11.5330   -7.6417   21.7624 C   0  0  1  0  0  0  0  0  0  0  0  0
   11.8374   -7.4289   23.1178 O   0  0  0  0  0  0  0  0  0  0  0  0
   12.0746   -8.9739   21.2848 C   0  0  1  0  0  0  0  0  0  0  0  0
   12.3784   -9.7391   22.4295 O   0  0  0  0  0  0  0  0  0  0  0  0
   10.9430   -9.6225   20.4846 C   0  0  2  0  0  0  0  0  0  0  0  0
    8.6880   -9.4396   26.0495 O   0  0  0  0  0  0  0  0  0  0  0  0
   10.1164  -12.0297   15.9085 N   0  0  0  0  0  0  0  0  0  0  0  0
    9.4987  -12.2709   17.1116 C   0  0  0  0  0  0  0  0  0  0  0  0
    9.8573  -11.5266   18.2139 N   0  0  0  0  0  0  0  0  0  0  0  0
   10.8024  -10.5636   18.1300 C   0  0  0  0  0  0  0  0  0  0  0  0
   11.4250  -10.2990   16.9189 C   0  0  0  0  0  0  0  0  0  0  0  0
   11.0805  -11.0504   15.7972 C   0  0  0  0  0  0  0  0  0  0  0  0
   11.6610  -10.8306   14.6173 N   0  0  0  0  0  0  0  0  0  0  0  0
   12.3131   -9.2910   17.1174 N   0  0  0  0  0  0  0  0  0  0  0  0
   12.2433   -8.9152   18.4153 C   0  0  0  0  0  0  0  0  0  0  0  0
   11.3067   -9.6891   19.0551 N   0  0  0  0  0  0  0  0  0  0  0  0
  2  1  1  1  0  0  0
  2  3  1  0  0  0  0
  2  5  1  0  0  0  0
  3  4  1  0  0  0  0
  3 17  1  0  0  0  0
  5  6  1  0  0  0  0
  7  6  1  1  0  0  0
  7  8  1  0  0  0  0
  7  9  1  0  0  0  0
 10  9  1  6  0  0  0
 10 11  1  0  0  0  0
 10 12  1  0  0  0  0
 11 16  1  0  0  0  0
 12 13  1  1  0  0  0
 12 14  1  0  0  0  0
 14 15  1  1  0  0  0
 14 16  1  0  0  0  0
 16 27  1  6  0  0  0
 18 19  2  0  0  0  0
 18 23  1  0  0  0  0
 19 20  1  0  0  0  0
 20 21  2  0  0  0  0
 21 22  1  0  0  0  0
 21 27  1  0  0  0  0
 22 23  2  0  0  0  0
 22 25  1  0  0  0  0
 23 24  1  0  0  0  0
 25 26  2  0  0  0  0
 26 27  1  0  0  0  0
M  END
>  <CHROM.1>
16.40951781,-57.67372293,172.23330688,-172.11949945,-83.90943607,-179.55460789
-89.91754093,10.08164855,-8.47262817,21.30287853,2.67856442,1.26402321,0.05747523

>  <Name>
ligand

>  <RI>
0

>  <Rbt.Current_Directory>
/home/itssahil/PROJECTS/Mol_Feturizer/New_Systems/rnas/3GX5

>  <Rbt.Executable>
rbdock ($Id: //depot/dev/client3/rdock/2013.1/src/exe/rbdock.cxx#4 $)

>  <Rbt.Library>
libRbt.so (2013.1, Build901 2013/11/27)

>  <Rbt.Parameter_File>
/export/apps/rDock/src/rDock_2013.1_src/data/scripts/dock_solv.prm

>  <Rbt.Receptor>
prm/blind_docking_60.prm

>  <SCORE>
-12.6057

>  <SCORE.INTER>
-13.0775

>  <SCORE.INTER.CONST>
1

>  <SCORE.INTER.POLAR>
0

>  <SCORE.INTER.ROT>
7

>  <SCORE.INTER.SOLV>
10.724

>  <SCORE.INTER.VDW>
-20.5597

>  <SCORE.INTER.norm>
-0.484352

>  <SCORE.INTRA>
0.471858

>  <SCORE.INTRA.DIHEDRAL>
0.887521

>  <SCORE.INTRA.DIHEDRAL.0>
4.28829

>  <SCORE.INTRA.POLAR>
0

>  <SCORE.INTRA.POLAR.0>
0

>  <SCORE.INTRA.REPUL>
0

>  <SCORE.INTRA.REPUL.0>
0

>  <SCORE.INTRA.SOLV>
-0.165777

>  <SCORE.INTRA.SOLV.lig_0>
-48.6018

>  <SCORE.INTRA.VDW>
0.110986

>  <SCORE.INTRA.VDW.0>
-2.1506

>  <SCORE.INTRA.norm>
0.0174762

>  <SCORE.RESTR>
0

>  <SCORE.RESTR.CAVITY>
0

>  <SCORE.RESTR.norm>
0

>  <SCORE.SYSTEM>
0

>  <SCORE.SYSTEM.CONST>
0

>  <SCORE.SYSTEM.DIHEDRAL>
0

>  <SCORE.SYSTEM.SOLV>
0

>  <SCORE.SYSTEM.norm>
0

>  <SCORE.heavy>
27

>  <SCORE.norm>
-0.466876

>  <RMSD>
14.702

$$$$
ligand
 OpenBabel11021811483D
libRbt.so/2013.1/901 2013/11/27
 27 29  0  0  0  0  0  0  0  0999 V2000
   10.2855   -7.1945   22.1714 N   0  0  0  0  0  0  0  0  0  0  0  0
    8.9083   -6.7297   22.3482 C   0  0  2  0  0  0  0  0  0  0  0  0
    8.1437   -7.3491   23.5207 C   0  0  0  0  0  0  0  0  0  0  0  0
    7.1819   -6.7408   23.9881 O   0  0  0  0  0  0  0  0  0  0  0  0
    8.1166   -6.8732   21.0592 C   0  0  0  0  0  0  0  0  0  0  0  0
    8.0594   -8.3190   20.5969 C   0  0  0  0  0  0  0  0  0  0  0  0
    7.0393   -8.4753   19.1203 S   0  0  2  0  0  0  0  0  0  0  0  0
    5.4002   -8.2728   19.8494 C   0  0  0  0  0  0  0  0  0  0  0  0
    7.0514  -10.2697   18.8997 C   0  0  0  0  0  0  0  0  0  0  0  0
    7.9173  -10.6640   17.7174 C   0  0  1  0  0  0  0  0  0  0  0  0
    8.3966  -11.9805   17.8702 O   0  0  0  0  0  0  0  0  0  0  0  0
    7.1541  -10.6713   16.4075 C   0  0  1  0  0  0  0  0  0  0  0  0
    7.3084   -9.4146   15.7977 O   0  0  0  0  0  0  0  0  0  0  0  0
    7.8414  -11.7556   15.6026 C   0  0  1  0  0  0  0  0  0  0  0  0
    8.7282  -11.1189   14.7103 O   0  0  0  0  0  0  0  0  0  0  0  0
    8.6107  -12.6049   16.6167 C   0  0  2  0  0  0  0  0  0  0  0  0
    8.4514   -8.4324   24.0251 O   0  0  0  0  0  0  0  0  0  0  0  0
    8.1039  -16.9326   19.5207 N   0  0  0  0  0  0  0  0  0  0  0  0
    8.7942  -15.7859   19.8300 C   0  0  0  0  0  0  0  0  0  0  0  0
    8.8120  -14.7461   18.9265 N   0  0  0  0  0  0  0  0  0  0  0  0
    8.1604  -14.8349   17.7454 C   0  0  0  0  0  0  0  0  0  0  0  0
    7.4475  -15.9810   17.4249 C   0  0  0  0  0  0  0  0  0  0  0  0
    7.4286  -17.0453   18.3240 C   0  0  0  0  0  0  0  0  0  0  0  0
    6.7604  -18.1659   18.0494 N   0  0  0  0  0  0  0  0  0  0  0  0
    6.8914  -15.7979   16.1996 N   0  0  0  0  0  0  0  0  0  0  0  0
    7.2284  -14.5626   15.7624 C   0  0  0  0  0  0  0  0  0  0  0  0
    8.0089  -13.9499   16.7116 N   0  0  0  0  0  0  0  0  0  0  0  0
  2  1  1  6  0  0  0
  2  3  1  0  0  0  0
  2  5  1  0  0  0  0
  3  4  1  0  0  0  0
  3 17  1  0  0  0  0
  5  6  1  0  0  0  0
  7  6  1  1  0  0  0
  7  8  1  0  0  0  0
  7  9  1  0  0  0  0
 10  9  1  1  0  0  0
 10 11  1  0  0  0  0
 10 12  1  0  0  0  0
 11 16  1  0  0  0  0
 12 13  1  6  0  0  0
 12 14  1  0  0  0  0
 14 15  1  6  0  0  0
 14 16  1  0  0  0  0
 16 27  1  1  0  0  0
 18 19  2  0  0  0  0
 18 23  1  0  0  0  0
 19 20  1  0  0  0  0
 20 21  2  0  0  0  0
 21 22  1  0  0  0  0
 21 27  1  0  0  0  0
 22 23  2  0  0  0  0
 22 25  1  0  0  0  0
 23 24  1  0  0  0  0
 25 26  2  0  0  0  0
 26 27  1  0  0  0  0
M  END
>  <CHROM.1>
157.43958831,59.94423066,176.81465116,-73.82173081,-107.28685860,154.70340626
-46.29672510,7.81674517,-11.37880756,18.88733292,-1.26911556,1.46878106,-2.91856162

>  <Name>
ligand

>  <RI>
0

>  <Rbt.Current_Directory>
/home/itssahil/PROJECTS/Mol_Feturizer/New_Systems/rnas/3GX5

>  <Rbt.Executable>
rbdock ($Id: //depot/dev/client3/rdock/2013.1/src/exe/rbdock.cxx#4 $)

>  <Rbt.Library>
libRbt.so (2013.1, Build901 2013/11/27)

>  <Rbt.Parameter_File>
/export/apps/rDock/src/rDock_2013.1_src/data/scripts/dock_solv.prm

>  <Rbt.Receptor>
prm/blind_docking_40.prm

>  <SCORE>
-10.5113

>  <SCORE.INTER>
-12.5855

>  <SCORE.INTER.CONST>
1

>  <SCORE.INTER.POLAR>
0

>  <SCORE.INTER.ROT>
7

>  <SCORE.INTER.SOLV>
15.1598

>  <SCORE.INTER.VDW>
-21.7103

>  <SCORE.INTER.norm>
-0.46613

>  <SCORE.INTRA>
2.07419

>  <SCORE.INTRA.DIHEDRAL>
4.24771

>  <SCORE.INTRA.DIHEDRAL.0>
4.28829

>  <SCORE.INTRA.POLAR>
0

>  <SCORE.INTRA.POLAR.0>
0

>  <SCORE.INTRA.REPUL>
0

>  <SCORE.INTRA.REPUL.0>
0

>  <SCORE.INTRA.SOLV>
-0.530186

>  <SCORE.INTRA.SOLV.lig_0>
-48.6018

>  <SCORE.INTRA.VDW>
0.215428

>  <SCORE.INTRA.VDW.0>
-2.1506

>  <SCORE.INTRA.norm>
0.0768218

>  <SCORE.RESTR>
0

>  <SCORE.RESTR.CAVITY>
0

>  <SCORE.RESTR.norm>
0

>  <SCORE.SYSTEM>
0

>  <SCORE.SYSTEM.CONST>
0

>  <SCORE.SYSTEM.DIHEDRAL>
0

>  <SCORE.SYSTEM.SOLV>
0

>  <SCORE.SYSTEM.norm>
0

>  <SCORE.heavy>
27

>  <SCORE.norm>
-0.389308

>  <RMSD>
14.774

$$$$
ligand
 OpenBabel11021811483D
libRbt.so/2013.1/901 2013/11/27
 27 29  0  0  0  0  0  0  0  0999 V2000
   16.0479   -8.1304   18.7693 N   0  0  0  0  0  0  0  0  0  0  0  0
   14.9882   -8.9241   18.1441 C   0  0  2  0  0  0  0  0  0  0  0  0
   14.9935   -8.9508   16.6137 C   0  0  0  0  0  0  0  0  0  0  0  0
   14.9407   -7.8844   16.0024 O   0  0  0  0  0  0  0  0  0  0  0  0
   13.6216   -8.5133   18.6661 C   0  0  0  0  0  0  0  0  0  0  0  0
   13.4478   -8.8842   20.1288 C   0  0  0  0  0  0  0  0  0  0  0  0
   11.7996   -8.4421   20.7061 S   0  0  2  0  0  0  0  0  0  0  0  0
   11.7607   -9.3492   22.2665 C   0  0  0  0  0  0  0  0  0  0  0  0
   10.7881   -9.5447   19.6913 C   0  0  0  0  0  0  0  0  0  0  0  0
    9.3205   -9.1689   19.7812 C   0  0  1  0  0  0  0  0  0  0  0  0
    8.8322   -9.3829   21.0858 O   0  0  0  0  0  0  0  0  0  0  0  0
    9.0729   -7.6992   19.5031 C   0  0  1  0  0  0  0  0  0  0  0  0
    8.7829   -7.5495   18.1362 O   0  0  0  0  0  0  0  0  0  0  0  0
    7.8626   -7.3760   20.3556 C   0  0  1  0  0  0  0  0  0  0  0  0
    6.7350   -7.3944   19.5093 O   0  0  0  0  0  0  0  0  0  0  0  0
    7.7754   -8.4926   21.3983 C   0  0  2  0  0  0  0  0  0  0  0  0
   15.0428   -9.9969   15.9610 O   0  0  0  0  0  0  0  0  0  0  0  0
    6.6282   -4.8026   24.9319 N   0  0  0  0  0  0  0  0  0  0  0  0
    6.0609   -4.9908   23.6950 C   0  0  0  0  0  0  0  0  0  0  0  0
    6.5031   -6.0267   22.9018 N   0  0  0  0  0  0  0  0  0  0  0  0
    7.4814   -6.8601   23.3212 C   0  0  0  0  0  0  0  0  0  0  0  0
    8.0542   -6.6911   24.5734 C   0  0  0  0  0  0  0  0  0  0  0  0
    7.6248   -5.6417   25.3831 C   0  0  0  0  0  0  0  0  0  0  0  0
    8.1554   -5.4425   26.5900 N   0  0  0  0  0  0  0  0  0  0  0  0
    8.9914   -7.6601   24.7379 N   0  0  0  0  0  0  0  0  0  0  0  0
    9.0006   -8.4327   23.6272 C   0  0  0  0  0  0  0  0  0  0  0  0
    8.0657   -7.9547   22.7423 N   0  0  0  0  0  0  0  0  0  0  0  0
  2  1  1  6  0  0  0
  2  3  1  0  0  0  0
  2  5  1  0  0  0  0
  3  4  1  0  0  0  0
  3 17  1  0  0  0  0
  5  6  1  0  0  0  0
  7  6  1  6  0  0  0
  7  8  1  0  0  0  0
  7  9  1  0  0  0  0
 10  9  1  1  0  0  0
 10 11  1  0  0  0  0
 10 12  1  0  0  0  0
 11 16  1  0  0  0  0
 12 13  1  6  0  0  0
 12 14  1  0  0  0  0
 14 15  1  6  0  0  0
 14 16  1  0  0  0  0
 16 27  1  1  0  0  0
 18 19  2  0  0  0  0
 18 23  1  0  0  0  0
 19 20  1  0  0  0  0
 20 21  2  0  0  0  0
 21 22  1  0  0  0  0
 21 27  1  0  0  0  0
 22 23  2  0  0  0  0
 22 25  1  0  0  0  0
 23 24  1  0  0  0  0
 25 26  2  0  0  0  0
 26 27  1  0  0  0  0
M  END
>  <CHROM.1>
-56.51807214,-67.84347178,-177.90765807,166.59010571,-168.30527336,-65.77265764
164.95658457,10.23287989,-7.85552106,20.95362133,-0.76106634,-0.15380138
1.35515203

>  <Name>
ligand

>  <RI>
0

>  <Rbt.Current_Directory>
/home/itssahil/PROJECTS/Mol_Feturizer/New_Systems/rnas/3GX5

>  <Rbt.Executable>
rbdock ($Id: //depot/dev/client3/rdock/2013.1/src/exe/rbdock.cxx#4 $)

>  <Rbt.Library>
libRbt.so (2013.1, Build901 2013/11/27)

>  <Rbt.Parameter_File>
/export/apps/rDock/src/rDock_2013.1_src/data/scripts/dock_solv.prm

>  <Rbt.Receptor>
prm/blind_docking_40.prm

>  <SCORE>
-10.0391

>  <SCORE.INTER>
-10.0696

>  <SCORE.INTER.CONST>
1

>  <SCORE.INTER.POLAR>
0

>  <SCORE.INTER.ROT>
7

>  <SCORE.INTER.SOLV>
8.48634

>  <SCORE.INTER.VDW>
-17.8085

>  <SCORE.INTER.norm>
-0.372946

>  <SCORE.INTRA>
0.0304736

>  <SCORE.INTRA.DIHEDRAL>
0.781425

>  <SCORE.INTRA.DIHEDRAL.0>
4.28829

>  <SCORE.INTRA.POLAR>
0

>  <SCORE.INTRA.POLAR.0>
0

>  <SCORE.INTRA.REPUL>
0

>  <SCORE.INTRA.REPUL.0>
0

>  <SCORE.INTRA.SOLV>
-0.396704

>  <SCORE.INTRA.SOLV.lig_0>
-48.6018

>  <SCORE.INTRA.VDW>
-0.161887

>  <SCORE.INTRA.VDW.0>
-2.1506

>  <SCORE.INTRA.norm>
0.00112865

>  <SCORE.RESTR>
0

>  <SCORE.RESTR.CAVITY>
0

>  <SCORE.RESTR.norm>
0

>  <SCORE.SYSTEM>
0

>  <SCORE.SYSTEM.CONST>
0

>  <SCORE.SYSTEM.DIHEDRAL>
0

>  <SCORE.SYSTEM.SOLV>
0

>  <SCORE.SYSTEM.norm>
0

>  <SCORE.heavy>
27

>  <SCORE.norm>
-0.371818

>  <RMSD>
14.803

$$$$
ligand
 OpenBabel11021811483D
libRbt.so/2013.1/901 2013/11/27
 27 29  0  0  0  0  0  0  0  0999 V2000
    6.8364    3.3925   20.0325 N   0  0  0  0  0  0  0  0  0  0  0  0
    7.6463    4.3742   19.3086 C   0  0  2  0  0  0  0  0  0  0  0  0
    6.8888    5.5869   18.7624 C   0  0  0  0  0  0  0  0  0  0  0  0
    5.6873    5.4759   18.5218 O   0  0  0  0  0  0  0  0  0  0  0  0
    8.4519    3.7073   18.2063 C   0  0  0  0  0  0  0  0  0  0  0  0
    7.5587    2.9349   17.2508 C   0  0  0  0  0  0  0  0  0  0  0  0
    8.5420    2.1071   15.9886 S   0  0  2  0  0  0  0  0  0  0  0  0
    8.8495    3.4927   14.8729 C   0  0  0  0  0  0  0  0  0  0  0  0
    7.2422    1.2574   15.0627 C   0  0  0  0  0  0  0  0  0  0  0  0
    6.7536    0.0333   15.8149 C   0  0  1  0  0  0  0  0  0  0  0  0
    7.8292   -0.6248   16.4444 O   0  0  0  0  0  0  0  0  0  0  0  0
    5.7917    0.3778   16.9349 C   0  0  1  0  0  0  0  0  0  0  0  0
    4.4812    0.2995   16.4334 O   0  0  0  0  0  0  0  0  0  0  0  0
    6.0461   -0.7030   17.9660 C   0  0  1  0  0  0  0  0  0  0  0  0
    5.0281   -1.6680   17.8237 O   0  0  0  0  0  0  0  0  0  0  0  0
    7.4111   -1.3004   17.6173 C   0  0  2  0  0  0  0  0  0  0  0  0
    7.4302    6.6744   18.5456 O   0  0  0  0  0  0  0  0  0  0  0  0
    9.4269   -2.6417   22.2601 N   0  0  0  0  0  0  0  0  0  0  0  0
    8.4518   -3.2931   21.5445 C   0  0  0  0  0  0  0  0  0  0  0  0
    8.0496   -2.7788   20.3315 N   0  0  0  0  0  0  0  0  0  0  0  0
    8.5997   -1.6484   19.8344 C   0  0  0  0  0  0  0  0  0  0  0  0
    9.5953   -0.9872   20.5389 C   0  0  0  0  0  0  0  0  0  0  0  0
   10.0055   -1.4893   21.7721 C   0  0  0  0  0  0  0  0  0  0  0  0
   10.9545   -0.8789   22.4822 N   0  0  0  0  0  0  0  0  0  0  0  0
    9.9694    0.0982   19.8136 N   0  0  0  0  0  0  0  0  0  0  0  0
    9.2429    0.1154   18.6723 C   0  0  0  0  0  0  0  0  0  0  0  0
    8.3943   -0.9642   18.6662 N   0  0  0  0  0  0  0  0  0  0  0  0
  2  1  1  6  0  0  0
  2  3  1  0  0  0  0
  2  5  1  0  0  0  0
  3  4  1  0  0  0  0
  3 17  1  0  0  0  0
  5  6  1  0  0  0  0
  7  6  1  1  0  0  0
  7  8  1  0  0  0  0
  7  9  1  0  0  0  0
 10  9  1  1  0  0  0
 10 11  1  0  0  0  0
 10 12  1  0  0  0  0
 11 16  1  0  0  0  0
 12 13  1  6  0  0  0
 12 14  1  0  0  0  0
 14 15  1  6  0  0  0
 14 16  1  0  0  0  0
 16 27  1  1  0  0  0
 18 19  2  0  0  0  0
 18 23  1  0  0  0  0
 19 20  1  0  0  0  0
 20 21  2  0  0  0  0
 21 22  1  0  0  0  0
 21 27  1  0  0  0  0
 22 23  2  0  0  0  0
 22 25  1  0  0  0  0
 23 24  1  0  0  0  0
 25 26  2  0  0  0  0
 26 27  1  0  0  0  0
M  END
>  <CHROM.1>
-25.45221853,55.91153991,-178.01455476,-79.81330320,-76.30699048,-38.56257076
-161.45623166,7.79664233,0.91232184,18.38228054,-2.09442085,1.06061503,3.09610395

>  <Name>
ligand

>  <RI>
0

>  <Rbt.Current_Directory>
/home/itssahil/PROJECTS/Mol_Feturizer/New_Systems/rnas/3GX5

>  <Rbt.Executable>
rbdock ($Id: //depot/dev/client3/rdock/2013.1/src/exe/rbdock.cxx#4 $)

>  <Rbt.Library>
libRbt.so (2013.1, Build901 2013/11/27)

>  <Rbt.Parameter_File>
/export/apps/rDock/src/rDock_2013.1_src/data/scripts/dock_solv.prm

>  <Rbt.Receptor>
prm/blind_docking_40.prm

>  <SCORE>
-5.53115

>  <SCORE.INTER>
-5.1737

>  <SCORE.INTER.CONST>
1

>  <SCORE.INTER.POLAR>
0

>  <SCORE.INTER.ROT>
7

>  <SCORE.INTER.SOLV>
8.7836

>  <SCORE.INTER.VDW>
-14.6437

>  <SCORE.INTER.norm>
-0.191618

>  <SCORE.INTRA>
-0.363661

>  <SCORE.INTRA.DIHEDRAL>
1.17518

>  <SCORE.INTRA.DIHEDRAL.0>
4.28829

>  <SCORE.INTRA.POLAR>
0

>  <SCORE.INTRA.POLAR.0>
0

>  <SCORE.INTRA.REPUL>
0

>  <SCORE.INTRA.REPUL.0>
0

>  <SCORE.INTRA.SOLV>
-0.146492

>  <SCORE.INTRA.SOLV.lig_0>
-48.6018

>  <SCORE.INTRA.VDW>
-0.878007

>  <SCORE.INTRA.VDW.0>
-2.1506

>  <SCORE.INTRA.norm>
-0.0134689

>  <SCORE.RESTR>
0.00620655

>  <SCORE.RESTR.CAVITY>
0.00620655

>  <SCORE.RESTR.norm>
0.000229872

>  <SCORE.SYSTEM>
0

>  <SCORE.SYSTEM.CONST>
0

>  <SCORE.SYSTEM.DIHEDRAL>
0

>  <SCORE.SYSTEM.SOLV>
0

>  <SCORE.SYSTEM.norm>
0

>  <SCORE.heavy>
27

>  <SCORE.norm>
-0.204857

>  <RMSD>
14.806

$$$$
ligand
 OpenBabel11021811483D
libRbt.so/2013.1/901 2013/11/27
 27 29  0  0  0  0  0  0  0  0999 V2000
    7.7750  -10.6743   18.7727 N   0  0  0  0  0  0  0  0  0  0  0  0
    9.0098  -10.0258   18.3271 C   0  0  2  0  0  0  0  0  0  0  0  0
   10.1511  -10.9678   17.9363 C   0  0  0  0  0  0  0  0  0  0  0  0
    9.8884  -12.1418   17.6784 O   0  0  0  0  0  0  0  0  0  0  0  0
    9.4859   -9.0047   19.3467 C   0  0  0  0  0  0  0  0  0  0  0  0
    9.8843   -9.6658   20.6551 C   0  0  0  0  0  0  0  0  0  0  0  0
   10.3474   -8.4275   21.8788 S   0  0  2  0  0  0  0  0  0  0  0  0
   10.8795   -9.5037   23.2271 C   0  0  0  0  0  0  0  0  0  0  0  0
    8.7173   -7.9511   22.4989 C   0  0  0  0  0  0  0  0  0  0  0  0
    8.8062   -6.6949   23.3458 C   0  0  1  0  0  0  0  0  0  0  0  0
    9.2377   -5.6015   22.5684 O   0  0  0  0  0  0  0  0  0  0  0  0
    7.4646   -6.2723   23.9113 C   0  0  1  0  0  0  0  0  0  0  0  0
    7.3242   -6.8385   25.1898 O   0  0  0  0  0  0  0  0  0  0  0  0
    7.5736   -4.7631   23.9927 C   0  0  1  0  0  0  0  0  0  0  0  0
    7.8772   -4.4348   25.3298 O   0  0  0  0  0  0  0  0  0  0  0  0
    8.7273   -4.3767   23.0648 C   0  0  2  0  0  0  0  0  0  0  0  0
   11.3288  -10.6048   17.8727 O   0  0  0  0  0  0  0  0  0  0  0  0
    7.4853   -4.6109   17.9834 N   0  0  0  0  0  0  0  0  0  0  0  0
    7.9524   -5.6243   18.7846 C   0  0  0  0  0  0  0  0  0  0  0  0
    8.2264   -5.3636   20.1092 N   0  0  0  0  0  0  0  0  0  0  0  0
    8.0406   -4.1309   20.6322 C   0  0  0  0  0  0  0  0  0  0  0  0
    7.5563   -3.1009   19.8390 C   0  0  0  0  0  0  0  0  0  0  0  0
    7.2843   -3.3464   18.4947 C   0  0  0  0  0  0  0  0  0  0  0  0
    6.8240   -2.3810   17.6986 N   0  0  0  0  0  0  0  0  0  0  0  0
    7.4591   -1.9888   20.6123 N   0  0  0  0  0  0  0  0  0  0  0  0
    7.8549   -2.3092   21.8658 C   0  0  0  0  0  0  0  0  0  0  0  0
    8.2118   -3.6348   21.8969 N   0  0  0  0  0  0  0  0  0  0  0  0
  2  1  1  1  0  0  0
  2  3  1  0  0  0  0
  2  5  1  0  0  0  0
  3  4  1  0  0  0  0
  3 17  1  0  0  0  0
  5  6  1  0  0  0  0
  7  6  1  6  0  0  0
  7  8  1  0  0  0  0
  7  9  1  0  0  0  0
 10  9  1  6  0  0  0
 10 11  1  0  0  0  0
 10 12  1  0  0  0  0
 11 16  1  0  0  0  0
 12 13  1  1  0  0  0
 12 14  1  0  0  0  0
 14 15  1  1  0  0  0
 14 16  1  0  0  0  0
 16 27  1  6  0  0  0
 18 19  2  0  0  0  0
 18 23  1  0  0  0  0
 19 20  1  0  0  0  0
 20 21  2  0  0  0  0
 21 22  1  0  0  0  0
 21 27  1  0  0  0  0
 22 23  2  0  0  0  0
 22 25  1  0  0  0  0
 23 24  1  0  0  0  0
 25 26  2  0  0  0  0
 26 27  1  0  0  0  0
M  END
>  <CHROM.1>
18.70490097,65.13338069,-176.50800985,-175.69492344,-167.87344123,63.76455919
10.69654622,8.68853698,-6.64533733,20.96379560,0.49863302,1.23290818,-1.70735008

>  <Name>
ligand

>  <RI>
0

>  <Rbt.Current_Directory>
/home/itssahil/PROJECTS/Mol_Feturizer/New_Systems/rnas/3GX5

>  <Rbt.Executable>
rbdock ($Id: //depot/dev/client3/rdock/2013.1/src/exe/rbdock.cxx#4 $)

>  <Rbt.Library>
libRbt.so (2013.1, Build901 2013/11/27)

>  <Rbt.Parameter_File>
/export/apps/rDock/src/rDock_2013.1_src/data/scripts/dock_solv.prm

>  <Rbt.Receptor>
prm/blind_docking_40.prm

>  <SCORE>
-6.5505

>  <SCORE.INTER>
-6.34386

>  <SCORE.INTER.CONST>
1

>  <SCORE.INTER.POLAR>
0

>  <SCORE.INTER.ROT>
7

>  <SCORE.INTER.SOLV>
9.20903

>  <SCORE.INTER.VDW>
-15.5656

>  <SCORE.INTER.norm>
-0.234958

>  <SCORE.INTRA>
-0.206642

>  <SCORE.INTRA.DIHEDRAL>
1.06293

>  <SCORE.INTRA.DIHEDRAL.0>
4.28829

>  <SCORE.INTRA.POLAR>
0

>  <SCORE.INTRA.POLAR.0>
0

>  <SCORE.INTRA.REPUL>
0

>  <SCORE.INTRA.REPUL.0>
0

>  <SCORE.INTRA.SOLV>
-0.606291

>  <SCORE.INTRA.SOLV.lig_0>
-48.6018

>  <SCORE.INTRA.VDW>
-0.434959

>  <SCORE.INTRA.VDW.0>
-2.1506

>  <SCORE.INTRA.norm>
-0.00765339

>  <SCORE.RESTR>
0

>  <SCORE.RESTR.CAVITY>
0

>  <SCORE.RESTR.norm>
0

>  <SCORE.SYSTEM>
0

>  <SCORE.SYSTEM.CONST>
0

>  <SCORE.SYSTEM.DIHEDRAL>
0

>  <SCORE.SYSTEM.SOLV>
0

>  <SCORE.SYSTEM.norm>
0

>  <SCORE.heavy>
27

>  <SCORE.norm>
-0.242611

>  <RMSD>
14.849

$$$$
ligand
 OpenBabel11021811483D
libRbt.so/2013.1/901 2013/11/27
 27 29  0  0  0  0  0  0  0  0999 V2000
   13.6881   -7.4468   18.2260 N   0  0  0  0  0  0  0  0  0  0  0  0
   13.8290   -7.2695   19.6726 C   0  0  2  0  0  0  0  0  0  0  0  0
   15.2547   -7.0333   20.1770 C   0  0  0  0  0  0  0  0  0  0  0  0
   16.1797   -7.6485   19.6484 O   0  0  0  0  0  0  0  0  0  0  0  0
   13.1794   -8.4176   20.4266 C   0  0  0  0  0  0  0  0  0  0  0  0
   11.7059   -8.1537   20.6845 C   0  0  0  0  0  0  0  0  0  0  0  0
   11.4976   -6.8555   21.9159 S   0  0  2  0  0  0  0  0  0  0  0  0
   12.0217   -7.7429   23.3981 C   0  0  0  0  0  0  0  0  0  0  0  0
    9.7058   -6.9082   22.1509 C   0  0  0  0  0  0  0  0  0  0  0  0
    9.2856   -6.0249   23.3112 C   0  0  1  0  0  0  0  0  0  0  0  0
    9.5375   -4.6693   23.0197 O   0  0  0  0  0  0  0  0  0  0  0  0
    7.7983   -6.0979   23.5957 C   0  0  1  0  0  0  0  0  0  0  0  0
    7.5823   -7.0816   24.5759 O   0  0  0  0  0  0  0  0  0  0  0  0
    7.4709   -4.7174   24.1278 C   0  0  1  0  0  0  0  0  0  0  0  0
    7.4167   -4.8104   25.5337 O   0  0  0  0  0  0  0  0  0  0  0  0
    8.6264   -3.8154   23.6889 C   0  0  2  0  0  0  0  0  0  0  0  0
   15.5206   -6.2552   21.0972 O   0  0  0  0  0  0  0  0  0  0  0  0
    9.9904   -0.6336   19.7603 N   0  0  0  0  0  0  0  0  0  0  0  0
   10.8007   -1.4737   20.4848 C   0  0  0  0  0  0  0  0  0  0  0  0
   10.2508   -2.2379   21.4904 N   0  0  0  0  0  0  0  0  0  0  0  0
    8.9301   -2.1767   21.7727 C   0  0  0  0  0  0  0  0  0  0  0  0
    8.0969   -1.3436   21.0405 C   0  0  0  0  0  0  0  0  0  0  0  0
    8.6399   -0.5566   20.0270 C   0  0  0  0  0  0  0  0  0  0  0  0
    7.8731    0.2614   19.3057 N   0  0  0  0  0  0  0  0  0  0  0  0
    6.8357   -1.4848   21.5240 N   0  0  0  0  0  0  0  0  0  0  0  0
    6.8656   -2.3955   22.5243 C   0  0  0  0  0  0  0  0  0  0  0  0
    8.1549   -2.8393   22.6864 N   0  0  0  0  0  0  0  0  0  0  0  0
  2  1  1  6  0  0  0
  2  3  1  0  0  0  0
  2  5  1  0  0  0  0
  3  4  1  0  0  0  0
  3 17  1  0  0  0  0
  5  6  1  0  0  0  0
  7  6  1  6  0  0  0
  7  8  1  0  0  0  0
  7  9  1  0  0  0  0
 10  9  1  6  0  0  0
 10 11  1  0  0  0  0
 10 12  1  0  0  0  0
 11 16  1  0  0  0  0
 12 13  1  1  0  0  0
 12 14  1  0  0  0  0
 14 15  1  1  0  0  0
 14 16  1  0  0  0  0
 16 27  1  6  0  0  0
 18 19  2  0  0  0  0
 18 23  1  0  0  0  0
 19 20  1  0  0  0  0
 20 21  2  0  0  0  0
 21 22  1  0  0  0  0
 21 27  1  0  0  0  0
 22 23  2  0  0  0  0
 22 25  1  0  0  0  0
 23 24  1  0  0  0  0
 25 26  2  0  0  0  0
 26 27  1  0  0  0  0
M  END
>  <CHROM.1>
-38.06477701,-87.62050305,-70.81571049,-71.72793687,171.75967580,65.84605501
-44.07463910,10.36322712,-4.86168586,21.74701278,-0.45880677,0.59453761,-0.54857493

>  <Name>
ligand

>  <RI>
0

>  <Rbt.Current_Directory>
/home/itssahil/PROJECTS/Mol_Feturizer/New_Systems/rnas/3GX5

>  <Rbt.Executable>
rbdock ($Id: //depot/dev/client3/rdock/2013.1/src/exe/rbdock.cxx#4 $)

>  <Rbt.Library>
libRbt.so (2013.1, Build901 2013/11/27)

>  <Rbt.Parameter_File>
/export/apps/rDock/src/rDock_2013.1_src/data/scripts/dock_solv.prm

>  <Rbt.Receptor>
prm/blind_docking_40.prm

>  <SCORE>
-12.3658

>  <SCORE.INTER>
-13.1782

>  <SCORE.INTER.CONST>
1

>  <SCORE.INTER.POLAR>
0

>  <SCORE.INTER.ROT>
7

>  <SCORE.INTER.SOLV>
9.20376

>  <SCORE.INTER.VDW>
-20.12

>  <SCORE.INTER.norm>
-0.488081

>  <SCORE.INTRA>
0.812425

>  <SCORE.INTRA.DIHEDRAL>
2.10638

>  <SCORE.INTRA.DIHEDRAL.0>
4.28829

>  <SCORE.INTRA.POLAR>
0

>  <SCORE.INTRA.POLAR.0>
0

>  <SCORE.INTRA.REPUL>
0

>  <SCORE.INTRA.REPUL.0>
0

>  <SCORE.INTRA.SOLV>
-0.545615

>  <SCORE.INTRA.SOLV.lig_0>
-48.6018

>  <SCORE.INTRA.VDW>
0.0320446

>  <SCORE.INTRA.VDW.0>
-2.1506

>  <SCORE.INTRA.norm>
0.0300898

>  <SCORE.RESTR>
0

>  <SCORE.RESTR.CAVITY>
0

>  <SCORE.RESTR.norm>
0

>  <SCORE.SYSTEM>
0

>  <SCORE.SYSTEM.CONST>
0

>  <SCORE.SYSTEM.DIHEDRAL>
0

>  <SCORE.SYSTEM.SOLV>
0

>  <SCORE.SYSTEM.norm>
0

>  <SCORE.heavy>
27

>  <SCORE.norm>
-0.457991

>  <RMSD>
14.852

$$$$
ligand
 OpenBabel11021811483D
libRbt.so/2013.1/901 2013/11/27
 27 29  0  0  0  0  0  0  0  0999 V2000
    7.7724  -11.5829   17.3563 N   0  0  0  0  0  0  0  0  0  0  0  0
    6.7659  -10.8746   18.1495 C   0  0  2  0  0  0  0  0  0  0  0  0
    5.5130  -10.4315   17.3900 C   0  0  0  0  0  0  0  0  0  0  0  0
    5.6077  -10.1722   16.1911 O   0  0  0  0  0  0  0  0  0  0  0  0
    7.3846   -9.7006   18.8895 C   0  0  0  0  0  0  0  0  0  0  0  0
    8.3274  -10.1656   19.9860 C   0  0  0  0  0  0  0  0  0  0  0  0
    9.1954   -8.7657   20.7153 S   0  0  2  0  0  0  0  0  0  0  0  0
   10.0622   -9.6012   22.0606 C   0  0  0  0  0  0  0  0  0  0  0  0
    7.8536   -7.9978   21.6526 C   0  0  0  0  0  0  0  0  0  0  0  0
    8.3893   -6.9316   22.5903 C   0  0  1  0  0  0  0  0  0  0  0  0
    9.0107   -5.8970   21.8626 O   0  0  0  0  0  0  0  0  0  0  0  0
    7.2962   -6.2504   23.3900 C   0  0  1  0  0  0  0  0  0  0  0  0
    7.1591   -6.9232   24.6162 O   0  0  0  0  0  0  0  0  0  0  0  0
    7.8292   -4.8468   23.5952 C   0  0  1  0  0  0  0  0  0  0  0  0
    8.3709   -4.7886   24.8956 O   0  0  0  0  0  0  0  0  0  0  0  0
    8.9243   -4.6576   22.5434 C   0  0  2  0  0  0  0  0  0  0  0  0
    4.4082  -10.3163   17.9275 O   0  0  0  0  0  0  0  0  0  0  0  0
   10.2753   -0.3847   19.8349 N   0  0  0  0  0  0  0  0  0  0  0  0
   11.0394   -1.0908   20.7320 C   0  0  0  0  0  0  0  0  0  0  0  0
   10.5013   -2.1979   21.3504 N   0  0  0  0  0  0  0  0  0  0  0  0
    9.2380   -2.6010   21.0870 C   0  0  0  0  0  0  0  0  0  0  0  0
    8.4590   -1.9064   20.1730 C   0  0  0  0  0  0  0  0  0  0  0  0
    8.9857   -0.7785   19.5471 C   0  0  0  0  0  0  0  0  0  0  0  0
    8.2662   -0.0806   18.6680 N   0  0  0  0  0  0  0  0  0  0  0  0
    7.2533   -2.5263   20.0959 N   0  0  0  0  0  0  0  0  0  0  0  0
    7.2731   -3.5949   20.9256 C   0  0  0  0  0  0  0  0  0  0  0  0
    8.4984   -3.6596   21.5421 N   0  0  0  0  0  0  0  0  0  0  0  0
  2  1  1  6  0  0  0
  2  3  1  0  0  0  0
  2  5  1  0  0  0  0
  3  4  1  0  0  0  0
  3 17  1  0  0  0  0
  5  6  1  0  0  0  0
  7  6  1  6  0  0  0
  7  8  1  0  0  0  0
  7  9  1  0  0  0  0
 10  9  1  6  0  0  0
 10 11  1  0  0  0  0
 10 12  1  0  0  0  0
 11 16  1  0  0  0  0
 12 13  1  1  0  0  0
 12 14  1  0  0  0  0
 14 15  1  1  0  0  0
 14 16  1  0  0  0  0
 16 27  1  6  0  0  0
 18 19  2  0  0  0  0
 18 23  1  0  0  0  0
 19 20  1  0  0  0  0
 20 21  2  0  0  0  0
 21 22  1  0  0  0  0
 21 27  1  0  0  0  0
 22 23  2  0  0  0  0
 22 25  1  0  0  0  0
 23 24  1  0  0  0  0
 25 26  2  0  0  0  0
 26 27  1  0  0  0  0
M  END
>  <CHROM.1>
-29.41739487,-68.71768001,173.23787802,174.03389402,168.84041713,62.12163808
-114.14084553,8.15339956,-6.13242821,20.67884091,2.51435856,1.26164944,2.50131290

>  <Name>
ligand

>  <RI>
0

>  <Rbt.Current_Directory>
/home/itssahil/PROJECTS/Mol_Feturizer/New_Systems/rnas/3GX5

>  <Rbt.Executable>
rbdock ($Id: //depot/dev/client3/rdock/2013.1/src/exe/rbdock.cxx#4 $)

>  <Rbt.Library>
libRbt.so (2013.1, Build901 2013/11/27)

>  <Rbt.Parameter_File>
/export/apps/rDock/src/rDock_2013.1_src/data/scripts/dock_solv.prm

>  <Rbt.Receptor>
prm/blind_docking_100.prm

>  <SCORE>
-11.8531

>  <SCORE.INTER>
-11.4269

>  <SCORE.INTER.CONST>
1

>  <SCORE.INTER.POLAR>
0

>  <SCORE.INTER.ROT>
7

>  <SCORE.INTER.SOLV>
7.39264

>  <SCORE.INTER.VDW>
-18.3488

>  <SCORE.INTER.norm>
-0.423218

>  <SCORE.INTRA>
-0.426244

>  <SCORE.INTRA.DIHEDRAL>
-0.279442

>  <SCORE.INTRA.DIHEDRAL.0>
4.28829

>  <SCORE.INTRA.POLAR>
0

>  <SCORE.INTRA.POLAR.0>
0

>  <SCORE.INTRA.REPUL>
0

>  <SCORE.INTRA.REPUL.0>
0

>  <SCORE.INTRA.SOLV>
-0.679823

>  <SCORE.INTRA.SOLV.lig_0>
-48.6018

>  <SCORE.INTRA.VDW>
0.0533887

>  <SCORE.INTRA.VDW.0>
-2.1506

>  <SCORE.INTRA.norm>
-0.0157868

>  <SCORE.RESTR>
0

>  <SCORE.RESTR.CAVITY>
0

>  <SCORE.RESTR.norm>
0

>  <SCORE.SYSTEM>
0

>  <SCORE.SYSTEM.CONST>
0

>  <SCORE.SYSTEM.DIHEDRAL>
0

>  <SCORE.SYSTEM.SOLV>
0

>  <SCORE.SYSTEM.norm>
0

>  <SCORE.heavy>
27

>  <SCORE.norm>
-0.439005

>  <RMSD>
14.872

$$$$
ligand
 OpenBabel11021811483D
libRbt.so/2013.1/901 2013/11/27
 27 29  0  0  0  0  0  0  0  0999 V2000
   12.2309   -9.8656   17.7769 N   0  0  0  0  0  0  0  0  0  0  0  0
   12.1792   -8.4304   18.0622 C   0  0  2  0  0  0  0  0  0  0  0  0
   12.1082   -7.5123   16.8396 C   0  0  0  0  0  0  0  0  0  0  0  0
   13.1577   -7.1415   16.3154 O   0  0  0  0  0  0  0  0  0  0  0  0
   13.3213   -8.0164   18.9750 C   0  0  0  0  0  0  0  0  0  0  0  0
   13.1800   -8.6272   20.3587 C   0  0  0  0  0  0  0  0  0  0  0  0
   11.7081   -7.9980   21.1850 S   0  0  2  0  0  0  0  0  0  0  0  0
   11.9290   -8.7319   22.8196 C   0  0  0  0  0  0  0  0  0  0  0  0
   10.4530   -9.1165   20.5197 C   0  0  0  0  0  0  0  0  0  0  0  0
    9.0567   -8.6031   20.8194 C   0  0  1  0  0  0  0  0  0  0  0  0
    8.8535   -8.5002   22.2102 O   0  0  0  0  0  0  0  0  0  0  0  0
    8.8168   -7.2064   20.2810 C   0  0  1  0  0  0  0  0  0  0  0  0
    8.2446   -7.3166   19.0021 O   0  0  0  0  0  0  0  0  0  0  0  0
    7.8341   -6.6097   21.2680 C   0  0  1  0  0  0  0  0  0  0  0  0
    6.5504   -6.7032   20.6923 O   0  0  0  0  0  0  0  0  0  0  0  0
    7.9276   -7.4756   22.5262 C   0  0  2  0  0  0  0  0  0  0  0  0
   11.0429   -7.1201   16.3559 O   0  0  0  0  0  0  0  0  0  0  0  0
    9.0356   -2.7009   24.3683 N   0  0  0  0  0  0  0  0  0  0  0  0
    8.3883   -3.0247   23.2007 C   0  0  0  0  0  0  0  0  0  0  0  0
    8.1905   -4.3512   22.8860 N   0  0  0  0  0  0  0  0  0  0  0  0
    8.6193   -5.3361   23.7067 C   0  0  0  0  0  0  0  0  0  0  0  0
    9.2622   -5.0245   24.8959 C   0  0  0  0  0  0  0  0  0  0  0  0
    9.4789   -3.6876   25.2232 C   0  0  0  0  0  0  0  0  0  0  0  0
   10.0988   -3.3480   26.3537 N   0  0  0  0  0  0  0  0  0  0  0  0
    9.5725   -6.1897   25.5205 N   0  0  0  0  0  0  0  0  0  0  0  0
    9.1235   -7.2120   24.7563 C   0  0  0  0  0  0  0  0  0  0  0  0
    8.5239   -6.7000   23.6321 N   0  0  0  0  0  0  0  0  0  0  0  0
  2  1  1  6  0  0  0
  2  3  1  0  0  0  0
  2  5  1  0  0  0  0
  3  4  1  0  0  0  0
  3 17  1  0  0  0  0
  5  6  1  0  0  0  0
  7  6  1  6  0  0  0
  7  8  1  0  0  0  0
  7  9  1  0  0  0  0
 10  9  1  1  0  0  0
 10 11  1  0  0  0  0
 10 12  1  0  0  0  0
 11 16  1  0  0  0  0
 12 13  1  6  0  0  0
 12 14  1  0  0  0  0
 14 15  1  6  0  0  0
 14 16  1  0  0  0  0
 16 27  1  1  0  0  0
 18 19  2  0  0  0  0
 18 23  1  0  0  0  0
 19 20  1  0  0  0  0
 20 21  2  0  0  0  0
 21 22  1  0  0  0  0
 21 27  1  0  0  0  0
 22 23  2  0  0  0  0
 22 25  1  0  0  0  0
 23 24  1  0  0  0  0
 25 26  2  0  0  0  0
 26 27  1  0  0  0  0
M  END
>  <CHROM.1>
-88.06906769,-66.60253682,-64.58541109,-173.57142642,-167.13298635,-60.24530490
132.22992079,10.05956077,-6.87236092,21.38681247,-1.14006702,-0.36585166
1.24296517

>  <Name>
ligand

>  <RI>
0

>  <Rbt.Current_Directory>
/home/itssahil/PROJECTS/Mol_Feturizer/New_Systems/rnas/3GX5

>  <Rbt.Executable>
rbdock ($Id: //depot/dev/client3/rdock/2013.1/src/exe/rbdock.cxx#4 $)

>  <Rbt.Library>
libRbt.so (2013.1, Build901 2013/11/27)

>  <Rbt.Parameter_File>
/export/apps/rDock/src/rDock_2013.1_src/data/scripts/dock_solv.prm

>  <Rbt.Receptor>
prm/blind_docking_60.prm

>  <SCORE>
-5.76442

>  <SCORE.INTER>
-7.02097

>  <SCORE.INTER.CONST>
1

>  <SCORE.INTER.POLAR>
0

>  <SCORE.INTER.ROT>
7

>  <SCORE.INTER.SOLV>
9.36119

>  <SCORE.INTER.VDW>
-16.0677

>  <SCORE.INTER.norm>
-0.260036

>  <SCORE.INTRA>
1.25655

>  <SCORE.INTRA.DIHEDRAL>
1.40171

>  <SCORE.INTRA.DIHEDRAL.0>
4.28829

>  <SCORE.INTRA.POLAR>
0

>  <SCORE.INTRA.POLAR.0>
0

>  <SCORE.INTRA.REPUL>
0

>  <SCORE.INTRA.REPUL.0>
0

>  <SCORE.INTRA.SOLV>
1.2704

>  <SCORE.INTRA.SOLV.lig_0>
-48.6018

>  <SCORE.INTRA.VDW>
-0.0795006

>  <SCORE.INTRA.VDW.0>
-2.1506

>  <SCORE.INTRA.norm>
0.0465389

>  <SCORE.RESTR>
0

>  <SCORE.RESTR.CAVITY>
0

>  <SCORE.RESTR.norm>
0

>  <SCORE.SYSTEM>
0

>  <SCORE.SYSTEM.CONST>
0

>  <SCORE.SYSTEM.DIHEDRAL>
0

>  <SCORE.SYSTEM.SOLV>
0

>  <SCORE.SYSTEM.norm>
0

>  <SCORE.heavy>
27

>  <SCORE.norm>
-0.213497

>  <RMSD>
14.886

$$$$
ligand
 OpenBabel11021811483D
libRbt.so/2013.1/901 2013/11/27
 27 29  0  0  0  0  0  0  0  0999 V2000
    8.8678   -0.2139   21.9374 N   0  0  0  0  0  0  0  0  0  0  0  0
    9.3029   -0.9159   20.7284 C   0  0  2  0  0  0  0  0  0  0  0  0
    8.9740   -0.2233   19.4036 C   0  0  0  0  0  0  0  0  0  0  0  0
    8.1472    0.6877   19.4006 O   0  0  0  0  0  0  0  0  0  0  0  0
    8.7985   -2.3492   20.7210 C   0  0  0  0  0  0  0  0  0  0  0  0
    9.3750   -3.1502   21.8757 C   0  0  0  0  0  0  0  0  0  0  0  0
    9.0673   -4.9102   21.6459 S   0  0  2  0  0  0  0  0  0  0  0  0
    7.3365   -4.9941   22.1522 C   0  0  0  0  0  0  0  0  0  0  0  0
    9.8490   -5.5784   23.1329 C   0  0  0  0  0  0  0  0  0  0  0  0
   10.0512   -7.0776   23.0112 C   0  0  1  0  0  0  0  0  0  0  0  0
    8.8160   -7.7323   22.8327 O   0  0  0  0  0  0  0  0  0  0  0  0
   10.8801   -7.4617   21.8014 C   0  0  1  0  0  0  0  0  0  0  0  0
   12.2258   -7.5518   22.1966 O   0  0  0  0  0  0  0  0  0  0  0  0
   10.3337   -8.8209   21.4142 C   0  0  1  0  0  0  0  0  0  0  0  0
   11.2191   -9.7915   21.9260 O   0  0  0  0  0  0  0  0  0  0  0  0
    8.9641   -8.9283   22.0879 C   0  0  2  0  0  0  0  0  0  0  0  0
    9.4976   -0.5409   18.3323 O   0  0  0  0  0  0  0  0  0  0  0  0
    7.1219  -11.1568   17.7223 N   0  0  0  0  0  0  0  0  0  0  0  0
    8.2380  -11.5084   18.4420 C   0  0  0  0  0  0  0  0  0  0  0  0
    8.5627  -10.7929   19.5735 N   0  0  0  0  0  0  0  0  0  0  0  0
    7.8011   -9.7554   19.9873 C   0  0  0  0  0  0  0  0  0  0  0  0
    6.6634   -9.3974   19.2788 C   0  0  0  0  0  0  0  0  0  0  0  0
    6.3275  -10.1049   18.1265 C   0  0  0  0  0  0  0  0  0  0  0  0
    5.2458   -9.7870   17.4149 N   0  0  0  0  0  0  0  0  0  0  0  0
    6.0911   -8.3421   19.9137 N   0  0  0  0  0  0  0  0  0  0  0  0
    6.8363   -8.0498   21.0045 C   0  0  0  0  0  0  0  0  0  0  0  0
    7.8958   -8.9209   21.0686 N   0  0  0  0  0  0  0  0  0  0  0  0
  2  1  1  1  0  0  0
  2  3  1  0  0  0  0
  2  5  1  0  0  0  0
  3  4  1  0  0  0  0
  3 17  1  0  0  0  0
  5  6  1  0  0  0  0
  7  6  1  1  0  0  0
  7  8  1  0  0  0  0
  7  9  1  0  0  0  0
 10  9  1  6  0  0  0
 10 11  1  0  0  0  0
 10 12  1  0  0  0  0
 11 16  1  0  0  0  0
 12 13  1  1  0  0  0
 12 14  1  0  0  0  0
 14 15  1  1  0  0  0
 14 16  1  0  0  0  0
 16 27  1  6  0  0  0
 18 19  2  0  0  0  0
 18 23  1  0  0  0  0
 19 20  1  0  0  0  0
 20 21  2  0  0  0  0
 21 22  1  0  0  0  0
 21 27  1  0  0  0  0
 22 23  2  0  0  0  0
 22 25  1  0  0  0  0
 23 24  1  0  0  0  0
 25 26  2  0  0  0  0
 26 27  1  0  0  0  0
M  END
>  <CHROM.1>
-15.29239137,-63.04433286,-167.39673958,-78.26273398,-165.07698249,-60.00198464
167.61982880,8.68206701,-6.39734727,20.71704971,-1.39236534,0.82545250,3.10038270

>  <Name>
ligand

>  <RI>
0

>  <Rbt.Current_Directory>
/home/itssahil/PROJECTS/Mol_Feturizer/New_Systems/rnas/3GX5

>  <Rbt.Executable>
rbdock ($Id: //depot/dev/client3/rdock/2013.1/src/exe/rbdock.cxx#4 $)

>  <Rbt.Library>
libRbt.so (2013.1, Build901 2013/11/27)

>  <Rbt.Parameter_File>
/export/apps/rDock/src/rDock_2013.1_src/data/scripts/dock_solv.prm

>  <Rbt.Receptor>
prm/blind_docking_100.prm

>  <SCORE>
-8.72414

>  <SCORE.INTER>
-9.00625

>  <SCORE.INTER.CONST>
1

>  <SCORE.INTER.POLAR>
0

>  <SCORE.INTER.ROT>
7

>  <SCORE.INTER.SOLV>
7.25152

>  <SCORE.INTER.VDW>
-16.688

>  <SCORE.INTER.norm>
-0.333565

>  <SCORE.INTRA>
0.282111

>  <SCORE.INTRA.DIHEDRAL>
1.52562

>  <SCORE.INTRA.DIHEDRAL.0>
4.28829

>  <SCORE.INTRA.POLAR>
0

>  <SCORE.INTRA.POLAR.0>
0

>  <SCORE.INTRA.REPUL>
0

>  <SCORE.INTRA.REPUL.0>
0

>  <SCORE.INTRA.SOLV>
-0.360509

>  <SCORE.INTRA.SOLV.lig_0>
-48.6018

>  <SCORE.INTRA.VDW>
-0.300447

>  <SCORE.INTRA.VDW.0>
-2.1506

>  <SCORE.INTRA.norm>
0.0104485

>  <SCORE.RESTR>
0

>  <SCORE.RESTR.CAVITY>
0

>  <SCORE.RESTR.norm>
0

>  <SCORE.SYSTEM>
0

>  <SCORE.SYSTEM.CONST>
0

>  <SCORE.SYSTEM.DIHEDRAL>
0

>  <SCORE.SYSTEM.SOLV>
0

>  <SCORE.SYSTEM.norm>
0

>  <SCORE.heavy>
27

>  <SCORE.norm>
-0.323116

>  <RMSD>
14.890

$$$$
ligand
 OpenBabel11021811483D
libRbt.so/2013.1/901 2013/11/27
 27 29  0  0  0  0  0  0  0  0999 V2000
    8.6538   -7.5894   21.3246 N   0  0  0  0  0  0  0  0  0  0  0  0
    7.2082   -7.3596   21.3593 C   0  0  2  0  0  0  0  0  0  0  0  0
    6.4258   -7.8666   20.1453 C   0  0  0  0  0  0  0  0  0  0  0  0
    5.3693   -8.4692   20.3309 O   0  0  0  0  0  0  0  0  0  0  0  0
    6.8968   -5.8957   21.6216 C   0  0  0  0  0  0  0  0  0  0  0  0
    5.4057   -5.6646   21.7971 C   0  0  0  0  0  0  0  0  0  0  0  0
    5.0843   -3.9855   22.3650 S   0  0  2  0  0  0  0  0  0  0  0  0
    3.2837   -3.9516   22.2386 C   0  0  0  0  0  0  0  0  0  0  0  0
    5.5084   -3.0479   20.8785 C   0  0  0  0  0  0  0  0  0  0  0  0
    6.9647   -2.6218   20.9043 C   0  0  1  0  0  0  0  0  0  0  0  0
    7.4485   -2.4275   19.5950 O   0  0  0  0  0  0  0  0  0  0  0  0
    7.1753   -1.2935   21.6041 C   0  0  1  0  0  0  0  0  0  0  0  0
    7.4718   -1.5460   22.9544 O   0  0  0  0  0  0  0  0  0  0  0  0
    8.3699   -0.6996   20.8857 C   0  0  1  0  0  0  0  0  0  0  0  0
    9.5041   -0.9358   21.6893 O   0  0  0  0  0  0  0  0  0  0  0  0
    8.4787   -1.4558   19.5598 C   0  0  2  0  0  0  0  0  0  0  0  0
    6.8094   -7.7035   18.9839 O   0  0  0  0  0  0  0  0  0  0  0  0
    4.7773    1.3902   17.1896 N   0  0  0  0  0  0  0  0  0  0  0  0
    4.6614    0.6443   18.3374 C   0  0  0  0  0  0  0  0  0  0  0  0
    5.7588   -0.0428   18.8077 N   0  0  0  0  0  0  0  0  0  0  0  0
    6.9451    0.0076   18.1614 C   0  0  0  0  0  0  0  0  0  0  0  0
    7.0813    0.7677   17.0089 C   0  0  0  0  0  0  0  0  0  0  0  0
    5.9776    1.4601   16.5150 C   0  0  0  0  0  0  0  0  0  0  0  0
    6.0668    2.1960   15.4067 N   0  0  0  0  0  0  0  0  0  0  0  0
    8.3635    0.6469   16.5782 N   0  0  0  0  0  0  0  0  0  0  0  0
    9.0267   -0.1544   17.4435 C   0  0  0  0  0  0  0  0  0  0  0  0
    8.1639   -0.5534   18.4344 N   0  0  0  0  0  0  0  0  0  0  0  0
  2  1  1  6  0  0  0
  2  3  1  0  0  0  0
  2  5  1  0  0  0  0
  3  4  1  0  0  0  0
  3 17  1  0  0  0  0
  5  6  1  0  0  0  0
  7  6  1  6  0  0  0
  7  8  1  0  0  0  0
  7  9  1  0  0  0  0
 10  9  1  6  0  0  0
 10 11  1  0  0  0  0
 10 12  1  0  0  0  0
 11 16  1  0  0  0  0
 12 13  1  1  0  0  0
 12 14  1  0  0  0  0
 14 15  1  1  0  0  0
 14 16  1  0  0  0  0
 16 27  1  6  0  0  0
 18 19  2  0  0  0  0
 18 23  1  0  0  0  0
 19 20  1  0  0  0  0
 20 21  2  0  0  0  0
 21 22  1  0  0  0  0
 21 27  1  0  0  0  0
 22 23  2  0  0  0  0
 22 25  1  0  0  0  0
 23 24  1  0  0  0  0
 25 26  2  0  0  0  0
 26 27  1  0  0  0  0
M  END
>  <CHROM.1>
135.74765155,-174.37222417,170.92558539,172.06568843,-91.92012723,154.66243485
46.80557467,6.69161945,-2.61636214,19.90332325,2.47047637,1.48305570,1.77853983

>  <Name>
ligand

>  <RI>
0

>  <Rbt.Current_Directory>
/home/itssahil/PROJECTS/Mol_Feturizer/New_Systems/rnas/3GX5

>  <Rbt.Executable>
rbdock ($Id: //depot/dev/client3/rdock/2013.1/src/exe/rbdock.cxx#4 $)

>  <Rbt.Library>
libRbt.so (2013.1, Build901 2013/11/27)

>  <Rbt.Parameter_File>
/export/apps/rDock/src/rDock_2013.1_src/data/scripts/dock_solv.prm

>  <Rbt.Receptor>
prm/blind_docking_60.prm

>  <SCORE>
-7.13071

>  <SCORE.INTER>
-7.09837

>  <SCORE.INTER.CONST>
1

>  <SCORE.INTER.POLAR>
0

>  <SCORE.INTER.ROT>
7

>  <SCORE.INTER.SOLV>
5.48894

>  <SCORE.INTER.VDW>
-14.8286

>  <SCORE.INTER.norm>
-0.262903

>  <SCORE.INTRA>
-0.0323417

>  <SCORE.INTRA.DIHEDRAL>
2.95609

>  <SCORE.INTRA.DIHEDRAL.0>
4.28829

>  <SCORE.INTRA.POLAR>
0

>  <SCORE.INTRA.POLAR.0>
0

>  <SCORE.INTRA.REPUL>
0

>  <SCORE.INTRA.REPUL.0>
0

>  <SCORE.INTRA.SOLV>
-1.13223

>  <SCORE.INTRA.SOLV.lig_0>
-48.6018

>  <SCORE.INTRA.VDW>
-0.944269

>  <SCORE.INTRA.VDW.0>
-2.1506

>  <SCORE.INTRA.norm>
-0.00119784

>  <SCORE.RESTR>
0

>  <SCORE.RESTR.CAVITY>
0

>  <SCORE.RESTR.norm>
0

>  <SCORE.SYSTEM>
0

>  <SCORE.SYSTEM.CONST>
0

>  <SCORE.SYSTEM.DIHEDRAL>
0

>  <SCORE.SYSTEM.SOLV>
0

>  <SCORE.SYSTEM.norm>
0

>  <SCORE.heavy>
27

>  <SCORE.norm>
-0.2641

>  <RMSD>
14.920

$$$$
ligand
 OpenBabel11021811483D
libRbt.so/2013.1/901 2013/11/27
 27 29  0  0  0  0  0  0  0  0999 V2000
   14.3956   -7.4992   18.6260 N   0  0  0  0  0  0  0  0  0  0  0  0
   13.4239   -8.2725   19.4016 C   0  0  2  0  0  0  0  0  0  0  0  0
   12.1870   -8.7456   18.6341 C   0  0  0  0  0  0  0  0  0  0  0  0
   11.7015   -8.0060   17.7791 O   0  0  0  0  0  0  0  0  0  0  0  0
   13.0173   -7.5267   20.6615 C   0  0  0  0  0  0  0  0  0  0  0  0
   12.2531   -8.4241   21.6197 C   0  0  0  0  0  0  0  0  0  0  0  0
   11.6976   -7.4927   23.0582 S   0  0  2  0  0  0  0  0  0  0  0  0
   10.8907   -8.8104   23.9918 C   0  0  0  0  0  0  0  0  0  0  0  0
   10.2393   -6.6705   22.3756 C   0  0  0  0  0  0  0  0  0  0  0  0
    9.4789   -5.9288   23.4594 C   0  0  1  0  0  0  0  0  0  0  0  0
    9.5801   -4.5357   23.2722 O   0  0  0  0  0  0  0  0  0  0  0  0
    7.9918   -6.2229   23.4391 C   0  0  1  0  0  0  0  0  0  0  0  0
    7.7384   -7.2873   24.3211 O   0  0  0  0  0  0  0  0  0  0  0  0
    7.3691   -4.9369   23.9438 C   0  0  1  0  0  0  0  0  0  0  0  0
    7.0600   -5.1258   25.3065 O   0  0  0  0  0  0  0  0  0  0  0  0
    8.4421   -3.8590   23.7762 C   0  0  2  0  0  0  0  0  0  0  0  0
   11.6480   -9.8369   18.8373 O   0  0  0  0  0  0  0  0  0  0  0  0
   10.0435   -0.7496   19.8794 N   0  0  0  0  0  0  0  0  0  0  0  0
   10.8062   -1.5847   20.6593 C   0  0  0  0  0  0  0  0  0  0  0  0
   10.1963   -2.3288   21.6451 N   0  0  0  0  0  0  0  0  0  0  0  0
    8.8629   -2.2528   21.8547 C   0  0  0  0  0  0  0  0  0  0  0  0
    8.0776   -1.4246   21.0660 C   0  0  0  0  0  0  0  0  0  0  0  0
    8.6814   -0.6578   20.0716 C   0  0  0  0  0  0  0  0  0  0  0  0
    7.9617    0.1549   19.2976 N   0  0  0  0  0  0  0  0  0  0  0  0
    6.7911   -1.5483   21.4828 N   0  0  0  0  0  0  0  0  0  0  0  0
    6.7591   -2.4435   22.4969 C   0  0  0  0  0  0  0  0  0  0  0  0
    8.0339   -2.8950   22.7351 N   0  0  0  0  0  0  0  0  0  0  0  0
  2  1  1  6  0  0  0
  2  3  1  0  0  0  0
  2  5  1  0  0  0  0
  3  4  1  0  0  0  0
  3 17  1  0  0  0  0
  5  6  1  0  0  0  0
  7  6  1  6  0  0  0
  7  8  1  0  0  0  0
  7  9  1  0  0  0  0
 10  9  1  6  0  0  0
 10 11  1  0  0  0  0
 10 12  1  0  0  0  0
 11 16  1  0  0  0  0
 12 13  1  1  0  0  0
 12 14  1  0  0  0  0
 14 15  1  1  0  0  0
 14 16  1  0  0  0  0
 16 27  1  6  0  0  0
 18 19  2  0  0  0  0
 18 23  1  0  0  0  0
 19 20  1  0  0  0  0
 20 21  2  0  0  0  0
 21 22  1  0  0  0  0
 21 27  1  0  0  0  0
 22 23  2  0  0  0  0
 22 25  1  0  0  0  0
 23 24  1  0  0  0  0
 25 26  2  0  0  0  0
 26 27  1  0  0  0  0
M  END
>  <CHROM.1>
-36.76015637,-167.70756419,-176.60456408,-178.54701472,173.39004401,111.19099608
-31.52581207,9.93389378,-5.22772599,21.70850355,-0.59932818,0.86132709,-0.61476150

>  <Name>
ligand

>  <RI>
0

>  <Rbt.Current_Directory>
/home/itssahil/PROJECTS/Mol_Feturizer/New_Systems/rnas/3GX5

>  <Rbt.Executable>
rbdock ($Id: //depot/dev/client3/rdock/2013.1/src/exe/rbdock.cxx#4 $)

>  <Rbt.Library>
libRbt.so (2013.1, Build901 2013/11/27)

>  <Rbt.Parameter_File>
/export/apps/rDock/src/rDock_2013.1_src/data/scripts/dock_solv.prm

>  <Rbt.Receptor>
prm/blind_docking_60.prm

>  <SCORE>
-10.8173

>  <SCORE.INTER>
-12.7189

>  <SCORE.INTER.CONST>
1

>  <SCORE.INTER.POLAR>
0

>  <SCORE.INTER.ROT>
7

>  <SCORE.INTER.SOLV>
7.63851

>  <SCORE.INTER.VDW>
-19.2921

>  <SCORE.INTER.norm>
-0.471069

>  <SCORE.INTRA>
1.90159

>  <SCORE.INTRA.DIHEDRAL>
4.92275

>  <SCORE.INTRA.DIHEDRAL.0>
4.28829

>  <SCORE.INTRA.POLAR>
0

>  <SCORE.INTRA.POLAR.0>
0

>  <SCORE.INTRA.REPUL>
0

>  <SCORE.INTRA.REPUL.0>
0

>  <SCORE.INTRA.SOLV>
-1.14237

>  <SCORE.INTRA.SOLV.lig_0>
-48.6018

>  <SCORE.INTRA.VDW>
0.0113998

>  <SCORE.INTRA.VDW.0>
-2.1506

>  <SCORE.INTRA.norm>
0.0704292

>  <SCORE.RESTR>
0

>  <SCORE.RESTR.CAVITY>
0

>  <SCORE.RESTR.norm>
0

>  <SCORE.SYSTEM>
0

>  <SCORE.SYSTEM.CONST>
0

>  <SCORE.SYSTEM.DIHEDRAL>
0

>  <SCORE.SYSTEM.SOLV>
0

>  <SCORE.SYSTEM.norm>
0

>  <SCORE.heavy>
27

>  <SCORE.norm>
-0.40064

>  <RMSD>
14.937

$$$$
ligand
 OpenBabel11021811483D
libRbt.so/2013.1/901 2013/11/27
 27 29  0  0  0  0  0  0  0  0999 V2000
   10.3379   -6.1322   24.5307 N   0  0  0  0  0  0  0  0  0  0  0  0
   10.1146   -7.3385   23.7314 C   0  0  2  0  0  0  0  0  0  0  0  0
   10.8193   -8.6036   24.2271 C   0  0  0  0  0  0  0  0  0  0  0  0
   12.0493   -8.6324   24.2345 O   0  0  0  0  0  0  0  0  0  0  0  0
   10.4356   -7.0875   22.2676 C   0  0  0  0  0  0  0  0  0  0  0  0
    9.9604   -8.2307   21.3875 C   0  0  0  0  0  0  0  0  0  0  0  0
    8.1611   -8.2651   21.3049 S   0  0  2  0  0  0  0  0  0  0  0  0
    7.9274   -9.6186   20.1334 C   0  0  0  0  0  0  0  0  0  0  0  0
    7.8546   -6.8609   20.2081 C   0  0  0  0  0  0  0  0  0  0  0  0
    7.8798   -5.5549   20.9806 C   0  0  1  0  0  0  0  0  0  0  0  0
    8.0127   -4.4609   20.1021 O   0  0  0  0  0  0  0  0  0  0  0  0
    6.5933   -5.2974   21.7401 C   0  0  1  0  0  0  0  0  0  0  0  0
    6.7414   -5.7972   23.0451 O   0  0  0  0  0  0  0  0  0  0  0  0
    6.4807   -3.7863   21.7448 C   0  0  1  0  0  0  0  0  0  0  0  0
    6.9339   -3.3347   23.0012 O   0  0  0  0  0  0  0  0  0  0  0  0
    7.4035   -3.2948   20.6275 C   0  0  2  0  0  0  0  0  0  0  0  0
   10.2089   -9.6029   24.6164 O   0  0  0  0  0  0  0  0  0  0  0  0
    5.4088    1.0926   18.5806 N   0  0  0  0  0  0  0  0  0  0  0  0
    6.1902    0.9655   19.7033 C   0  0  0  0  0  0  0  0  0  0  0  0
    6.6204   -0.2858   20.0863 N   0  0  0  0  0  0  0  0  0  0  0  0
    6.2894   -1.3870   19.3753 C   0  0  0  0  0  0  0  0  0  0  0  0
    5.5126   -1.2730   18.2316 C   0  0  0  0  0  0  0  0  0  0  0  0
    5.0612   -0.0152   17.8371 C   0  0  0  0  0  0  0  0  0  0  0  0
    4.3072    0.1345   16.7477 N   0  0  0  0  0  0  0  0  0  0  0  0
    5.3424   -2.5180   17.7167 N   0  0  0  0  0  0  0  0  0  0  0  0
    6.0073   -3.3956   18.5031 C   0  0  0  0  0  0  0  0  0  0  0  0
    6.6056   -2.7100   19.5315 N   0  0  0  0  0  0  0  0  0  0  0  0
  2  1  1  1  0  0  0
  2  3  1  0  0  0  0
  2  5  1  0  0  0  0
  3  4  1  0  0  0  0
  3 17  1  0  0  0  0
  5  6  1  0  0  0  0
  7  6  1  6  0  0  0
  7  8  1  0  0  0  0
  7  9  1  0  0  0  0
 10  9  1  6  0  0  0
 10 11  1  0  0  0  0
 10 12  1  0  0  0  0
 11 16  1  0  0  0  0
 12 13  1  1  0  0  0
 12 14  1  0  0  0  0
 14 15  1  1  0  0  0
 14 16  1  0  0  0  0
 16 27  1  6  0  0  0
 18 19  2  0  0  0  0
 18 23  1  0  0  0  0
 19 20  1  0  0  0  0
 20 21  2  0  0  0  0
 21 22  1  0  0  0  0
 21 27  1  0  0  0  0
 22 23  2  0  0  0  0
 22 25  1  0  0  0  0
 23 24  1  0  0  0  0
 25 26  2  0  0  0  0
 26 27  1  0  0  0  0
M  END
>  <CHROM.1>
-64.06287096,-169.01922030,69.83235886,176.40224728,-82.40607603,163.74876790
-152.37547148,7.68763705,-4.78909174,20.99417141,-0.60838871,-1.00667691
0.35271786

>  <Name>
ligand

>  <RI>
0

>  <Rbt.Current_Directory>
/home/itssahil/PROJECTS/Mol_Feturizer/New_Systems/rnas/3GX5

>  <Rbt.Executable>
rbdock ($Id: //depot/dev/client3/rdock/2013.1/src/exe/rbdock.cxx#4 $)

>  <Rbt.Library>
libRbt.so (2013.1, Build901 2013/11/27)

>  <Rbt.Parameter_File>
/export/apps/rDock/src/rDock_2013.1_src/data/scripts/dock_solv.prm

>  <Rbt.Receptor>
prm/blind_docking_80.prm

>  <SCORE>
-7.00309

>  <SCORE.INTER>
-6.63589

>  <SCORE.INTER.CONST>
1

>  <SCORE.INTER.POLAR>
0

>  <SCORE.INTER.ROT>
7

>  <SCORE.INTER.SOLV>
8.75561

>  <SCORE.INTER.VDW>
-15.6091

>  <SCORE.INTER.norm>
-0.245774

>  <SCORE.INTRA>
-0.367207

>  <SCORE.INTRA.DIHEDRAL>
1.31857

>  <SCORE.INTRA.DIHEDRAL.0>
4.28829

>  <SCORE.INTRA.POLAR>
0

>  <SCORE.INTRA.POLAR.0>
0

>  <SCORE.INTRA.REPUL>
0

>  <SCORE.INTRA.REPUL.0>
0

>  <SCORE.INTRA.SOLV>
-0.215231

>  <SCORE.INTRA.SOLV.lig_0>
-48.6018

>  <SCORE.INTRA.VDW>
-0.918875

>  <SCORE.INTRA.VDW.0>
-2.1506

>  <SCORE.INTRA.norm>
-0.0136002

>  <SCORE.RESTR>
0

>  <SCORE.RESTR.CAVITY>
0

>  <SCORE.RESTR.norm>
0

>  <SCORE.SYSTEM>
0

>  <SCORE.SYSTEM.CONST>
0

>  <SCORE.SYSTEM.DIHEDRAL>
0

>  <SCORE.SYSTEM.SOLV>
0

>  <SCORE.SYSTEM.norm>
0

>  <SCORE.heavy>
27

>  <SCORE.norm>
-0.259374

>  <RMSD>
14.975

$$$$
ligand
 OpenBabel11021811483D
libRbt.so/2013.1/901 2013/11/27
 27 29  0  0  0  0  0  0  0  0999 V2000
    5.2136    3.5858   21.3165 N   0  0  0  0  0  0  0  0  0  0  0  0
    6.5530    3.7108   20.7384 C   0  0  2  0  0  0  0  0  0  0  0  0
    7.0151    5.1382   20.4357 C   0  0  0  0  0  0  0  0  0  0  0  0
    6.2773    5.8736   19.7810 O   0  0  0  0  0  0  0  0  0  0  0  0
    6.6982    2.8306   19.5083 C   0  0  0  0  0  0  0  0  0  0  0  0
    6.3905    1.3766   19.8224 C   0  0  0  0  0  0  0  0  0  0  0  0
    6.7587    0.3275   18.4050 S   0  0  2  0  0  0  0  0  0  0  0  0
    5.3987    0.7898   17.3116 C   0  0  0  0  0  0  0  0  0  0  0  0
    6.1385   -1.2624   19.0018 C   0  0  0  0  0  0  0  0  0  0  0  0
    6.9399   -1.7418   20.1980 C   0  0  1  0  0  0  0  0  0  0  0  0
    6.7379   -3.1202   20.4109 O   0  0  0  0  0  0  0  0  0  0  0  0
    8.4353   -1.5874   20.0025 C   0  0  1  0  0  0  0  0  0  0  0  0
    8.8267   -0.3480   20.5371 O   0  0  0  0  0  0  0  0  0  0  0  0
    9.0179   -2.7345   20.8030 C   0  0  1  0  0  0  0  0  0  0  0  0
    9.4510   -2.2087   22.0375 O   0  0  0  0  0  0  0  0  0  0  0  0
    7.8704   -3.7256   21.0092 C   0  0  2  0  0  0  0  0  0  0  0  0
    8.1006    5.5866   20.8145 O   0  0  0  0  0  0  0  0  0  0  0  0
    8.0262   -5.9653   16.2787 N   0  0  0  0  0  0  0  0  0  0  0  0
    7.7380   -4.6570   16.5830 C   0  0  0  0  0  0  0  0  0  0  0  0
    7.7457   -4.2546   17.9004 N   0  0  0  0  0  0  0  0  0  0  0  0
    8.0345   -5.1232   18.8952 C   0  0  0  0  0  0  0  0  0  0  0  0
    8.3413   -6.4441   18.6025 C   0  0  0  0  0  0  0  0  0  0  0  0
    8.3275   -6.8688   17.2756 C   0  0  0  0  0  0  0  0  0  0  0  0
    8.6102   -8.1316   16.9546 N   0  0  0  0  0  0  0  0  0  0  0  0
    8.5958   -7.0829   19.7735 N   0  0  0  0  0  0  0  0  0  0  0  0
    8.4705   -6.1874   20.7800 C   0  0  0  0  0  0  0  0  0  0  0  0
    8.1300   -4.9663   20.2521 N   0  0  0  0  0  0  0  0  0  0  0  0
  2  1  1  6  0  0  0
  2  3  1  0  0  0  0
  2  5  1  0  0  0  0
  3  4  1  0  0  0  0
  3 17  1  0  0  0  0
  5  6  1  0  0  0  0
  7  6  1  1  0  0  0
  7  8  1  0  0  0  0
  7  9  1  0  0  0  0
 10  9  1  6  0  0  0
 10 11  1  0  0  0  0
 10 12  1  0  0  0  0
 11 16  1  0  0  0  0
 12 13  1  1  0  0  0
 12 14  1  0  0  0  0
 14 15  1  1  0  0  0
 14 16  1  0  0  0  0
 16 27  1  6  0  0  0
 18 19  2  0  0  0  0
 18 23  1  0  0  0  0
 19 20  1  0  0  0  0
 20 21  2  0  0  0  0
 21 22  1  0  0  0  0
 21 27  1  0  0  0  0
 22 23  2  0  0  0  0
 22 25  1  0  0  0  0
 23 24  1  0  0  0  0
 25 26  2  0  0  0  0
 26 27  1  0  0  0  0
M  END
>  <CHROM.1>
-51.05314853,-56.43162948,-173.22909425,-72.37132124,-64.64388276,-162.42109715
39.89506506,7.49957567,-1.50749214,19.44556632,-1.94633421,1.12816259,-2.64102272

>  <Name>
ligand

>  <RI>
0

>  <Rbt.Current_Directory>
/home/itssahil/PROJECTS/Mol_Feturizer/New_Systems/rnas/3GX5

>  <Rbt.Executable>
rbdock ($Id: //depot/dev/client3/rdock/2013.1/src/exe/rbdock.cxx#4 $)

>  <Rbt.Library>
libRbt.so (2013.1, Build901 2013/11/27)

>  <Rbt.Parameter_File>
/export/apps/rDock/src/rDock_2013.1_src/data/scripts/dock_solv.prm

>  <Rbt.Receptor>
prm/blind_docking_40.prm

>  <SCORE>
-6.93702

>  <SCORE.INTER>
-7.14758

>  <SCORE.INTER.CONST>
1

>  <SCORE.INTER.POLAR>
0

>  <SCORE.INTER.ROT>
7

>  <SCORE.INTER.SOLV>
10.5766

>  <SCORE.INTER.VDW>
-16.5573

>  <SCORE.INTER.norm>
-0.264725

>  <SCORE.INTRA>
0.210557

>  <SCORE.INTRA.DIHEDRAL>
0.549903

>  <SCORE.INTRA.DIHEDRAL.0>
4.28829

>  <SCORE.INTRA.POLAR>
0

>  <SCORE.INTRA.POLAR.0>
0

>  <SCORE.INTRA.REPUL>
0

>  <SCORE.INTRA.REPUL.0>
0

>  <SCORE.INTRA.SOLV>
-0.0646084

>  <SCORE.INTRA.SOLV.lig_0>
-48.6018

>  <SCORE.INTRA.VDW>
-0.0320905

>  <SCORE.INTRA.VDW.0>
-2.1506

>  <SCORE.INTRA.norm>
0.0077984

>  <SCORE.RESTR>
0

>  <SCORE.RESTR.CAVITY>
0

>  <SCORE.RESTR.norm>
0

>  <SCORE.SYSTEM>
0

>  <SCORE.SYSTEM.CONST>
0

>  <SCORE.SYSTEM.DIHEDRAL>
0

>  <SCORE.SYSTEM.SOLV>
0

>  <SCORE.SYSTEM.norm>
0

>  <SCORE.heavy>
27

>  <SCORE.norm>
-0.256927

>  <RMSD>
15.072

$$$$
ligand
 OpenBabel11021811483D
libRbt.so/2013.1/901 2013/11/27
 27 29  0  0  0  0  0  0  0  0999 V2000
    7.0432  -15.7531   17.1582 N   0  0  0  0  0  0  0  0  0  0  0  0
    7.7751  -14.4947   17.0012 C   0  0  2  0  0  0  0  0  0  0  0  0
    8.6920  -14.1100   18.1649 C   0  0  0  0  0  0  0  0  0  0  0  0
    8.6964  -14.8144   19.1736 O   0  0  0  0  0  0  0  0  0  0  0  0
    6.8288  -13.3536   16.6676 C   0  0  0  0  0  0  0  0  0  0  0  0
    7.5836  -12.1180   16.2084 C   0  0  0  0  0  0  0  0  0  0  0  0
    6.4995  -10.6794   16.1914 S   0  0  2  0  0  0  0  0  0  0  0  0
    7.6676   -9.4136   15.6507 C   0  0  0  0  0  0  0  0  0  0  0  0
    6.4344  -10.2948   17.9568 C   0  0  0  0  0  0  0  0  0  0  0  0
    5.4049   -9.2159   18.2383 C   0  0  1  0  0  0  0  0  0  0  0  0
    5.3532   -8.9265   19.6166 O   0  0  0  0  0  0  0  0  0  0  0  0
    5.7396   -7.8968   17.5702 C   0  0  1  0  0  0  0  0  0  0  0  0
    5.0935   -7.8552   16.3229 O   0  0  0  0  0  0  0  0  0  0  0  0
    5.1636   -6.8635   18.5171 C   0  0  1  0  0  0  0  0  0  0  0  0
    3.9254   -6.4493   17.9849 O   0  0  0  0  0  0  0  0  0  0  0  0
    4.9653   -7.5844   19.8522 C   0  0  2  0  0  0  0  0  0  0  0  0
    9.4265  -13.1186   18.1411 O   0  0  0  0  0  0  0  0  0  0  0  0
    5.6821   -4.0767   23.6731 N   0  0  0  0  0  0  0  0  0  0  0  0
    4.5495   -4.2891   22.9254 C   0  0  0  0  0  0  0  0  0  0  0  0
    4.5565   -5.2673   21.9555 N   0  0  0  0  0  0  0  0  0  0  0  0
    5.6559   -6.0211   21.7305 C   0  0  0  0  0  0  0  0  0  0  0  0
    6.8027   -5.8277   22.4870 C   0  0  0  0  0  0  0  0  0  0  0  0
    6.8145   -4.8351   23.4648 C   0  0  0  0  0  0  0  0  0  0  0  0
    7.8993   -4.6144   24.2077 N   0  0  0  0  0  0  0  0  0  0  0  0
    7.7383   -6.7151   22.0612 N   0  0  0  0  0  0  0  0  0  0  0  0
    7.1940   -7.4623   21.0732 C   0  0  0  0  0  0  0  0  0  0  0  0
    5.9016   -7.0498   20.8609 N   0  0  0  0  0  0  0  0  0  0  0  0
  2  1  1  1  0  0  0
  2  3  1  0  0  0  0
  2  5  1  0  0  0  0
  3  4  1  0  0  0  0
  3 17  1  0  0  0  0
  5  6  1  0  0  0  0
  7  6  1  1  0  0  0
  7  8  1  0  0  0  0
  7  9  1  0  0  0  0
 10  9  1  1  0  0  0
 10 11  1  0  0  0  0
 10 12  1  0  0  0  0
 11 16  1  0  0  0  0
 12 13  1  6  0  0  0
 12 14  1  0  0  0  0
 14 15  1  6  0  0  0
 14 16  1  0  0  0  0
 16 27  1  1  0  0  0
 18 19  2  0  0  0  0
 18 23  1  0  0  0  0
 19 20  1  0  0  0  0
 20 21  2  0  0  0  0
 21 22  1  0  0  0  0
 21 27  1  0  0  0  0
 22 23  2  0  0  0  0
 22 25  1  0  0  0  0
 23 24  1  0  0  0  0
 25 26  2  0  0  0  0
 26 27  1  0  0  0  0
M  END
>  <CHROM.1>
-4.52698821,-167.66713968,-166.70403031,178.96722238,-171.81953812,179.64109367
-154.71537333,6.49339483,-9.02664315,19.19580677,-1.25008241,-0.97075492
0.84537205

>  <Name>
ligand

>  <RI>
0

>  <Rbt.Current_Directory>
/home/itssahil/PROJECTS/Mol_Feturizer/New_Systems/rnas/3GX5

>  <Rbt.Executable>
rbdock ($Id: //depot/dev/client3/rdock/2013.1/src/exe/rbdock.cxx#4 $)

>  <Rbt.Library>
libRbt.so (2013.1, Build901 2013/11/27)

>  <Rbt.Parameter_File>
/export/apps/rDock/src/rDock_2013.1_src/data/scripts/dock_solv.prm

>  <Rbt.Receptor>
prm/blind_docking_80.prm

>  <SCORE>
-10.2136

>  <SCORE.INTER>
-11.2359

>  <SCORE.INTER.CONST>
1

>  <SCORE.INTER.POLAR>
0

>  <SCORE.INTER.ROT>
7

>  <SCORE.INTER.SOLV>
10.1869

>  <SCORE.INTER.VDW>
-19.1529

>  <SCORE.INTER.norm>
-0.416145

>  <SCORE.INTRA>
1.02233

>  <SCORE.INTRA.DIHEDRAL>
1.21214

>  <SCORE.INTRA.DIHEDRAL.0>
4.28829

>  <SCORE.INTRA.POLAR>
0

>  <SCORE.INTRA.POLAR.0>
0

>  <SCORE.INTRA.REPUL>
0

>  <SCORE.INTRA.REPUL.0>
0

>  <SCORE.INTRA.SOLV>
-0.940035

>  <SCORE.INTRA.SOLV.lig_0>
-48.6018

>  <SCORE.INTRA.VDW>
0.886279

>  <SCORE.INTRA.VDW.0>
-2.1506

>  <SCORE.INTRA.norm>
0.0378642

>  <SCORE.RESTR>
0

>  <SCORE.RESTR.CAVITY>
0

>  <SCORE.RESTR.norm>
0

>  <SCORE.SYSTEM>
0

>  <SCORE.SYSTEM.CONST>
0

>  <SCORE.SYSTEM.DIHEDRAL>
0

>  <SCORE.SYSTEM.SOLV>
0

>  <SCORE.SYSTEM.norm>
0

>  <SCORE.heavy>
27

>  <SCORE.norm>
-0.37828

>  <RMSD>
15.075

$$$$
ligand
 OpenBabel11021811483D
libRbt.so/2013.1/901 2013/11/27
 27 29  0  0  0  0  0  0  0  0999 V2000
    6.5852   -6.2241   27.1287 N   0  0  0  0  0  0  0  0  0  0  0  0
    8.0071   -6.5029   27.3393 C   0  0  2  0  0  0  0  0  0  0  0  0
    8.5311   -6.2494   28.7549 C   0  0  0  0  0  0  0  0  0  0  0  0
    7.8236   -5.6270   29.5459 O   0  0  0  0  0  0  0  0  0  0  0  0
    8.8612   -5.7740   26.3155 C   0  0  0  0  0  0  0  0  0  0  0  0
    8.7462   -6.4074   24.9396 C   0  0  0  0  0  0  0  0  0  0  0  0
    9.7384   -5.5038   23.7379 S   0  0  2  0  0  0  0  0  0  0  0  0
    8.6042   -4.1551   23.3462 C   0  0  0  0  0  0  0  0  0  0  0  0
    9.4993   -6.5341   22.2716 C   0  0  0  0  0  0  0  0  0  0  0  0
   10.2089   -7.8667   22.4246 C   0  0  1  0  0  0  0  0  0  0  0  0
    9.8764   -8.7312   21.3624 O   0  0  0  0  0  0  0  0  0  0  0  0
   11.7184   -7.7374   22.3707 C   0  0  1  0  0  0  0  0  0  0  0  0
   12.1987   -7.6002   23.6843 O   0  0  0  0  0  0  0  0  0  0  0  0
   12.1653   -9.0509   21.7615 C   0  0  1  0  0  0  0  0  0  0  0  0
   12.5970   -9.8792   22.8177 O   0  0  0  0  0  0  0  0  0  0  0  0
   10.9268   -9.6398   21.0828 C   0  0  2  0  0  0  0  0  0  0  0  0
    9.6374   -6.6370   29.1403 O   0  0  0  0  0  0  0  0  0  0  0  0
   13.4491   -7.5017   17.0227 N   0  0  0  0  0  0  0  0  0  0  0  0
   13.6057   -7.2165   18.3574 C   0  0  0  0  0  0  0  0  0  0  0  0
   12.8416   -7.8909   19.2843 N   0  0  0  0  0  0  0  0  0  0  0  0
   11.9452   -8.8281   18.9026 C   0  0  0  0  0  0  0  0  0  0  0  0
   11.7858   -9.1369   17.5596 C   0  0  0  0  0  0  0  0  0  0  0  0
   12.5440   -8.4560   16.6093 C   0  0  0  0  0  0  0  0  0  0  0  0
   12.4148   -8.7197   15.3088 N   0  0  0  0  0  0  0  0  0  0  0  0
   10.8392  -10.1059   17.4635 N   0  0  0  0  0  0  0  0  0  0  0  0
   10.4219  -10.4151   18.7128 C   0  0  0  0  0  0  0  0  0  0  0  0
   11.1026   -9.6373   19.6168 N   0  0  0  0  0  0  0  0  0  0  0  0
  2  1  1  1  0  0  0
  2  3  1  0  0  0  0
  2  5  1  0  0  0  0
  3  4  1  0  0  0  0
  3 17  1  0  0  0  0
  5  6  1  0  0  0  0
  7  6  1  1  0  0  0
  7  8  1  0  0  0  0
  7  9  1  0  0  0  0
 10  9  1  6  0  0  0
 10 11  1  0  0  0  0
 10 12  1  0  0  0  0
 11 16  1  0  0  0  0
 12 13  1  1  0  0  0
 12 14  1  0  0  0  0
 14 15  1  1  0  0  0
 14 16  1  0  0  0  0
 16 27  1  6  0  0  0
 18 19  2  0  0  0  0
 18 23  1  0  0  0  0
 19 20  1  0  0  0  0
 20 21  2  0  0  0  0
 21 22  1  0  0  0  0
 21 27  1  0  0  0  0
 22 23  2  0  0  0  0
 22 25  1  0  0  0  0
 23 24  1  0  0  0  0
 25 26  2  0  0  0  0
 26 27  1  0  0  0  0
M  END
>  <CHROM.1>
-12.37264985,-72.86138445,178.74735716,-81.97101816,-69.92890769,172.26934866
90.92726388,10.54045439,-7.56656059,22.32585989,2.32558021,-1.03675381,1.96036205

>  <Name>
ligand

>  <RI>
0

>  <Rbt.Current_Directory>
/home/itssahil/PROJECTS/Mol_Feturizer/New_Systems/rnas/3GX5

>  <Rbt.Executable>
rbdock ($Id: //depot/dev/client3/rdock/2013.1/src/exe/rbdock.cxx#4 $)

>  <Rbt.Library>
libRbt.so (2013.1, Build901 2013/11/27)

>  <Rbt.Parameter_File>
/export/apps/rDock/src/rDock_2013.1_src/data/scripts/dock_solv.prm

>  <Rbt.Receptor>
prm/blind_docking_80.prm

>  <SCORE>
-10.507

>  <SCORE.INTER>
-10.3446

>  <SCORE.INTER.CONST>
1

>  <SCORE.INTER.POLAR>
0

>  <SCORE.INTER.ROT>
7

>  <SCORE.INTER.SOLV>
10.1904

>  <SCORE.INTER.VDW>
-18.5599

>  <SCORE.INTER.norm>
-0.383135

>  <SCORE.INTRA>
-0.162356

>  <SCORE.INTRA.DIHEDRAL>
0.408395

>  <SCORE.INTRA.DIHEDRAL.0>
4.28829

>  <SCORE.INTRA.POLAR>
0

>  <SCORE.INTRA.POLAR.0>
0

>  <SCORE.INTRA.REPUL>
0

>  <SCORE.INTRA.REPUL.0>
0

>  <SCORE.INTRA.SOLV>
-0.422986

>  <SCORE.INTRA.SOLV.lig_0>
-48.6018

>  <SCORE.INTRA.VDW>
-0.155061

>  <SCORE.INTRA.VDW.0>
-2.1506

>  <SCORE.INTRA.norm>
-0.00601318

>  <SCORE.RESTR>
0

>  <SCORE.RESTR.CAVITY>
0

>  <SCORE.RESTR.norm>
0

>  <SCORE.SYSTEM>
0

>  <SCORE.SYSTEM.CONST>
0

>  <SCORE.SYSTEM.DIHEDRAL>
0

>  <SCORE.SYSTEM.SOLV>
0

>  <SCORE.SYSTEM.norm>
0

>  <SCORE.heavy>
27

>  <SCORE.norm>
-0.389148

>  <RMSD>
15.090

$$$$
ligand
 OpenBabel11021811483D
libRbt.so/2013.1/901 2013/11/27
 27 29  0  0  0  0  0  0  0  0999 V2000
   12.9230   -8.8814   18.0465 N   0  0  0  0  0  0  0  0  0  0  0  0
   13.6158   -8.2662   19.1802 C   0  0  2  0  0  0  0  0  0  0  0  0
   14.8686   -8.9971   19.6691 C   0  0  0  0  0  0  0  0  0  0  0  0
   14.7895  -10.1959   19.9344 O   0  0  0  0  0  0  0  0  0  0  0  0
   12.6576   -8.0193   20.3335 C   0  0  0  0  0  0  0  0  0  0  0  0
   13.2448   -7.0566   21.3512 C   0  0  0  0  0  0  0  0  0  0  0  0
   12.0932   -6.7861   22.7098 S   0  0  2  0  0  0  0  0  0  0  0  0
   11.8772   -8.4853   23.2801 C   0  0  0  0  0  0  0  0  0  0  0  0
   10.5478   -6.5763   21.7953 C   0  0  0  0  0  0  0  0  0  0  0  0
    9.4350   -6.1054   22.7134 C   0  0  1  0  0  0  0  0  0  0  0  0
    8.3561   -5.5944   21.9644 O   0  0  0  0  0  0  0  0  0  0  0  0
    8.8434   -7.2283   23.5425 C   0  0  1  0  0  0  0  0  0  0  0  0
    9.5183   -7.2728   24.7744 O   0  0  0  0  0  0  0  0  0  0  0  0
    7.3989   -6.8095   23.7273 C   0  0  1  0  0  0  0  0  0  0  0  0
    7.2878   -6.2373   25.0112 O   0  0  0  0  0  0  0  0  0  0  0  0
    7.1244   -5.7650   22.6433 C   0  0  2  0  0  0  0  0  0  0  0  0
   15.9581   -8.4366   19.8158 O   0  0  0  0  0  0  0  0  0  0  0  0
    6.1631   -9.5633   19.1695 N   0  0  0  0  0  0  0  0  0  0  0  0
    7.2586   -9.4261   19.9870 C   0  0  0  0  0  0  0  0  0  0  0  0
    7.3310   -8.3472   20.8405 N   0  0  0  0  0  0  0  0  0  0  0  0
    6.3429   -7.4258   20.8883 C   0  0  0  0  0  0  0  0  0  0  0  0
    5.2240   -7.5584   20.0788 C   0  0  0  0  0  0  0  0  0  0  0  0
    5.1409   -8.6387   19.2028 C   0  0  0  0  0  0  0  0  0  0  0  0
    4.0850   -8.7972   18.4043 N   0  0  0  0  0  0  0  0  0  0  0  0
    4.3973   -6.5118   20.3347 N   0  0  0  0  0  0  0  0  0  0  0  0
    4.9686   -5.7457   21.2925 C   0  0  0  0  0  0  0  0  0  0  0  0
    6.1715   -6.3021   21.6516 N   0  0  0  0  0  0  0  0  0  0  0  0
  2  1  1  6  0  0  0
  2  3  1  0  0  0  0
  2  5  1  0  0  0  0
  3  4  1  0  0  0  0
  3 17  1  0  0  0  0
  5  6  1  0  0  0  0
  7  6  1  6  0  0  0
  7  8  1  0  0  0  0
  7  9  1  0  0  0  0
 10  9  1  6  0  0  0
 10 11  1  0  0  0  0
 10 12  1  0  0  0  0
 11 16  1  0  0  0  0
 12 13  1  1  0  0  0
 12 14  1  0  0  0  0
 14 15  1  1  0  0  0
 14 16  1  0  0  0  0
 16 27  1  6  0  0  0
 18 19  2  0  0  0  0
 18 23  1  0  0  0  0
 19 20  1  0  0  0  0
 20 21  2  0  0  0  0
 21 22  1  0  0  0  0
 21 27  1  0  0  0  0
 22 23  2  0  0  0  0
 22 25  1  0  0  0  0
 23 24  1  0  0  0  0
 25 26  2  0  0  0  0
 26 27  1  0  0  0  0
M  END
>  <CHROM.1>
-52.39655505,-164.41033290,-179.77678865,57.68885741,-170.74038311,163.80605971
54.86406543,9.42121145,-7.55566037,21.31770722,0.11957150,0.09067886,-2.04962315

>  <Name>
ligand

>  <RI>
0

>  <Rbt.Current_Directory>
/home/itssahil/PROJECTS/Mol_Feturizer/New_Systems/rnas/3GX5

>  <Rbt.Executable>
rbdock ($Id: //depot/dev/client3/rdock/2013.1/src/exe/rbdock.cxx#4 $)

>  <Rbt.Library>
libRbt.so (2013.1, Build901 2013/11/27)

>  <Rbt.Parameter_File>
/export/apps/rDock/src/rDock_2013.1_src/data/scripts/dock_solv.prm

>  <Rbt.Receptor>
prm/blind_docking_60.prm

>  <SCORE>
-12.6836

>  <SCORE.INTER>
-14.5332

>  <SCORE.INTER.CONST>
1

>  <SCORE.INTER.POLAR>
0

>  <SCORE.INTER.ROT>
7

>  <SCORE.INTER.SOLV>
9.54319

>  <SCORE.INTER.VDW>
-21.1366

>  <SCORE.INTER.norm>
-0.538268

>  <SCORE.INTRA>
1.8496

>  <SCORE.INTRA.DIHEDRAL>
1.85982

>  <SCORE.INTRA.DIHEDRAL.0>
4.28829

>  <SCORE.INTRA.POLAR>
0

>  <SCORE.INTRA.POLAR.0>
0

>  <SCORE.INTRA.REPUL>
0

>  <SCORE.INTRA.REPUL.0>
0

>  <SCORE.INTRA.SOLV>
-0.936118

>  <SCORE.INTRA.SOLV.lig_0>
-48.6018

>  <SCORE.INTRA.VDW>
1.38774

>  <SCORE.INTRA.VDW.0>
-2.1506

>  <SCORE.INTRA.norm>
0.0685036

>  <SCORE.RESTR>
0

>  <SCORE.RESTR.CAVITY>
0

>  <SCORE.RESTR.norm>
0

>  <SCORE.SYSTEM>
0

>  <SCORE.SYSTEM.CONST>
0

>  <SCORE.SYSTEM.DIHEDRAL>
0

>  <SCORE.SYSTEM.SOLV>
0

>  <SCORE.SYSTEM.norm>
0

>  <SCORE.heavy>
27

>  <SCORE.norm>
-0.469765

>  <RMSD>
15.216

$$$$
ligand
 OpenBabel11021811483D
libRbt.so/2013.1/901 2013/11/27
 27 29  0  0  0  0  0  0  0  0999 V2000
    7.6797   -3.2222   23.2132 N   0  0  0  0  0  0  0  0  0  0  0  0
    8.4936   -4.4381   23.1601 C   0  0  2  0  0  0  0  0  0  0  0  0
    7.9969   -5.5289   22.2081 C   0  0  0  0  0  0  0  0  0  0  0  0
    8.7539   -5.9368   21.3281 O   0  0  0  0  0  0  0  0  0  0  0  0
    8.7149   -5.0051   24.5524 C   0  0  0  0  0  0  0  0  0  0  0  0
    9.7526   -6.1143   24.5454 C   0  0  0  0  0  0  0  0  0  0  0  0
    8.9985   -7.6888   24.1008 S   0  0  2  0  0  0  0  0  0  0  0  0
    8.3120   -8.1696   25.6997 C   0  0  0  0  0  0  0  0  0  0  0  0
   10.4580   -8.7554   24.0666 C   0  0  0  0  0  0  0  0  0  0  0  0
   10.7863   -9.1783   22.6466 C   0  0  1  0  0  0  0  0  0  0  0  0
    9.7163   -9.9031   22.0845 O   0  0  0  0  0  0  0  0  0  0  0  0
   10.9963   -7.9995   21.7168 C   0  0  1  0  0  0  0  0  0  0  0  0
   12.3679   -7.6947   21.6903 O   0  0  0  0  0  0  0  0  0  0  0  0
   10.5276   -8.5198   20.3731 C   0  0  1  0  0  0  0  0  0  0  0  0
   11.6751   -8.8880   19.6411 O   0  0  0  0  0  0  0  0  0  0  0  0
    9.6633   -9.7452   20.6776 C   0  0  2  0  0  0  0  0  0  0  0  0
    6.8657   -6.0167   22.2784 O   0  0  0  0  0  0  0  0  0  0  0  0
    5.6276  -10.9568   17.5691 N   0  0  0  0  0  0  0  0  0  0  0  0
    6.8816  -11.5175   17.5796 C   0  0  0  0  0  0  0  0  0  0  0  0
    7.8173  -11.0579   18.4800 N   0  0  0  0  0  0  0  0  0  0  0  0
    7.5211  -10.0689   19.3527 C   0  0  0  0  0  0  0  0  0  0  0  0
    6.2547   -9.5024   19.3635 C   0  0  0  0  0  0  0  0  0  0  0  0
    5.3006   -9.9494   18.4518 C   0  0  0  0  0  0  0  0  0  0  0  0
    4.0748   -9.4256   18.4265 N   0  0  0  0  0  0  0  0  0  0  0  0
    6.2309   -8.5517   20.3329 N   0  0  0  0  0  0  0  0  0  0  0  0
    7.4438   -8.5279   20.9320 C   0  0  0  0  0  0  0  0  0  0  0  0
    8.2529   -9.4669   20.3412 N   0  0  0  0  0  0  0  0  0  0  0  0
  2  1  1  1  0  0  0
  2  3  1  0  0  0  0
  2  5  1  0  0  0  0
  3  4  1  0  0  0  0
  3 17  1  0  0  0  0
  5  6  1  0  0  0  0
  7  6  1  1  0  0  0
  7  8  1  0  0  0  0
  7  9  1  0  0  0  0
 10  9  1  1  0  0  0
 10 11  1  0  0  0  0
 10 12  1  0  0  0  0
 11 16  1  0  0  0  0
 12 13  1  6  0  0  0
 12 14  1  0  0  0  0
 14 15  1  6  0  0  0
 14 16  1  0  0  0  0
 16 27  1  1  0  0  0
 18 19  2  0  0  0  0
 18 23  1  0  0  0  0
 19 20  1  0  0  0  0
 20 21  2  0  0  0  0
 21 22  1  0  0  0  0
 21 27  1  0  0  0  0
 22 23  2  0  0  0  0
 22 25  1  0  0  0  0
 23 24  1  0  0  0  0
 25 26  2  0  0  0  0
 26 27  1  0  0  0  0
M  END
>  <CHROM.1>
123.36959528,-169.86260371,-84.00078879,-81.84295717,-110.31491362,-60.71844460
-132.31367221,8.50296575,-8.15106705,21.47935455,1.14430994,-0.35601613,0.75273821

>  <Name>
ligand

>  <RI>
0

>  <Rbt.Current_Directory>
/home/itssahil/PROJECTS/Mol_Feturizer/New_Systems/rnas/3GX5

>  <Rbt.Executable>
rbdock ($Id: //depot/dev/client3/rdock/2013.1/src/exe/rbdock.cxx#4 $)

>  <Rbt.Library>
libRbt.so (2013.1, Build901 2013/11/27)

>  <Rbt.Parameter_File>
/export/apps/rDock/src/rDock_2013.1_src/data/scripts/dock_solv.prm

>  <Rbt.Receptor>
prm/blind_docking_100.prm

>  <SCORE>
-11.1138

>  <SCORE.INTER>
-10.6805

>  <SCORE.INTER.CONST>
1

>  <SCORE.INTER.POLAR>
0

>  <SCORE.INTER.ROT>
7

>  <SCORE.INTER.SOLV>
13.0328

>  <SCORE.INTER.VDW>
-19.7313

>  <SCORE.INTER.norm>
-0.395573

>  <SCORE.INTRA>
-0.433325

>  <SCORE.INTRA.DIHEDRAL>
5.16114

>  <SCORE.INTRA.DIHEDRAL.0>
4.28829

>  <SCORE.INTRA.POLAR>
0

>  <SCORE.INTRA.POLAR.0>
0

>  <SCORE.INTRA.REPUL>
0

>  <SCORE.INTRA.REPUL.0>
0

>  <SCORE.INTRA.SOLV>
-0.911114

>  <SCORE.INTRA.SOLV.lig_0>
-48.6018

>  <SCORE.INTRA.VDW>
-2.55834

>  <SCORE.INTRA.VDW.0>
-2.1506

>  <SCORE.INTRA.norm>
-0.0160491

>  <SCORE.RESTR>
0

>  <SCORE.RESTR.CAVITY>
0

>  <SCORE.RESTR.norm>
0

>  <SCORE.SYSTEM>
0

>  <SCORE.SYSTEM.CONST>
0

>  <SCORE.SYSTEM.DIHEDRAL>
0

>  <SCORE.SYSTEM.SOLV>
0

>  <SCORE.SYSTEM.norm>
0

>  <SCORE.heavy>
27

>  <SCORE.norm>
-0.411622

>  <RMSD>
15.231

$$$$
ligand
 OpenBabel11021811483D
libRbt.so/2013.1/901 2013/11/27
 27 29  0  0  0  0  0  0  0  0999 V2000
    8.7089  -11.6312   15.7336 N   0  0  0  0  0  0  0  0  0  0  0  0
    8.3146  -12.2388   17.0061 C   0  0  2  0  0  0  0  0  0  0  0  0
    6.9319  -12.8947   17.0286 C   0  0  0  0  0  0  0  0  0  0  0  0
    6.8336  -14.0564   17.4218 O   0  0  0  0  0  0  0  0  0  0  0  0
    8.4533  -11.2463   18.1482 C   0  0  0  0  0  0  0  0  0  0  0  0
    9.8607  -10.6804   18.2288 C   0  0  0  0  0  0  0  0  0  0  0  0
   10.0583   -9.6738   19.7096 S   0  0  2  0  0  0  0  0  0  0  0  0
    9.3939   -8.1049   19.1125 C   0  0  0  0  0  0  0  0  0  0  0  0
   11.8261   -9.3045   19.6237 C   0  0  0  0  0  0  0  0  0  0  0  0
   12.3336   -8.7743   20.9519 C   0  0  1  0  0  0  0  0  0  0  0  0
   11.9720   -7.4223   21.1177 O   0  0  0  0  0  0  0  0  0  0  0  0
   11.7278   -9.4936   22.1410 C   0  0  1  0  0  0  0  0  0  0  0  0
   12.5838  -10.5472   22.5049 O   0  0  0  0  0  0  0  0  0  0  0  0
   11.6875   -8.4278   23.2174 C   0  0  1  0  0  0  0  0  0  0  0  0
   12.7956   -8.6415   24.0626 O   0  0  0  0  0  0  0  0  0  0  0  0
   11.8145   -7.0898   22.4858 C   0  0  2  0  0  0  0  0  0  0  0  0
    5.9069  -12.3123   16.6640 O   0  0  0  0  0  0  0  0  0  0  0  0
    7.1109   -6.7991   24.7684 N   0  0  0  0  0  0  0  0  0  0  0  0
    8.0971   -7.7305   24.9853 C   0  0  0  0  0  0  0  0  0  0  0  0
    9.2766   -7.6393   24.2795 N   0  0  0  0  0  0  0  0  0  0  0  0
    9.4794   -6.6492   23.3817 C   0  0  0  0  0  0  0  0  0  0  0  0
    8.4983   -5.6932   23.1619 C   0  0  0  0  0  0  0  0  0  0  0  0
    7.2959   -5.7780   23.8606 C   0  0  0  0  0  0  0  0  0  0  0  0
    6.3263   -4.8823   23.6723 N   0  0  0  0  0  0  0  0  0  0  0  0
    8.9643   -4.8238   22.2287 N   0  0  0  0  0  0  0  0  0  0  0  0
   10.2135   -5.2081   21.8786 C   0  0  0  0  0  0  0  0  0  0  0  0
   10.5506   -6.3336   22.5893 N   0  0  0  0  0  0  0  0  0  0  0  0
  2  1  1  6  0  0  0
  2  3  1  0  0  0  0
  2  5  1  0  0  0  0
  3  4  1  0  0  0  0
  3 17  1  0  0  0  0
  5  6  1  0  0  0  0
  7  6  1  6  0  0  0
  7  8  1  0  0  0  0
  7  9  1  0  0  0  0
 10  9  1  6  0  0  0
 10 11  1  0  0  0  0
 10 12  1  0  0  0  0
 11 16  1  0  0  0  0
 12 13  1  1  0  0  0
 12 14  1  0  0  0  0
 14 15  1  1  0  0  0
 14 16  1  0  0  0  0
 16 27  1  6  0  0  0
 18 19  2  0  0  0  0
 18 23  1  0  0  0  0
 19 20  1  0  0  0  0
 20 21  2  0  0  0  0
 21 22  1  0  0  0  0
 21 27  1  0  0  0  0
 22 23  2  0  0  0  0
 22 25  1  0  0  0  0
 23 24  1  0  0  0  0
 25 26  2  0  0  0  0
 26 27  1  0  0  0  0
M  END
>  <CHROM.1>
127.63280475,-55.69008181,-172.73863459,-84.01261475,-164.78734062,-77.70384095
123.28620554,9.56931106,-8.79835612,20.98043276,-1.76571534,-0.16865801,0.81011978

>  <Name>
ligand

>  <RI>
0

>  <Rbt.Current_Directory>
/home/itssahil/PROJECTS/Mol_Feturizer/New_Systems/rnas/3GX5

>  <Rbt.Executable>
rbdock ($Id: //depot/dev/client3/rdock/2013.1/src/exe/rbdock.cxx#4 $)

>  <Rbt.Library>
libRbt.so (2013.1, Build901 2013/11/27)

>  <Rbt.Parameter_File>
/export/apps/rDock/src/rDock_2013.1_src/data/scripts/dock_solv.prm

>  <Rbt.Receptor>
prm/blind_docking_40.prm

>  <SCORE>
-10.5067

>  <SCORE.INTER>
-12.1643

>  <SCORE.INTER.CONST>
1

>  <SCORE.INTER.POLAR>
0

>  <SCORE.INTER.ROT>
7

>  <SCORE.INTER.SOLV>
13.2839

>  <SCORE.INTER.VDW>
-20.8042

>  <SCORE.INTER.norm>
-0.45053

>  <SCORE.INTRA>
1.65763

>  <SCORE.INTRA.DIHEDRAL>
2.5771

>  <SCORE.INTRA.DIHEDRAL.0>
4.28829

>  <SCORE.INTRA.POLAR>
0

>  <SCORE.INTRA.POLAR.0>
0

>  <SCORE.INTRA.REPUL>
0

>  <SCORE.INTRA.REPUL.0>
0

>  <SCORE.INTRA.SOLV>
-0.290619

>  <SCORE.INTRA.SOLV.lig_0>
-48.6018

>  <SCORE.INTRA.VDW>
0.514389

>  <SCORE.INTRA.VDW.0>
-2.1506

>  <SCORE.INTRA.norm>
0.0613936

>  <SCORE.RESTR>
0

>  <SCORE.RESTR.CAVITY>
0

>  <SCORE.RESTR.norm>
0

>  <SCORE.SYSTEM>
0

>  <SCORE.SYSTEM.CONST>
0

>  <SCORE.SYSTEM.DIHEDRAL>
0

>  <SCORE.SYSTEM.SOLV>
0

>  <SCORE.SYSTEM.norm>
0

>  <SCORE.heavy>
27

>  <SCORE.norm>
-0.389137

>  <RMSD>
15.241

$$$$
ligand
 OpenBabel11021811483D
libRbt.so/2013.1/901 2013/11/27
 27 29  0  0  0  0  0  0  0  0999 V2000
    6.5147   -5.5828   18.6010 N   0  0  0  0  0  0  0  0  0  0  0  0
    6.7103   -4.1636   18.2986 C   0  0  2  0  0  0  0  0  0  0  0  0
    7.6007   -3.8582   17.0916 C   0  0  0  0  0  0  0  0  0  0  0  0
    8.2182   -4.7814   16.5623 O   0  0  0  0  0  0  0  0  0  0  0  0
    7.1959   -3.4087   19.5247 C   0  0  0  0  0  0  0  0  0  0  0  0
    6.1127   -3.3097   20.5850 C   0  0  0  0  0  0  0  0  0  0  0  0
    5.8973   -4.8889   21.4245 S   0  0  2  0  0  0  0  0  0  0  0  0
    4.5842   -4.4509   22.5834 C   0  0  0  0  0  0  0  0  0  0  0  0
    7.3130   -4.8606   22.5485 C   0  0  0  0  0  0  0  0  0  0  0  0
    7.3911   -6.1447   23.3534 C   0  0  1  0  0  0  0  0  0  0  0  0
    7.7385   -7.2301   22.5243 O   0  0  0  0  0  0  0  0  0  0  0  0
    8.4665   -6.1036   24.4212 C   0  0  1  0  0  0  0  0  0  0  0  0
    7.8821   -5.6660   25.6221 O   0  0  0  0  0  0  0  0  0  0  0  0
    8.9156   -7.5469   24.5280 C   0  0  1  0  0  0  0  0  0  0  0  0
    8.2737   -8.1051   25.6524 O   0  0  0  0  0  0  0  0  0  0  0  0
    8.4436   -8.2278   23.2415 C   0  0  2  0  0  0  0  0  0  0  0  0
    7.7332   -2.7233   16.6256 O   0  0  0  0  0  0  0  0  0  0  0  0
   12.9551   -6.6152   21.1286 N   0  0  0  0  0  0  0  0  0  0  0  0
   12.1018   -5.9051   21.9377 C   0  0  0  0  0  0  0  0  0  0  0  0
   10.9515   -6.5080   22.3971 N   0  0  0  0  0  0  0  0  0  0  0  0
   10.6514   -7.7843   22.0676 C   0  0  0  0  0  0  0  0  0  0  0  0
   11.5102   -8.5186   21.2627 C   0  0  0  0  0  0  0  0  0  0  0  0
   12.6725   -7.9194   20.7818 C   0  0  0  0  0  0  0  0  0  0  0  0
   13.5195   -8.5900   20.0004 N   0  0  0  0  0  0  0  0  0  0  0  0
   10.9748   -9.7561   21.1009 N   0  0  0  0  0  0  0  0  0  0  0  0
    9.8166   -9.8104   21.7981 C   0  0  0  0  0  0  0  0  0  0  0  0
    9.6051   -8.5989   22.4089 N   0  0  0  0  0  0  0  0  0  0  0  0
  2  1  1  1  0  0  0
  2  3  1  0  0  0  0
  2  5  1  0  0  0  0
  3  4  1  0  0  0  0
  3 17  1  0  0  0  0
  5  6  1  0  0  0  0
  7  6  1  6  0  0  0
  7  8  1  0  0  0  0
  7  9  1  0  0  0  0
 10  9  1  6  0  0  0
 10 11  1  0  0  0  0
 10 12  1  0  0  0  0
 11 16  1  0  0  0  0
 12 13  1  1  0  0  0
 12 14  1  0  0  0  0
 14 15  1  1  0  0  0
 14 16  1  0  0  0  0
 16 27  1  6  0  0  0
 18 19  2  0  0  0  0
 18 23  1  0  0  0  0
 19 20  1  0  0  0  0
 20 21  2  0  0  0  0
 21 22  1  0  0  0  0
 21 27  1  0  0  0  0
 22 23  2  0  0  0  0
 22 25  1  0  0  0  0
 23 24  1  0  0  0  0
 25 26  2  0  0  0  0
 26 27  1  0  0  0  0
M  END
>  <CHROM.1>
-8.80062191,-69.24616503,74.82659812,-179.97196808,-177.69322578,69.19735759
64.52344321,8.66152891,-6.21620673,21.41423185,-2.31540691,-0.54075475,1.96379711

>  <Name>
ligand

>  <RI>
0

>  <Rbt.Current_Directory>
/home/itssahil/PROJECTS/Mol_Feturizer/New_Systems/rnas/3GX5

>  <Rbt.Executable>
rbdock ($Id: //depot/dev/client3/rdock/2013.1/src/exe/rbdock.cxx#4 $)

>  <Rbt.Library>
libRbt.so (2013.1, Build901 2013/11/27)

>  <Rbt.Parameter_File>
/export/apps/rDock/src/rDock_2013.1_src/data/scripts/dock_solv.prm

>  <Rbt.Receptor>
prm/blind_docking_40.prm

>  <SCORE>
-10.1456

>  <SCORE.INTER>
-10.4829

>  <SCORE.INTER.CONST>
1

>  <SCORE.INTER.POLAR>
0

>  <SCORE.INTER.ROT>
7

>  <SCORE.INTER.SOLV>
8.86399

>  <SCORE.INTER.VDW>
-18.21

>  <SCORE.INTER.norm>
-0.388257

>  <SCORE.INTRA>
0.337351

>  <SCORE.INTRA.DIHEDRAL>
1.1819

>  <SCORE.INTRA.DIHEDRAL.0>
4.28829

>  <SCORE.INTRA.POLAR>
0

>  <SCORE.INTRA.POLAR.0>
0

>  <SCORE.INTRA.REPUL>
0.000390228

>  <SCORE.INTRA.REPUL.0>
0

>  <SCORE.INTRA.SOLV>
1.20043

>  <SCORE.INTRA.SOLV.lig_0>
-48.6018

>  <SCORE.INTRA.VDW>
-0.855768

>  <SCORE.INTRA.VDW.0>
-2.1506

>  <SCORE.INTRA.norm>
0.0124945

>  <SCORE.RESTR>
0

>  <SCORE.RESTR.CAVITY>
0

>  <SCORE.RESTR.norm>
0

>  <SCORE.SYSTEM>
0

>  <SCORE.SYSTEM.CONST>
0

>  <SCORE.SYSTEM.DIHEDRAL>
0

>  <SCORE.SYSTEM.SOLV>
0

>  <SCORE.SYSTEM.norm>
0

>  <SCORE.heavy>
27

>  <SCORE.norm>
-0.375762

>  <RMSD>
15.407

$$$$
ligand
 OpenBabel11021811483D
libRbt.so/2013.1/901 2013/11/27
 27 29  0  0  0  0  0  0  0  0999 V2000
    6.1505   -3.8006   21.7585 N   0  0  0  0  0  0  0  0  0  0  0  0
    5.4598   -4.9824   22.2781 C   0  0  2  0  0  0  0  0  0  0  0  0
    3.9609   -4.8145   22.5388 C   0  0  0  0  0  0  0  0  0  0  0  0
    3.1623   -5.3180   21.7499 O   0  0  0  0  0  0  0  0  0  0  0  0
    6.1597   -5.5209   23.5147 C   0  0  0  0  0  0  0  0  0  0  0  0
    7.5426   -6.0560   23.1853 C   0  0  0  0  0  0  0  0  0  0  0  0
    8.3892   -6.5958   24.6810 S   0  0  2  0  0  0  0  0  0  0  0  0
    8.4810   -5.0283   25.5718 C   0  0  0  0  0  0  0  0  0  0  0  0
   10.0903   -6.6997   24.0777 C   0  0  0  0  0  0  0  0  0  0  0  0
   10.4714   -8.1376   23.7771 C   0  0  1  0  0  0  0  0  0  0  0  0
    9.4082   -8.8106   23.1423 O   0  0  0  0  0  0  0  0  0  0  0  0
   11.6381   -8.2467   22.8153 C   0  0  1  0  0  0  0  0  0  0  0  0
   12.8233   -8.3391   23.5649 O   0  0  0  0  0  0  0  0  0  0  0  0
   11.3633   -9.5366   22.0693 C   0  0  1  0  0  0  0  0  0  0  0  0
   12.1670  -10.5384   22.6510 O   0  0  0  0  0  0  0  0  0  0  0  0
    9.8791   -9.8380   22.2881 C   0  0  2  0  0  0  0  0  0  0  0  0
    3.5136   -4.1903   23.5047 O   0  0  0  0  0  0  0  0  0  0  0  0
   10.1818   -9.9499   17.0618 N   0  0  0  0  0  0  0  0  0  0  0  0
   11.1867  -10.1810   17.9695 C   0  0  0  0  0  0  0  0  0  0  0  0
   10.9085  -10.1030   19.3165 N   0  0  0  0  0  0  0  0  0  0  0  0
    9.6655   -9.8065   19.7577 C   0  0  0  0  0  0  0  0  0  0  0  0
    8.6373   -9.5843   18.8533 C   0  0  0  0  0  0  0  0  0  0  0  0
    8.9054   -9.6494   17.4875 C   0  0  0  0  0  0  0  0  0  0  0  0
    7.9455   -9.4355   16.5872 N   0  0  0  0  0  0  0  0  0  0  0  0
    7.5089   -9.3194   19.5608 N   0  0  0  0  0  0  0  0  0  0  0  0
    7.8095   -9.3885   20.8782 C   0  0  0  0  0  0  0  0  0  0  0  0
    9.1405   -9.6965   21.0175 N   0  0  0  0  0  0  0  0  0  0  0  0
  2  1  1  1  0  0  0
  2  3  1  0  0  0  0
  2  5  1  0  0  0  0
  3  4  1  0  0  0  0
  3 17  1  0  0  0  0
  5  6  1  0  0  0  0
  7  6  1  6  0  0  0
  7  8  1  0  0  0  0
  7  9  1  0  0  0  0
 10  9  1  6  0  0  0
 10 11  1  0  0  0  0
 10 12  1  0  0  0  0
 11 16  1  0  0  0  0
 12 13  1  1  0  0  0
 12 14  1  0  0  0  0
 14 15  1  1  0  0  0
 14 16  1  0  0  0  0
 16 27  1  6  0  0  0
 18 19  2  0  0  0  0
 18 23  1  0  0  0  0
 19 20  1  0  0  0  0
 20 21  2  0  0  0  0
 21 22  1  0  0  0  0
 21 27  1  0  0  0  0
 22 23  2  0  0  0  0
 22 25  1  0  0  0  0
 23 24  1  0  0  0  0
 25 26  2  0  0  0  0
 26 27  1  0  0  0  0
M  END
>  <CHROM.1>
104.66748375,-65.97122537,176.56622413,-62.33023252,-100.81657213,41.20889472
137.83745443,8.58518792,-7.79573546,21.78041497,2.38677260,-0.50640177,1.10430858

>  <Name>
ligand

>  <RI>
0

>  <Rbt.Current_Directory>
/home/itssahil/PROJECTS/Mol_Feturizer/New_Systems/rnas/3GX5

>  <Rbt.Executable>
rbdock ($Id: //depot/dev/client3/rdock/2013.1/src/exe/rbdock.cxx#4 $)

>  <Rbt.Library>
libRbt.so (2013.1, Build901 2013/11/27)

>  <Rbt.Parameter_File>
/export/apps/rDock/src/rDock_2013.1_src/data/scripts/dock_solv.prm

>  <Rbt.Receptor>
prm/blind_docking_40.prm

>  <SCORE>
-11.522

>  <SCORE.INTER>
-13.5145

>  <SCORE.INTER.CONST>
1

>  <SCORE.INTER.POLAR>
0

>  <SCORE.INTER.ROT>
7

>  <SCORE.INTER.SOLV>
9.14065

>  <SCORE.INTER.VDW>
-20.3232

>  <SCORE.INTER.norm>
-0.500538

>  <SCORE.INTRA>
1.99248

>  <SCORE.INTRA.DIHEDRAL>
3.05428

>  <SCORE.INTRA.DIHEDRAL.0>
4.28829

>  <SCORE.INTRA.POLAR>
0

>  <SCORE.INTRA.POLAR.0>
0

>  <SCORE.INTRA.REPUL>
0

>  <SCORE.INTRA.REPUL.0>
0

>  <SCORE.INTRA.SOLV>
-0.441674

>  <SCORE.INTRA.SOLV.lig_0>
-48.6018

>  <SCORE.INTRA.VDW>
0.686177

>  <SCORE.INTRA.VDW.0>
-2.1506

>  <SCORE.INTRA.norm>
0.0737956

>  <SCORE.RESTR>
0

>  <SCORE.RESTR.CAVITY>
0

>  <SCORE.RESTR.norm>
0

>  <SCORE.SYSTEM>
0

>  <SCORE.SYSTEM.CONST>
0

>  <SCORE.SYSTEM.DIHEDRAL>
0

>  <SCORE.SYSTEM.SOLV>
0

>  <SCORE.SYSTEM.norm>
0

>  <SCORE.heavy>
27

>  <SCORE.norm>
-0.426743

>  <RMSD>
15.482

$$$$
ligand
 OpenBabel11021811483D
libRbt.so/2013.1/901 2013/11/27
 27 29  0  0  0  0  0  0  0  0999 V2000
    3.8243   -5.4211   20.2239 N   0  0  0  0  0  0  0  0  0  0  0  0
    4.1170   -5.0398   21.6069 C   0  0  2  0  0  0  0  0  0  0  0  0
    3.0142   -4.2619   22.3290 C   0  0  0  0  0  0  0  0  0  0  0  0
    2.2509   -3.5618   21.6649 O   0  0  0  0  0  0  0  0  0  0  0  0
    5.4403   -4.2985   21.6978 C   0  0  0  0  0  0  0  0  0  0  0  0
    5.9078   -4.1647   23.1369 C   0  0  0  0  0  0  0  0  0  0  0  0
    7.4704   -3.2718   23.2181 S   0  0  2  0  0  0  0  0  0  0  0  0
    7.0499   -1.8152   22.2380 C   0  0  0  0  0  0  0  0  0  0  0  0
    8.4376   -4.1882   21.9961 C   0  0  0  0  0  0  0  0  0  0  0  0
    8.7086   -5.6038   22.4712 C   0  0  1  0  0  0  0  0  0  0  0  0
    9.4923   -6.3018   21.5306 O   0  0  0  0  0  0  0  0  0  0  0  0
    9.5061   -5.6478   23.7598 C   0  0  1  0  0  0  0  0  0  0  0  0
    8.6053   -5.7126   24.8365 O   0  0  0  0  0  0  0  0  0  0  0  0
   10.3043   -6.9302   23.6392 C   0  0  1  0  0  0  0  0  0  0  0  0
    9.6366   -7.9140   24.3971 O   0  0  0  0  0  0  0  0  0  0  0  0
   10.2927   -7.2916   22.1524 C   0  0  2  0  0  0  0  0  0  0  0  0
    2.8573   -4.2997   23.5524 O   0  0  0  0  0  0  0  0  0  0  0  0
   13.7481   -9.1172   18.6674 N   0  0  0  0  0  0  0  0  0  0  0  0
   12.4619   -9.5483   18.8845 C   0  0  0  0  0  0  0  0  0  0  0  0
   11.7021   -8.9369   19.8574 N   0  0  0  0  0  0  0  0  0  0  0  0
   12.1995   -7.9209   20.5975 C   0  0  0  0  0  0  0  0  0  0  0  0
   13.4917   -7.4654   20.3803 C   0  0  0  0  0  0  0  0  0  0  0  0
   14.2763   -8.0804   19.4068 C   0  0  0  0  0  0  0  0  0  0  0  0
   15.5249   -7.6757   19.1730 N   0  0  0  0  0  0  0  0  0  0  0  0
   13.7257   -6.4451   21.2454 N   0  0  0  0  0  0  0  0  0  0  0  0
   12.6065   -6.2478   21.9796 C   0  0  0  0  0  0  0  0  0  0  0  0
   11.6486   -7.1495   21.5856 N   0  0  0  0  0  0  0  0  0  0  0  0
  2  1  1  6  0  0  0
  2  3  1  0  0  0  0
  2  5  1  0  0  0  0
  3  4  1  0  0  0  0
  3 17  1  0  0  0  0
  5  6  1  0  0  0  0
  7  6  1  6  0  0  0
  7  8  1  0  0  0  0
  7  9  1  0  0  0  0
 10  9  1  6  0  0  0
 10 11  1  0  0  0  0
 10 12  1  0  0  0  0
 11 16  1  0  0  0  0
 12 13  1  1  0  0  0
 12 14  1  0  0  0  0
 14 15  1  1  0  0  0
 14 16  1  0  0  0  0
 16 27  1  6  0  0  0
 18 19  2  0  0  0  0
 18 23  1  0  0  0  0
 19 20  1  0  0  0  0
 20 21  2  0  0  0  0
 21 22  1  0  0  0  0
 21 27  1  0  0  0  0
 22 23  2  0  0  0  0
 22 25  1  0  0  0  0
 23 24  1  0  0  0  0
 25 26  2  0  0  0  0
 26 27  1  0  0  0  0
M  END
>  <CHROM.1>
-28.38980400,-167.49325539,-179.55473558,51.28847395,-67.03680364,-178.46324179
-100.17448955,8.98529267,-5.89443624,21.84257561,2.73595069,-0.25868648,1.04664043

>  <Name>
ligand

>  <RI>
0

>  <Rbt.Current_Directory>
/home/itssahil/PROJECTS/Mol_Feturizer/New_Systems/rnas/3GX5

>  <Rbt.Executable>
rbdock ($Id: //depot/dev/client3/rdock/2013.1/src/exe/rbdock.cxx#4 $)

>  <Rbt.Library>
libRbt.so (2013.1, Build901 2013/11/27)

>  <Rbt.Parameter_File>
/export/apps/rDock/src/rDock_2013.1_src/data/scripts/dock_solv.prm

>  <Rbt.Receptor>
prm/blind_docking_80.prm

>  <SCORE>
-11.1017

>  <SCORE.INTER>
-12.6197

>  <SCORE.INTER.CONST>
1

>  <SCORE.INTER.POLAR>
0

>  <SCORE.INTER.ROT>
7

>  <SCORE.INTER.SOLV>
10.2457

>  <SCORE.INTER.VDW>
-20.095

>  <SCORE.INTER.norm>
-0.467397

>  <SCORE.INTRA>
1.51803

>  <SCORE.INTRA.DIHEDRAL>
-0.268083

>  <SCORE.INTRA.DIHEDRAL.0>
4.28829

>  <SCORE.INTRA.POLAR>
0

>  <SCORE.INTRA.POLAR.0>
0

>  <SCORE.INTRA.REPUL>
0

>  <SCORE.INTRA.REPUL.0>
0

>  <SCORE.INTRA.SOLV>
-0.994246

>  <SCORE.INTRA.SOLV.lig_0>
-48.6018

>  <SCORE.INTRA.VDW>
2.1492

>  <SCORE.INTRA.VDW.0>
-2.1506

>  <SCORE.INTRA.norm>
0.0562235

>  <SCORE.RESTR>
0

>  <SCORE.RESTR.CAVITY>
0

>  <SCORE.RESTR.norm>
0

>  <SCORE.SYSTEM>
0

>  <SCORE.SYSTEM.CONST>
0

>  <SCORE.SYSTEM.DIHEDRAL>
0

>  <SCORE.SYSTEM.SOLV>
0

>  <SCORE.SYSTEM.norm>
0

>  <SCORE.heavy>
27

>  <SCORE.norm>
-0.411174

>  <RMSD>
15.506

$$$$
ligand
 OpenBabel11021811483D
libRbt.so/2013.1/901 2013/11/27
 27 29  0  0  0  0  0  0  0  0999 V2000
    7.7882   -5.4247   25.2686 N   0  0  0  0  0  0  0  0  0  0  0  0
    7.5909   -6.7595   25.8371 C   0  0  2  0  0  0  0  0  0  0  0  0
    8.1503   -6.9706   27.2461 C   0  0  0  0  0  0  0  0  0  0  0  0
    8.9465   -6.1480   27.6968 O   0  0  0  0  0  0  0  0  0  0  0  0
    8.1037   -7.8337   24.8927 C   0  0  0  0  0  0  0  0  0  0  0  0
    9.5717   -7.6303   24.5598 C   0  0  0  0  0  0  0  0  0  0  0  0
   10.2103   -9.0269   23.6180 S   0  0  2  0  0  0  0  0  0  0  0  0
   11.9758   -8.6521   23.6607 C   0  0  0  0  0  0  0  0  0  0  0  0
    9.8291   -8.4908   21.9340 C   0  0  0  0  0  0  0  0  0  0  0  0
    8.3398   -8.5879   21.6590 C   0  0  1  0  0  0  0  0  0  0  0  0
    7.6888   -7.3920   22.0225 O   0  0  0  0  0  0  0  0  0  0  0  0
    8.0258   -8.7770   20.1879 C   0  0  1  0  0  0  0  0  0  0  0  0
    7.9221  -10.1547   19.9304 O   0  0  0  0  0  0  0  0  0  0  0  0
    6.6862   -8.0889   20.0200 C   0  0  1  0  0  0  0  0  0  0  0  0
    5.6945   -9.0911   20.0291 O   0  0  0  0  0  0  0  0  0  0  0  0
    6.5353   -7.1665   21.2315 C   0  0  2  0  0  0  0  0  0  0  0  0
    7.8431   -7.9346   27.9526 O   0  0  0  0  0  0  0  0  0  0  0  0
    9.4457   -2.8200   20.9972 N   0  0  0  0  0  0  0  0  0  0  0  0
    9.8041   -4.0486   21.4966 C   0  0  0  0  0  0  0  0  0  0  0  0
    8.8896   -5.0785   21.4715 N   0  0  0  0  0  0  0  0  0  0  0  0
    7.6500   -4.9007   20.9621 C   0  0  0  0  0  0  0  0  0  0  0  0
    7.2783   -3.6697   20.4415 C   0  0  0  0  0  0  0  0  0  0  0  0
    8.1887   -2.6153   20.4692 C   0  0  0  0  0  0  0  0  0  0  0  0
    7.8667   -1.4156   19.9847 N   0  0  0  0  0  0  0  0  0  0  0  0
    5.9999   -3.7739   19.9954 N   0  0  0  0  0  0  0  0  0  0  0  0
    5.5783   -5.0412   20.2118 C   0  0  0  0  0  0  0  0  0  0  0  0
    6.5914   -5.7545   20.8037 N   0  0  0  0  0  0  0  0  0  0  0  0
  2  1  1  6  0  0  0
  2  3  1  0  0  0  0
  2  5  1  0  0  0  0
  3  4  1  0  0  0  0
  3 17  1  0  0  0  0
  5  6  1  0  0  0  0
  7  6  1  1  0  0  0
  7  8  1  0  0  0  0
  7  9  1  0  0  0  0
 10  9  1  6  0  0  0
 10 11  1  0  0  0  0
 10 12  1  0  0  0  0
 11 16  1  0  0  0  0
 12 13  1  1  0  0  0
 12 14  1  0  0  0  0
 14 15  1  1  0  0  0
 14 16  1  0  0  0  0
 16 27  1  6  0  0  0
 18 19  2  0  0  0  0
 18 23  1  0  0  0  0
 19 20  1  0  0  0  0
 20 21  2  0  0  0  0
 21 22  1  0  0  0  0
 21 27  1  0  0  0  0
 22 23  2  0  0  0  0
 22 25  1  0  0  0  0
 23 24  1  0  0  0  0
 25 26  2  0  0  0  0
 26 27  1  0  0  0  0
M  END
>  <CHROM.1>
-14.80066207,57.31880687,172.60621482,-169.70630118,-72.99816303,88.89141260
9.38341893,8.19594032,-6.62657632,22.50676855,-0.22441416,-1.29926040,0.32639208

>  <Name>
ligand

>  <RI>
0

>  <Rbt.Current_Directory>
/home/itssahil/PROJECTS/Mol_Feturizer/New_Systems/rnas/3GX5

>  <Rbt.Executable>
rbdock ($Id: //depot/dev/client3/rdock/2013.1/src/exe/rbdock.cxx#4 $)

>  <Rbt.Library>
libRbt.so (2013.1, Build901 2013/11/27)

>  <Rbt.Parameter_File>
/export/apps/rDock/src/rDock_2013.1_src/data/scripts/dock_solv.prm

>  <Rbt.Receptor>
prm/blind_docking_60.prm

>  <SCORE>
-10.1973

>  <SCORE.INTER>
-10.714

>  <SCORE.INTER.CONST>
1

>  <SCORE.INTER.POLAR>
0

>  <SCORE.INTER.ROT>
7

>  <SCORE.INTER.SOLV>
9.13868

>  <SCORE.INTER.VDW>
-18.4556

>  <SCORE.INTER.norm>
-0.396816

>  <SCORE.INTRA>
0.516701

>  <SCORE.INTRA.DIHEDRAL>
2.97632

>  <SCORE.INTRA.DIHEDRAL.0>
4.28829

>  <SCORE.INTRA.POLAR>
0

>  <SCORE.INTRA.POLAR.0>
0

>  <SCORE.INTRA.REPUL>
0

>  <SCORE.INTRA.REPUL.0>
0

>  <SCORE.INTRA.SOLV>
0.0829296

>  <SCORE.INTRA.SOLV.lig_0>
-48.6018

>  <SCORE.INTRA.VDW>
-1.01292

>  <SCORE.INTRA.VDW.0>
-2.1506

>  <SCORE.INTRA.norm>
0.0191371

>  <SCORE.RESTR>
0

>  <SCORE.RESTR.CAVITY>
0

>  <SCORE.RESTR.norm>
0

>  <SCORE.SYSTEM>
0

>  <SCORE.SYSTEM.CONST>
0

>  <SCORE.SYSTEM.DIHEDRAL>
0

>  <SCORE.SYSTEM.SOLV>
0

>  <SCORE.SYSTEM.norm>
0

>  <SCORE.heavy>
27

>  <SCORE.norm>
-0.377679

>  <RMSD>
15.523

$$$$
ligand
 OpenBabel11021811483D
libRbt.so/2013.1/901 2013/11/27
 27 29  0  0  0  0  0  0  0  0999 V2000
    3.8222   -4.0591   21.4272 N   0  0  0  0  0  0  0  0  0  0  0  0
    4.7793   -3.7620   22.4947 C   0  0  2  0  0  0  0  0  0  0  0  0
    5.7043   -2.5684   22.2441 C   0  0  0  0  0  0  0  0  0  0  0  0
    6.0295   -2.3035   21.0875 O   0  0  0  0  0  0  0  0  0  0  0  0
    5.5873   -4.9961   22.8592 C   0  0  0  0  0  0  0  0  0  0  0  0
    6.3683   -4.7925   24.1460 C   0  0  0  0  0  0  0  0  0  0  0  0
    7.2631   -6.2912   24.5915 S   0  0  2  0  0  0  0  0  0  0  0  0
    7.9138   -5.8000   26.2023 C   0  0  0  0  0  0  0  0  0  0  0  0
    8.7558   -6.0937   23.5908 C   0  0  0  0  0  0  0  0  0  0  0  0
    9.6657   -7.3001   23.7317 C   0  0  1  0  0  0  0  0  0  0  0  0
    9.0738   -8.4391   23.1500 O   0  0  0  0  0  0  0  0  0  0  0  0
   10.9859   -7.1274   23.0067 C   0  0  1  0  0  0  0  0  0  0  0  0
   11.9257   -6.6101   23.9146 O   0  0  0  0  0  0  0  0  0  0  0  0
   11.3494   -8.5384   22.5909 C   0  0  1  0  0  0  0  0  0  0  0  0
   12.2926   -9.0212   23.5211 O   0  0  0  0  0  0  0  0  0  0  0  0
   10.0510   -9.3445   22.6681 C   0  0  2  0  0  0  0  0  0  0  0  0
    6.1458   -1.8594   23.1524 O   0  0  0  0  0  0  0  0  0  0  0  0
   11.4715   -9.9188   17.6611 N   0  0  0  0  0  0  0  0  0  0  0  0
   12.2497   -9.5093   18.7164 C   0  0  0  0  0  0  0  0  0  0  0  0
   11.6888   -9.4185   19.9714 N   0  0  0  0  0  0  0  0  0  0  0  0
   10.3895   -9.7278   20.1806 C   0  0  0  0  0  0  0  0  0  0  0  0
    9.5947  -10.1561   19.1273 C   0  0  0  0  0  0  0  0  0  0  0  0
   10.1449  -10.2432   17.8502 C   0  0  0  0  0  0  0  0  0  0  0  0
    9.4118  -10.6443   16.8113 N   0  0  0  0  0  0  0  0  0  0  0  0
    8.3520  -10.4037   19.6159 N   0  0  0  0  0  0  0  0  0  0  0  0
    8.3631  -10.1554   20.9458 C   0  0  0  0  0  0  0  0  0  0  0  0
    9.6201   -9.7425   21.3131 N   0  0  0  0  0  0  0  0  0  0  0  0
  2  1  1  6  0  0  0
  2  3  1  0  0  0  0
  2  5  1  0  0  0  0
  3  4  1  0  0  0  0
  3 17  1  0  0  0  0
  5  6  1  0  0  0  0
  7  6  1  6  0  0  0
  7  8  1  0  0  0  0
  7  9  1  0  0  0  0
 10  9  1  6  0  0  0
 10 11  1  0  0  0  0
 10 12  1  0  0  0  0
 11 16  1  0  0  0  0
 12 13  1  1  0  0  0
 12 14  1  0  0  0  0
 14 15  1  1  0  0  0
 14 16  1  0  0  0  0
 16 27  1  6  0  0  0
 18 19  2  0  0  0  0
 18 23  1  0  0  0  0
 19 20  1  0  0  0  0
 20 21  2  0  0  0  0
 21 22  1  0  0  0  0
 21 27  1  0  0  0  0
 22 23  2  0  0  0  0
 22 25  1  0  0  0  0
 23 24  1  0  0  0  0
 25 26  2  0  0  0  0
 26 27  1  0  0  0  0
M  END
>  <CHROM.1>
-30.85926380,-167.98746955,177.67534180,-174.06486237,-176.74463366,67.66705727
129.77567188,8.75820326,-7.22613961,21.94402955,2.38052170,-0.69677001,1.12861287

>  <Name>
ligand

>  <RI>
0

>  <Rbt.Current_Directory>
/home/itssahil/PROJECTS/Mol_Feturizer/New_Systems/rnas/3GX5

>  <Rbt.Executable>
rbdock ($Id: //depot/dev/client3/rdock/2013.1/src/exe/rbdock.cxx#4 $)

>  <Rbt.Library>
libRbt.so (2013.1, Build901 2013/11/27)

>  <Rbt.Parameter_File>
/export/apps/rDock/src/rDock_2013.1_src/data/scripts/dock_solv.prm

>  <Rbt.Receptor>
prm/blind_docking_80.prm

>  <SCORE>
-14.4117

>  <SCORE.INTER>
-14.6584

>  <SCORE.INTER.CONST>
1

>  <SCORE.INTER.POLAR>
0

>  <SCORE.INTER.ROT>
7

>  <SCORE.INTER.SOLV>
11.2605

>  <SCORE.INTER.VDW>
-21.7925

>  <SCORE.INTER.norm>
-0.542905

>  <SCORE.INTRA>
0.246773

>  <SCORE.INTRA.DIHEDRAL>
0.931404

>  <SCORE.INTRA.DIHEDRAL.0>
4.28829

>  <SCORE.INTRA.POLAR>
0

>  <SCORE.INTRA.POLAR.0>
0

>  <SCORE.INTRA.REPUL>
0

>  <SCORE.INTRA.REPUL.0>
0

>  <SCORE.INTRA.SOLV>
-1.27799

>  <SCORE.INTRA.SOLV.lig_0>
-48.6018

>  <SCORE.INTRA.VDW>
0.420067

>  <SCORE.INTRA.VDW.0>
-2.1506

>  <SCORE.INTRA.norm>
0.00913972

>  <SCORE.RESTR>
0

>  <SCORE.RESTR.CAVITY>
0

>  <SCORE.RESTR.norm>
0

>  <SCORE.SYSTEM>
0

>  <SCORE.SYSTEM.CONST>
0

>  <SCORE.SYSTEM.DIHEDRAL>
0

>  <SCORE.SYSTEM.SOLV>
0

>  <SCORE.SYSTEM.norm>
0

>  <SCORE.heavy>
27

>  <SCORE.norm>
-0.533766

>  <RMSD>
15.558

$$$$
ligand
 OpenBabel11021811483D
libRbt.so/2013.1/901 2013/11/27
 27 29  0  0  0  0  0  0  0  0999 V2000
    7.6343   -1.2161   19.4952 N   0  0  0  0  0  0  0  0  0  0  0  0
    8.0677   -1.9870   20.6622 C   0  0  2  0  0  0  0  0  0  0  0  0
    9.5790   -2.1820   20.8055 C   0  0  0  0  0  0  0  0  0  0  0  0
   10.3287   -1.2640   20.4755 O   0  0  0  0  0  0  0  0  0  0  0  0
    7.3484   -3.3238   20.7279 C   0  0  0  0  0  0  0  0  0  0  0  0
    7.3869   -3.9106   22.1285 C   0  0  0  0  0  0  0  0  0  0  0  0
    6.5693   -5.5153   22.1692 S   0  0  2  0  0  0  0  0  0  0  0  0
    4.8456   -4.9862   22.2580 C   0  0  0  0  0  0  0  0  0  0  0  0
    6.8326   -5.9757   23.8975 C   0  0  0  0  0  0  0  0  0  0  0  0
    8.1217   -6.7602   24.0585 C   0  0  1  0  0  0  0  0  0  0  0  0
    8.0037   -8.0353   23.4701 O   0  0  0  0  0  0  0  0  0  0  0  0
    9.2968   -6.1086   23.3563 C   0  0  1  0  0  0  0  0  0  0  0  0
    9.9623   -5.2833   24.2789 O   0  0  0  0  0  0  0  0  0  0  0  0
   10.1640   -7.2834   22.9516 C   0  0  1  0  0  0  0  0  0  0  0  0
   11.2024   -7.3861   23.8999 O   0  0  0  0  0  0  0  0  0  0  0  0
    9.2550   -8.5131   23.0086 C   0  0  2  0  0  0  0  0  0  0  0  0
   10.0836   -3.2237   21.2333 O   0  0  0  0  0  0  0  0  0  0  0  0
    5.8605   -8.9511   19.0458 N   0  0  0  0  0  0  0  0  0  0  0  0
    5.6797   -8.3019   20.2429 C   0  0  0  0  0  0  0  0  0  0  0  0
    6.7000   -8.2991   21.1684 N   0  0  0  0  0  0  0  0  0  0  0  0
    7.8739   -8.9207   20.9168 C   0  0  0  0  0  0  0  0  0  0  0  0
    8.0764   -9.5686   19.7069 C   0  0  0  0  0  0  0  0  0  0  0  0
    7.0501   -9.5889   18.7648 C   0  0  0  0  0  0  0  0  0  0  0  0
    7.2039  -10.2066   17.5933 N   0  0  0  0  0  0  0  0  0  0  0  0
    9.3298  -10.0912   19.7179 N   0  0  0  0  0  0  0  0  0  0  0  0
    9.9122   -9.7690   20.8958 C   0  0  0  0  0  0  0  0  0  0  0  0
    9.0259   -9.0375   21.6475 N   0  0  0  0  0  0  0  0  0  0  0  0
  2  1  1  6  0  0  0
  2  3  1  0  0  0  0
  2  5  1  0  0  0  0
  3  4  1  0  0  0  0
  3 17  1  0  0  0  0
  5  6  1  0  0  0  0
  7  6  1  1  0  0  0
  7  8  1  0  0  0  0
  7  9  1  0  0  0  0
 10  9  1  6  0  0  0
 10 11  1  0  0  0  0
 10 12  1  0  0  0  0
 11 16  1  0  0  0  0
 12 13  1  1  0  0  0
 12 14  1  0  0  0  0
 14 15  1  1  0  0  0
 14 16  1  0  0  0  0
 16 27  1  6  0  0  0
 18 19  2  0  0  0  0
 18 23  1  0  0  0  0
 19 20  1  0  0  0  0
 20 21  2  0  0  0  0
 21 22  1  0  0  0  0
 21 27  1  0  0  0  0
 22 23  2  0  0  0  0
 22 25  1  0  0  0  0
 23 24  1  0  0  0  0
 25 26  2  0  0  0  0
 26 27  1  0  0  0  0
M  END
>  <CHROM.1>
36.43741006,-159.64931385,-178.38145783,-80.42255409,-90.76570854,-69.47399603
7.80501834,8.15458694,-6.37660072,21.51661774,1.39294423,-0.91651823,0.00513194

>  <Name>
ligand

>  <RI>
0

>  <Rbt.Current_Directory>
/home/itssahil/PROJECTS/Mol_Feturizer/New_Systems/rnas/3GX5

>  <Rbt.Executable>
rbdock ($Id: //depot/dev/client3/rdock/2013.1/src/exe/rbdock.cxx#4 $)

>  <Rbt.Library>
libRbt.so (2013.1, Build901 2013/11/27)

>  <Rbt.Parameter_File>
/export/apps/rDock/src/rDock_2013.1_src/data/scripts/dock_solv.prm

>  <Rbt.Receptor>
prm/blind_docking_40.prm

>  <SCORE>
-9.51908

>  <SCORE.INTER>
-9.99515

>  <SCORE.INTER.CONST>
1

>  <SCORE.INTER.POLAR>
0

>  <SCORE.INTER.ROT>
7

>  <SCORE.INTER.SOLV>
6.28574

>  <SCORE.INTER.VDW>
-17.0253

>  <SCORE.INTER.norm>
-0.370191

>  <SCORE.INTRA>
0.476069

>  <SCORE.INTRA.DIHEDRAL>
2.4412

>  <SCORE.INTRA.DIHEDRAL.0>
4.28829

>  <SCORE.INTRA.POLAR>
0

>  <SCORE.INTRA.POLAR.0>
0

>  <SCORE.INTRA.REPUL>
0

>  <SCORE.INTRA.REPUL.0>
0

>  <SCORE.INTRA.SOLV>
-0.799473

>  <SCORE.INTRA.SOLV.lig_0>
-48.6018

>  <SCORE.INTRA.VDW>
-0.344792

>  <SCORE.INTRA.VDW.0>
-2.1506

>  <SCORE.INTRA.norm>
0.0176322

>  <SCORE.RESTR>
0

>  <SCORE.RESTR.CAVITY>
0

>  <SCORE.RESTR.norm>
0

>  <SCORE.SYSTEM>
0

>  <SCORE.SYSTEM.CONST>
0

>  <SCORE.SYSTEM.DIHEDRAL>
0

>  <SCORE.SYSTEM.SOLV>
0

>  <SCORE.SYSTEM.norm>
0

>  <SCORE.heavy>
27

>  <SCORE.norm>
-0.352558

>  <RMSD>
15.593

$$$$
ligand
 OpenBabel11021811483D
libRbt.so/2013.1/901 2013/11/27
 27 29  0  0  0  0  0  0  0  0999 V2000
    6.8707    0.8427   17.6364 N   0  0  0  0  0  0  0  0  0  0  0  0
    8.1754    0.2120   17.8454 C   0  0  2  0  0  0  0  0  0  0  0  0
    9.0980    0.1742   16.6247 C   0  0  0  0  0  0  0  0  0  0  0  0
    9.7852    1.1625   16.3706 O   0  0  0  0  0  0  0  0  0  0  0  0
    8.0182   -1.1780   18.4389 C   0  0  0  0  0  0  0  0  0  0  0  0
    7.5359   -1.1195   19.8782 C   0  0  0  0  0  0  0  0  0  0  0  0
    7.3686   -2.7779   20.5614 S   0  0  2  0  0  0  0  0  0  0  0  0
    5.8312   -3.2905   19.7658 C   0  0  0  0  0  0  0  0  0  0  0  0
    6.7397   -2.3926   22.2120 C   0  0  0  0  0  0  0  0  0  0  0  0
    6.7755   -3.6191   23.1050 C   0  0  1  0  0  0  0  0  0  0  0  0
    5.9647   -4.6428   22.5752 O   0  0  0  0  0  0  0  0  0  0  0  0
    8.1601   -4.2273   23.2115 C   0  0  1  0  0  0  0  0  0  0  0  0
    8.7986   -3.6812   24.3381 O   0  0  0  0  0  0  0  0  0  0  0  0
    7.8845   -5.7048   23.4041 C   0  0  1  0  0  0  0  0  0  0  0  0
    8.0098   -5.9800   24.7813 O   0  0  0  0  0  0  0  0  0  0  0  0
    6.4444   -5.9259   22.9364 C   0  0  2  0  0  0  0  0  0  0  0  0
    9.1812   -0.8036   15.8765 O   0  0  0  0  0  0  0  0  0  0  0  0
    8.5675   -9.9829   20.3964 N   0  0  0  0  0  0  0  0  0  0  0  0
    8.8720   -9.5233   21.6547 C   0  0  0  0  0  0  0  0  0  0  0  0
    8.1983   -8.4302   22.1537 N   0  0  0  0  0  0  0  0  0  0  0  0
    7.2432   -7.8065   21.4282 C   0  0  0  0  0  0  0  0  0  0  0  0
    6.9150   -8.2676   20.1616 C   0  0  0  0  0  0  0  0  0  0  0  0
    7.5947   -9.3658   19.6390 C   0  0  0  0  0  0  0  0  0  0  0  0
    7.3126   -9.8345   18.4231 N   0  0  0  0  0  0  0  0  0  0  0  0
    5.9310   -7.4714   19.6696 N   0  0  0  0  0  0  0  0  0  0  0  0
    5.6316   -6.5413   20.6054 C   0  0  0  0  0  0  0  0  0  0  0  0
    6.4309   -6.7394   21.7043 N   0  0  0  0  0  0  0  0  0  0  0  0
  2  1  1  6  0  0  0
  2  3  1  0  0  0  0
  2  5  1  0  0  0  0
  3  4  1  0  0  0  0
  3 17  1  0  0  0  0
  5  6  1  0  0  0  0
  7  6  1  6  0  0  0
  7  8  1  0  0  0  0
  7  9  1  0  0  0  0
 10  9  1  6  0  0  0
 10 11  1  0  0  0  0
 10 12  1  0  0  0  0
 11 16  1  0  0  0  0
 12 13  1  1  0  0  0
 12 14  1  0  0  0  0
 14 15  1  1  0  0  0
 14 16  1  0  0  0  0
 16 27  1  6  0  0  0
 18 19  2  0  0  0  0
 18 23  1  0  0  0  0
 19 20  1  0  0  0  0
 20 21  2  0  0  0  0
 21 22  1  0  0  0  0
 21 27  1  0  0  0  0
 22 23  2  0  0  0  0
 22 25  1  0  0  0  0
 23 24  1  0  0  0  0
 25 26  2  0  0  0  0
 26 27  1  0  0  0  0
M  END
>  <CHROM.1>
83.69555057,-70.08544386,-179.62011197,-76.22804820,-168.46124679,-61.01458954
152.85162238,7.53957867,-4.50225167,20.57080156,-0.73222504,-1.44321731,-2.76358544

>  <Name>
ligand

>  <RI>
0

>  <Rbt.Current_Directory>
/home/itssahil/PROJECTS/Mol_Feturizer/New_Systems/rnas/3GX5

>  <Rbt.Executable>
rbdock ($Id: //depot/dev/client3/rdock/2013.1/src/exe/rbdock.cxx#4 $)

>  <Rbt.Library>
libRbt.so (2013.1, Build901 2013/11/27)

>  <Rbt.Parameter_File>
/export/apps/rDock/src/rDock_2013.1_src/data/scripts/dock_solv.prm

>  <Rbt.Receptor>
prm/blind_docking_40.prm

>  <SCORE>
-7.31673

>  <SCORE.INTER>
-7.60815

>  <SCORE.INTER.CONST>
1

>  <SCORE.INTER.POLAR>
0

>  <SCORE.INTER.ROT>
7

>  <SCORE.INTER.SOLV>
5.07305

>  <SCORE.INTER.VDW>
-15.0298

>  <SCORE.INTER.norm>
-0.281783

>  <SCORE.INTRA>
0.29142

>  <SCORE.INTRA.DIHEDRAL>
0.894631

>  <SCORE.INTRA.DIHEDRAL.0>
4.28829

>  <SCORE.INTRA.POLAR>
0

>  <SCORE.INTRA.POLAR.0>
0

>  <SCORE.INTRA.REPUL>
0

>  <SCORE.INTRA.REPUL.0>
0

>  <SCORE.INTRA.SOLV>
-0.410104

>  <SCORE.INTRA.SOLV.lig_0>
-48.6018

>  <SCORE.INTRA.VDW>
0.0491565

>  <SCORE.INTRA.VDW.0>
-2.1506

>  <SCORE.INTRA.norm>
0.0107933

>  <SCORE.RESTR>
0

>  <SCORE.RESTR.CAVITY>
0

>  <SCORE.RESTR.norm>
0

>  <SCORE.SYSTEM>
0

>  <SCORE.SYSTEM.CONST>
0

>  <SCORE.SYSTEM.DIHEDRAL>
0

>  <SCORE.SYSTEM.SOLV>
0

>  <SCORE.SYSTEM.norm>
0

>  <SCORE.heavy>
27

>  <SCORE.norm>
-0.27099

>  <RMSD>
15.595

$$$$
ligand
 OpenBabel11021811483D
libRbt.so/2013.1/901 2013/11/27
 27 29  0  0  0  0  0  0  0  0999 V2000
    6.2801   -5.2814   28.8978 N   0  0  0  0  0  0  0  0  0  0  0  0
    6.6100   -6.0912   27.7234 C   0  0  2  0  0  0  0  0  0  0  0  0
    7.6221   -7.2158   27.9551 C   0  0  0  0  0  0  0  0  0  0  0  0
    8.5506   -7.0249   28.7393 O   0  0  0  0  0  0  0  0  0  0  0  0
    7.0447   -5.2127   26.5623 C   0  0  0  0  0  0  0  0  0  0  0  0
    7.1664   -6.0089   25.2744 C   0  0  0  0  0  0  0  0  0  0  0  0
    8.7768   -6.8096   25.1708 S   0  0  2  0  0  0  0  0  0  0  0  0
    9.8179   -5.3753   24.8272 C   0  0  0  0  0  0  0  0  0  0  0  0
    8.6855   -7.5201   23.5108 C   0  0  0  0  0  0  0  0  0  0  0  0
    9.8128   -8.5103   23.2830 C   0  0  1  0  0  0  0  0  0  0  0  0
    9.5351   -9.3318   22.1721 O   0  0  0  0  0  0  0  0  0  0  0  0
   11.1298   -7.8348   22.9550 C   0  0  1  0  0  0  0  0  0  0  0  0
   11.8464   -7.6567   24.1507 O   0  0  0  0  0  0  0  0  0  0  0  0
   11.8229   -8.8309   22.0475 C   0  0  1  0  0  0  0  0  0  0  0  0
   12.7530   -9.5405   22.8345 O   0  0  0  0  0  0  0  0  0  0  0  0
   10.7240   -9.7640   21.5344 C   0  0  2  0  0  0  0  0  0  0  0  0
    7.5535   -8.3082   27.3853 O   0  0  0  0  0  0  0  0  0  0  0  0
   12.6150   -7.6101   17.1523 N   0  0  0  0  0  0  0  0  0  0  0  0
   13.1711   -7.5923   18.4083 C   0  0  0  0  0  0  0  0  0  0  0  0
   12.5152   -8.2203   19.4442 N   0  0  0  0  0  0  0  0  0  0  0  0
   11.3380   -8.8544   19.2443 C   0  0  0  0  0  0  0  0  0  0  0  0
   10.7710   -8.8928   17.9787 C   0  0  0  0  0  0  0  0  0  0  0  0
   11.4173   -8.2534   16.9229 C   0  0  0  0  0  0  0  0  0  0  0  0
   10.9009   -8.2623   15.6937 N   0  0  0  0  0  0  0  0  0  0  0  0
    9.6106   -9.5933   18.0623 N   0  0  0  0  0  0  0  0  0  0  0  0
    9.4546  -10.0024   19.3425 C   0  0  0  0  0  0  0  0  0  0  0  0
   10.5201   -9.5589   20.0866 N   0  0  0  0  0  0  0  0  0  0  0  0
  2  1  1  1  0  0  0
  2  3  1  0  0  0  0
  2  5  1  0  0  0  0
  3  4  1  0  0  0  0
  3 17  1  0  0  0  0
  5  6  1  0  0  0  0
  7  6  1  6  0  0  0
  7  8  1  0  0  0  0
  7  9  1  0  0  0  0
 10  9  1  6  0  0  0
 10 11  1  0  0  0  0
 10 12  1  0  0  0  0
 11 16  1  0  0  0  0
 12 13  1  1  0  0  0
 12 14  1  0  0  0  0
 14 15  1  1  0  0  0
 14 16  1  0  0  0  0
 16 27  1  6  0  0  0
 18 19  2  0  0  0  0
 18 23  1  0  0  0  0
 19 20  1  0  0  0  0
 20 21  2  0  0  0  0
 21 22  1  0  0  0  0
 21 27  1  0  0  0  0
 22 23  2  0  0  0  0
 22 25  1  0  0  0  0
 23 24  1  0  0  0  0
 25 26  2  0  0  0  0
 26 27  1  0  0  0  0
M  END
>  <CHROM.1>
-36.34311925,-170.48701622,-84.24624654,-72.94879581,-167.74698292,163.22606909
125.94356711,9.85413177,-7.82830067,22.75493188,1.98545474,-0.34956726,1.47689362

>  <Name>
ligand

>  <RI>
0

>  <Rbt.Current_Directory>
/home/itssahil/PROJECTS/Mol_Feturizer/New_Systems/rnas/3GX5

>  <Rbt.Executable>
rbdock ($Id: //depot/dev/client3/rdock/2013.1/src/exe/rbdock.cxx#4 $)

>  <Rbt.Library>
libRbt.so (2013.1, Build901 2013/11/27)

>  <Rbt.Parameter_File>
/export/apps/rDock/src/rDock_2013.1_src/data/scripts/dock_solv.prm

>  <Rbt.Receptor>
prm/blind_docking_100.prm

>  <SCORE>
-10.418

>  <SCORE.INTER>
-12.3364

>  <SCORE.INTER.CONST>
1

>  <SCORE.INTER.POLAR>
0

>  <SCORE.INTER.ROT>
7

>  <SCORE.INTER.SOLV>
15.3361

>  <SCORE.INTER.VDW>
-21.603

>  <SCORE.INTER.norm>
-0.456903

>  <SCORE.INTRA>
1.91836

>  <SCORE.INTRA.DIHEDRAL>
3.56775

>  <SCORE.INTRA.DIHEDRAL.0>
4.28829

>  <SCORE.INTRA.POLAR>
0

>  <SCORE.INTRA.POLAR.0>
0

>  <SCORE.INTRA.REPUL>
0

>  <SCORE.INTRA.REPUL.0>
0

>  <SCORE.INTRA.SOLV>
-0.848682

>  <SCORE.INTRA.SOLV.lig_0>
-48.6018

>  <SCORE.INTRA.VDW>
0.558823

>  <SCORE.INTRA.VDW.0>
-2.1506

>  <SCORE.INTRA.norm>
0.0710503

>  <SCORE.RESTR>
0

>  <SCORE.RESTR.CAVITY>
0

>  <SCORE.RESTR.norm>
0

>  <SCORE.SYSTEM>
0

>  <SCORE.SYSTEM.CONST>
0

>  <SCORE.SYSTEM.DIHEDRAL>
0

>  <SCORE.SYSTEM.SOLV>
0

>  <SCORE.SYSTEM.norm>
0

>  <SCORE.heavy>
27

>  <SCORE.norm>
-0.385853

>  <RMSD>
15.612

$$$$
ligand
 OpenBabel11021811483D
libRbt.so/2013.1/901 2013/11/27
 27 29  0  0  0  0  0  0  0  0999 V2000
    6.0965    2.4820   15.5878 N   0  0  0  0  0  0  0  0  0  0  0  0
    6.0920    3.2314   16.8457 C   0  0  2  0  0  0  0  0  0  0  0  0
    5.5718    4.6684   16.7608 C   0  0  0  0  0  0  0  0  0  0  0  0
    5.2752    5.1269   15.6583 O   0  0  0  0  0  0  0  0  0  0  0  0
    7.4614    3.1974   17.5033 C   0  0  0  0  0  0  0  0  0  0  0  0
    7.3890    3.6027   18.9655 C   0  0  0  0  0  0  0  0  0  0  0  0
    6.7506    2.2504   19.9700 S   0  0  2  0  0  0  0  0  0  0  0  0
    6.5834    3.0923   21.5582 C   0  0  0  0  0  0  0  0  0  0  0  0
    8.2714    1.3230   20.2793 C   0  0  0  0  0  0  0  0  0  0  0  0
    8.0723    0.3129   21.3943 C   0  0  1  0  0  0  0  0  0  0  0  0
    7.0662   -0.6126   21.0519 O   0  0  0  0  0  0  0  0  0  0  0  0
    9.3083   -0.5257   21.6541 C   0  0  1  0  0  0  0  0  0  0  0  0
   10.0577    0.0922   22.6697 O   0  0  0  0  0  0  0  0  0  0  0  0
    8.7449   -1.8520   22.1226 C   0  0  1  0  0  0  0  0  0  0  0  0
    8.8302   -1.8716   23.5299 O   0  0  0  0  0  0  0  0  0  0  0  0
    7.2838   -1.8695   21.6684 C   0  0  2  0  0  0  0  0  0  0  0  0
    5.4406    5.3941   17.7502 O   0  0  0  0  0  0  0  0  0  0  0  0
    7.5386   -2.9159   16.5441 N   0  0  0  0  0  0  0  0  0  0  0  0
    7.8557   -1.7409   17.1813 C   0  0  0  0  0  0  0  0  0  0  0  0
    7.7199   -1.6591   18.5498 N   0  0  0  0  0  0  0  0  0  0  0  0
    7.2838   -2.7144   19.2735 C   0  0  0  0  0  0  0  0  0  0  0  0
    6.9730   -3.9118   18.6457 C   0  0  0  0  0  0  0  0  0  0  0  0
    7.0953   -4.0070   17.2611 C   0  0  0  0  0  0  0  0  0  0  0  0
    6.8000   -5.1384   16.6206 N   0  0  0  0  0  0  0  0  0  0  0  0
    6.5748   -4.7923   19.5998 N   0  0  0  0  0  0  0  0  0  0  0  0
    6.6473   -4.1753   20.8017 C   0  0  0  0  0  0  0  0  0  0  0  0
    7.0918   -2.8891   20.6179 N   0  0  0  0  0  0  0  0  0  0  0  0
  2  1  1  6  0  0  0
  2  3  1  0  0  0  0
  2  5  1  0  0  0  0
  3  4  1  0  0  0  0
  3 17  1  0  0  0  0
  5  6  1  0  0  0  0
  7  6  1  6  0  0  0
  7  8  1  0  0  0  0
  7  9  1  0  0  0  0
 10  9  1  6  0  0  0
 10 11  1  0  0  0  0
 10 12  1  0  0  0  0
 11 16  1  0  0  0  0
 12 13  1  1  0  0  0
 12 14  1  0  0  0  0
 14 15  1  1  0  0  0
 14 16  1  0  0  0  0
 16 27  1  6  0  0  0
 18 19  2  0  0  0  0
 18 23  1  0  0  0  0
 19 20  1  0  0  0  0
 20 21  2  0  0  0  0
 21 22  1  0  0  0  0
 21 27  1  0  0  0  0
 22 23  2  0  0  0  0
 22 25  1  0  0  0  0
 23 24  1  0  0  0  0
 25 26  2  0  0  0  0
 26 27  1  0  0  0  0
M  END
>  <CHROM.1>
-4.42174090,-163.37034581,77.30412496,-172.96780267,165.87231892,60.47116770
27.33040609,7.23424840,0.00490497,19.33284898,2.16520221,-1.22756185,0.22890472

>  <Name>
ligand

>  <RI>
0

>  <Rbt.Current_Directory>
/home/itssahil/PROJECTS/Mol_Feturizer/New_Systems/rnas/3GX5

>  <Rbt.Executable>
rbdock ($Id: //depot/dev/client3/rdock/2013.1/src/exe/rbdock.cxx#4 $)

>  <Rbt.Library>
libRbt.so (2013.1, Build901 2013/11/27)

>  <Rbt.Parameter_File>
/export/apps/rDock/src/rDock_2013.1_src/data/scripts/dock_solv.prm

>  <Rbt.Receptor>
prm/blind_docking_100.prm

>  <SCORE>
-5.64004

>  <SCORE.INTER>
-5.65729

>  <SCORE.INTER.CONST>
1

>  <SCORE.INTER.POLAR>
0

>  <SCORE.INTER.ROT>
7

>  <SCORE.INTER.SOLV>
5.33978

>  <SCORE.INTER.VDW>
-13.8181

>  <SCORE.INTER.norm>
-0.209529

>  <SCORE.INTRA>
0.0172487

>  <SCORE.INTRA.DIHEDRAL>
1.96291

>  <SCORE.INTRA.DIHEDRAL.0>
4.28829

>  <SCORE.INTRA.POLAR>
0

>  <SCORE.INTRA.POLAR.0>
0

>  <SCORE.INTRA.REPUL>
0

>  <SCORE.INTRA.REPUL.0>
0

>  <SCORE.INTRA.SOLV>
-1.01006

>  <SCORE.INTRA.SOLV.lig_0>
-48.6018

>  <SCORE.INTRA.VDW>
-0.459174

>  <SCORE.INTRA.VDW.0>
-2.1506

>  <SCORE.INTRA.norm>
0.000638842

>  <SCORE.RESTR>
0

>  <SCORE.RESTR.CAVITY>
0

>  <SCORE.RESTR.norm>
0

>  <SCORE.SYSTEM>
0

>  <SCORE.SYSTEM.CONST>
0

>  <SCORE.SYSTEM.DIHEDRAL>
0

>  <SCORE.SYSTEM.SOLV>
0

>  <SCORE.SYSTEM.norm>
0

>  <SCORE.heavy>
27

>  <SCORE.norm>
-0.20889

>  <RMSD>
15.613

$$$$
ligand
 OpenBabel11021811483D
libRbt.so/2013.1/901 2013/11/27
 27 29  0  0  0  0  0  0  0  0999 V2000
    8.0099    7.5136   18.2404 N   0  0  0  0  0  0  0  0  0  0  0  0
    8.9164    6.4809   17.7348 C   0  0  2  0  0  0  0  0  0  0  0  0
    8.4612    5.7629   16.4620 C   0  0  0  0  0  0  0  0  0  0  0  0
    9.3144    5.3473   15.6789 O   0  0  0  0  0  0  0  0  0  0  0  0
    9.2556    5.4756   18.8225 C   0  0  0  0  0  0  0  0  0  0  0  0
    8.0079    4.8097   19.3764 C   0  0  0  0  0  0  0  0  0  0  0  0
    8.3823    3.1511   19.9715 S   0  0  2  0  0  0  0  0  0  0  0  0
    6.8251    2.7548   20.7944 C   0  0  0  0  0  0  0  0  0  0  0  0
    9.3963    3.5404   21.4168 C   0  0  0  0  0  0  0  0  0  0  0  0
   10.1163    2.3038   21.9221 C   0  0  1  0  0  0  0  0  0  0  0  0
    9.2067    1.2458   22.1201 O   0  0  0  0  0  0  0  0  0  0  0  0
   11.1325    1.7705   20.9314 C   0  0  1  0  0  0  0  0  0  0  0  0
   12.3843    2.3329   21.2345 O   0  0  0  0  0  0  0  0  0  0  0  0
   11.1291    0.2773   21.1891 C   0  0  1  0  0  0  0  0  0  0  0  0
   12.2464   -0.0123   21.9989 O   0  0  0  0  0  0  0  0  0  0  0  0
    9.8271   -0.0148   21.9380 C   0  0  2  0  0  0  0  0  0  0  0  0
    7.2731    5.5853   16.1801 O   0  0  0  0  0  0  0  0  0  0  0  0
    8.2924   -1.0700   17.0442 N   0  0  0  0  0  0  0  0  0  0  0  0
    9.2799   -0.2056   17.4501 C   0  0  0  0  0  0  0  0  0  0  0  0
    9.5376   -0.0616   18.7957 N   0  0  0  0  0  0  0  0  0  0  0  0
    8.8383   -0.7575   19.7199 C   0  0  0  0  0  0  0  0  0  0  0  0
    7.8476   -1.6445   19.3247 C   0  0  0  0  0  0  0  0  0  0  0  0
    7.5682   -1.7934   17.9678 C   0  0  0  0  0  0  0  0  0  0  0  0
    6.6192   -2.6310   17.5488 N   0  0  0  0  0  0  0  0  0  0  0  0
    7.3203   -2.2067   20.4427 N   0  0  0  0  0  0  0  0  0  0  0  0
    7.9705   -1.7025   21.5168 C   0  0  0  0  0  0  0  0  0  0  0  0
    8.9193   -0.8082   21.0858 N   0  0  0  0  0  0  0  0  0  0  0  0
  2  1  1  1  0  0  0
  2  3  1  0  0  0  0
  2  5  1  0  0  0  0
  3  4  1  0  0  0  0
  3 17  1  0  0  0  0
  5  6  1  0  0  0  0
  7  6  1  6  0  0  0
  7  8  1  0  0  0  0
  7  9  1  0  0  0  0
 10  9  1  6  0  0  0
 10 11  1  0  0  0  0
 10 12  1  0  0  0  0
 11 16  1  0  0  0  0
 12 13  1  1  0  0  0
 12 14  1  0  0  0  0
 14 15  1  1  0  0  0
 14 16  1  0  0  0  0
 16 27  1  6  0  0  0
 18 19  2  0  0  0  0
 18 23  1  0  0  0  0
 19 20  1  0  0  0  0
 20 21  2  0  0  0  0
 21 22  1  0  0  0  0
 21 27  1  0  0  0  0
 22 23  2  0  0  0  0
 22 25  1  0  0  0  0
 23 24  1  0  0  0  0
 25 26  2  0  0  0  0
 26 27  1  0  0  0  0
M  END
>  <CHROM.1>
149.22282170,58.26120305,151.16303756,170.92080909,-166.67357947,-52.10385125
82.69502583,8.96542233,1.83261444,19.54603502,-1.67709694,0.96897338,2.87696861

>  <Name>
ligand

>  <RI>
0

>  <Rbt.Current_Directory>
/home/itssahil/PROJECTS/Mol_Feturizer/New_Systems/rnas/3GX5

>  <Rbt.Executable>
rbdock ($Id: //depot/dev/client3/rdock/2013.1/src/exe/rbdock.cxx#4 $)

>  <Rbt.Library>
libRbt.so (2013.1, Build901 2013/11/27)

>  <Rbt.Parameter_File>
/export/apps/rDock/src/rDock_2013.1_src/data/scripts/dock_solv.prm

>  <Rbt.Receptor>
prm/blind_docking_60.prm

>  <SCORE>
-6.49437

>  <SCORE.INTER>
-6.79887

>  <SCORE.INTER.CONST>
1

>  <SCORE.INTER.POLAR>
0

>  <SCORE.INTER.ROT>
7

>  <SCORE.INTER.SOLV>
9.79556

>  <SCORE.INTER.VDW>
-16.0644

>  <SCORE.INTER.norm>
-0.25181

>  <SCORE.INTRA>
0.304501

>  <SCORE.INTRA.DIHEDRAL>
3.2471

>  <SCORE.INTRA.DIHEDRAL.0>
4.28829

>  <SCORE.INTRA.POLAR>
0

>  <SCORE.INTRA.POLAR.0>
0

>  <SCORE.INTRA.REPUL>
0

>  <SCORE.INTRA.REPUL.0>
0

>  <SCORE.INTRA.SOLV>
-0.313493

>  <SCORE.INTRA.SOLV.lig_0>
-48.6018

>  <SCORE.INTRA.VDW>
-1.1623

>  <SCORE.INTRA.VDW.0>
-2.1506

>  <SCORE.INTRA.norm>
0.0112778

>  <SCORE.RESTR>
0

>  <SCORE.RESTR.CAVITY>
0

>  <SCORE.RESTR.norm>
0

>  <SCORE.SYSTEM>
0

>  <SCORE.SYSTEM.CONST>
0

>  <SCORE.SYSTEM.DIHEDRAL>
0

>  <SCORE.SYSTEM.SOLV>
0

>  <SCORE.SYSTEM.norm>
0

>  <SCORE.heavy>
27

>  <SCORE.norm>
-0.240532

>  <RMSD>
15.759

$$$$
ligand
 OpenBabel11021811483D
libRbt.so/2013.1/901 2013/11/27
 27 29  0  0  0  0  0  0  0  0999 V2000
   14.9088   -8.8749   18.9497 N   0  0  0  0  0  0  0  0  0  0  0  0
   13.5093   -8.5247   19.2002 C   0  0  2  0  0  0  0  0  0  0  0  0
   12.8093   -7.7463   18.0836 C   0  0  0  0  0  0  0  0  0  0  0  0
   13.4476   -6.8967   17.4635 O   0  0  0  0  0  0  0  0  0  0  0  0
   13.3592   -7.8031   20.5290 C   0  0  0  0  0  0  0  0  0  0  0  0
   11.9209   -7.8250   21.0171 C   0  0  0  0  0  0  0  0  0  0  0  0
   11.7939   -7.0904   22.6570 S   0  0  2  0  0  0  0  0  0  0  0  0
   12.2426   -8.5135   23.6732 C   0  0  0  0  0  0  0  0  0  0  0  0
   10.0009   -7.1083   22.8884 C   0  0  0  0  0  0  0  0  0  0  0  0
    9.6189   -6.4644   24.2084 C   0  0  1  0  0  0  0  0  0  0  0  0
   10.1335   -5.1550   24.2895 O   0  0  0  0  0  0  0  0  0  0  0  0
    8.1198   -6.3105   24.3741 C   0  0  1  0  0  0  0  0  0  0  0  0
    7.6310   -7.4386   25.0549 O   0  0  0  0  0  0  0  0  0  0  0  0
    7.9831   -5.0613   25.2210 C   0  0  1  0  0  0  0  0  0  0  0  0
    7.7622   -5.4764   26.5502 O   0  0  0  0  0  0  0  0  0  0  0  0
    9.3188   -4.3249   25.0984 C   0  0  2  0  0  0  0  0  0  0  0  0
   11.6276   -7.9278   17.7782 O   0  0  0  0  0  0  0  0  0  0  0  0
    6.4467   -1.7681   21.5443 N   0  0  0  0  0  0  0  0  0  0  0  0
    6.2528   -3.0388   22.0289 C   0  0  0  0  0  0  0  0  0  0  0  0
    7.1253   -3.5416   22.9688 N   0  0  0  0  0  0  0  0  0  0  0  0
    8.1645   -2.8056   23.4227 C   0  0  0  0  0  0  0  0  0  0  0  0
    8.3651   -1.5157   22.9530 C   0  0  0  0  0  0  0  0  0  0  0  0
    7.4971   -0.9969   21.9945 C   0  0  0  0  0  0  0  0  0  0  0  0
    7.6607    0.2359   21.5138 N   0  0  0  0  0  0  0  0  0  0  0  0
    9.4609   -1.0103   23.5760 N   0  0  0  0  0  0  0  0  0  0  0  0
    9.9322   -1.9480   24.4300 C   0  0  0  0  0  0  0  0  0  0  0  0
    9.1359   -3.0640   24.3524 N   0  0  0  0  0  0  0  0  0  0  0  0
  2  1  1  6  0  0  0
  2  3  1  0  0  0  0
  2  5  1  0  0  0  0
  3  4  1  0  0  0  0
  3 17  1  0  0  0  0
  5  6  1  0  0  0  0
  7  6  1  6  0  0  0
  7  8  1  0  0  0  0
  7  9  1  0  0  0  0
 10  9  1  6  0  0  0
 10 11  1  0  0  0  0
 10 12  1  0  0  0  0
 11 16  1  0  0  0  0
 12 13  1  1  0  0  0
 12 14  1  0  0  0  0
 14 15  1  1  0  0  0
 14 16  1  0  0  0  0
 16 27  1  6  0  0  0
 18 19  2  0  0  0  0
 18 23  1  0  0  0  0
 19 20  1  0  0  0  0
 20 21  2  0  0  0  0
 21 22  1  0  0  0  0
 21 27  1  0  0  0  0
 22 23  2  0  0  0  0
 22 25  1  0  0  0  0
 23 24  1  0  0  0  0
 25 26  2  0  0  0  0
 26 27  1  0  0  0  0
M  END
>  <CHROM.1>
-37.56192098,-161.80551930,175.10404553,-83.49517060,-177.36611477,55.93691882
87.26977987,9.99625040,-5.30078064,22.43948058,-0.04101438,0.91323273,-0.87223759

>  <Name>
ligand

>  <RI>
0

>  <Rbt.Current_Directory>
/home/itssahil/PROJECTS/Mol_Feturizer/New_Systems/rnas/3GX5

>  <Rbt.Executable>
rbdock ($Id: //depot/dev/client3/rdock/2013.1/src/exe/rbdock.cxx#4 $)

>  <Rbt.Library>
libRbt.so (2013.1, Build901 2013/11/27)

>  <Rbt.Parameter_File>
/export/apps/rDock/src/rDock_2013.1_src/data/scripts/dock_solv.prm

>  <Rbt.Receptor>
prm/blind_docking_60.prm

>  <SCORE>
-11.1234

>  <SCORE.INTER>
-11.0794

>  <SCORE.INTER.CONST>
1

>  <SCORE.INTER.POLAR>
0

>  <SCORE.INTER.ROT>
7

>  <SCORE.INTER.SOLV>
9.38832

>  <SCORE.INTER.VDW>
-18.7824

>  <SCORE.INTER.norm>
-0.410349

>  <SCORE.INTRA>
-0.0508994

>  <SCORE.INTRA.DIHEDRAL>
1.24229

>  <SCORE.INTRA.DIHEDRAL.0>
4.28829

>  <SCORE.INTRA.POLAR>
0

>  <SCORE.INTRA.POLAR.0>
0

>  <SCORE.INTRA.REPUL>
0

>  <SCORE.INTRA.REPUL.0>
0

>  <SCORE.INTRA.SOLV>
-1.24978

>  <SCORE.INTRA.SOLV.lig_0>
-48.6018

>  <SCORE.INTRA.VDW>
-0.0471575

>  <SCORE.INTRA.VDW.0>
-2.1506

>  <SCORE.INTRA.norm>
-0.00188516

>  <SCORE.RESTR>
0.00697329

>  <SCORE.RESTR.CAVITY>
0.00697329

>  <SCORE.RESTR.norm>
0.00025827

>  <SCORE.SYSTEM>
0

>  <SCORE.SYSTEM.CONST>
0

>  <SCORE.SYSTEM.DIHEDRAL>
0

>  <SCORE.SYSTEM.SOLV>
0

>  <SCORE.SYSTEM.norm>
0

>  <SCORE.heavy>
27

>  <SCORE.norm>
-0.411976

>  <RMSD>
15.891

$$$$
ligand
 OpenBabel11021811483D
libRbt.so/2013.1/901 2013/11/27
 27 29  0  0  0  0  0  0  0  0999 V2000
   11.1471  -10.1497   14.8249 N   0  0  0  0  0  0  0  0  0  0  0  0
   10.4749  -10.5856   16.0504 C   0  0  2  0  0  0  0  0  0  0  0  0
   11.2331  -10.3219   17.3537 C   0  0  0  0  0  0  0  0  0  0  0  0
   12.4217  -10.0096   17.2948 O   0  0  0  0  0  0  0  0  0  0  0  0
   10.0671  -12.0463   15.9564 C   0  0  0  0  0  0  0  0  0  0  0  0
    9.0709  -12.4191   17.0409 C   0  0  0  0  0  0  0  0  0  0  0  0
    8.4563  -14.0941   16.7923 S   0  0  2  0  0  0  0  0  0  0  0  0
    7.6374  -13.8933   15.1959 C   0  0  0  0  0  0  0  0  0  0  0  0
    7.0099  -14.0789   17.8769 C   0  0  0  0  0  0  0  0  0  0  0  0
    7.1192  -15.1560   18.9403 C   0  0  1  0  0  0  0  0  0  0  0  0
    6.8815  -16.4289   18.3839 O   0  0  0  0  0  0  0  0  0  0  0  0
    8.5058  -15.2431   19.5471 C   0  0  1  0  0  0  0  0  0  0  0  0
    8.5373  -14.4371   20.6979 O   0  0  0  0  0  0  0  0  0  0  0  0
    8.6451  -16.7090   19.9044 C   0  0  1  0  0  0  0  0  0  0  0  0
    8.3849  -16.8320   21.2847 O   0  0  0  0  0  0  0  0  0  0  0  0
    7.5806  -17.4420   19.0852 C   0  0  2  0  0  0  0  0  0  0  0  0
   10.7073  -10.4136   18.4662 O   0  0  0  0  0  0  0  0  0  0  0  0
   11.5823  -20.6384   17.9952 N   0  0  0  0  0  0  0  0  0  0  0  0
   11.3030  -20.0131   19.1861 C   0  0  0  0  0  0  0  0  0  0  0  0
   10.1938  -19.2013   19.2766 N   0  0  0  0  0  0  0  0  0  0  0  0
    9.3766  -19.0132   18.2162 C   0  0  0  0  0  0  0  0  0  0  0  0
    9.6378  -19.6489   17.0111 C   0  0  0  0  0  0  0  0  0  0  0  0
   10.7617  -20.4649   16.9009 C   0  0  0  0  0  0  0  0  0  0  0  0
   11.0502  -21.0877   15.7578 N   0  0  0  0  0  0  0  0  0  0  0  0
    8.6650  -19.2941   16.1325 N   0  0  0  0  0  0  0  0  0  0  0  0
    7.8010  -18.4695   16.7682 C   0  0  0  0  0  0  0  0  0  0  0  0
    8.2236  -18.2908   18.0624 N   0  0  0  0  0  0  0  0  0  0  0  0
  2  1  1  6  0  0  0
  2  3  1  0  0  0  0
  2  5  1  0  0  0  0
  3  4  1  0  0  0  0
  3 17  1  0  0  0  0
  5  6  1  0  0  0  0
  7  6  1  1  0  0  0
  7  8  1  0  0  0  0
  7  9  1  0  0  0  0
 10  9  1  6  0  0  0
 10 11  1  0  0  0  0
 10 12  1  0  0  0  0
 11 16  1  0  0  0  0
 12 13  1  1  0  0  0
 12 14  1  0  0  0  0
 14 15  1  1  0  0  0
 14 16  1  0  0  0  0
 16 27  1  6  0  0  0
 18 19  2  0  0  0  0
 18 23  1  0  0  0  0
 19 20  1  0  0  0  0
 20 21  2  0  0  0  0
 21 22  1  0  0  0  0
 21 27  1  0  0  0  0
 22 23  2  0  0  0  0
 22 25  1  0  0  0  0
 23 24  1  0  0  0  0
 25 26  2  0  0  0  0
 26 27  1  0  0  0  0
M  END
>  <CHROM.1>
-13.40358149,-165.34705994,173.30855195,-62.71668875,-121.04143908,-74.39593955
151.74937026,9.29657903,-15.59491199,17.75688724,-1.45431975,-0.85128960
3.09936715

>  <Name>
ligand

>  <RI>
0

>  <Rbt.Current_Directory>
/home/itssahil/PROJECTS/Mol_Feturizer/New_Systems/rnas/3GX5

>  <Rbt.Executable>
rbdock ($Id: //depot/dev/client3/rdock/2013.1/src/exe/rbdock.cxx#4 $)

>  <Rbt.Library>
libRbt.so (2013.1, Build901 2013/11/27)

>  <Rbt.Parameter_File>
/export/apps/rDock/src/rDock_2013.1_src/data/scripts/dock_solv.prm

>  <Rbt.Receptor>
prm/blind_docking_40.prm

>  <SCORE>
-11.9227

>  <SCORE.INTER>
-14.9211

>  <SCORE.INTER.CONST>
1

>  <SCORE.INTER.POLAR>
0

>  <SCORE.INTER.ROT>
7

>  <SCORE.INTER.SOLV>
14.1355

>  <SCORE.INTER.VDW>
-22.9259

>  <SCORE.INTER.norm>
-0.552632

>  <SCORE.INTRA>
2.98884

>  <SCORE.INTRA.DIHEDRAL>
4.9976

>  <SCORE.INTRA.DIHEDRAL.0>
4.28829

>  <SCORE.INTRA.POLAR>
0

>  <SCORE.INTRA.POLAR.0>
0

>  <SCORE.INTRA.REPUL>
0

>  <SCORE.INTRA.REPUL.0>
0

>  <SCORE.INTRA.SOLV>
-0.992644

>  <SCORE.INTRA.SOLV.lig_0>
-48.6018

>  <SCORE.INTRA.VDW>
0.98636

>  <SCORE.INTRA.VDW.0>
-2.1506

>  <SCORE.INTRA.norm>
0.110698

>  <SCORE.RESTR>
0.00948753

>  <SCORE.RESTR.CAVITY>
0.00948753

>  <SCORE.RESTR.norm>
0.00035139

>  <SCORE.SYSTEM>
0

>  <SCORE.SYSTEM.CONST>
0

>  <SCORE.SYSTEM.DIHEDRAL>
0

>  <SCORE.SYSTEM.SOLV>
0

>  <SCORE.SYSTEM.norm>
0

>  <SCORE.heavy>
27

>  <SCORE.norm>
-0.441583

>  <RMSD>
15.902

$$$$
ligand
 OpenBabel11021811483D
libRbt.so/2013.1/901 2013/11/27
 27 29  0  0  0  0  0  0  0  0999 V2000
   11.7206  -10.5572   16.1110 N   0  0  0  0  0  0  0  0  0  0  0  0
   10.8201  -11.2430   15.1822 C   0  0  2  0  0  0  0  0  0  0  0  0
   10.2700  -10.3886   14.0376 C   0  0  0  0  0  0  0  0  0  0  0  0
    9.7660   -9.2978   14.3019 O   0  0  0  0  0  0  0  0  0  0  0  0
    9.6878  -11.9278   15.9291 C   0  0  0  0  0  0  0  0  0  0  0  0
    8.8090  -12.7371   14.9910 C   0  0  0  0  0  0  0  0  0  0  0  0
    7.5992  -13.6953   15.9202 S   0  0  2  0  0  0  0  0  0  0  0  0
    6.6940  -12.3580   16.7274 C   0  0  0  0  0  0  0  0  0  0  0  0
    8.6152  -14.2520   17.3081 C   0  0  0  0  0  0  0  0  0  0  0  0
    7.8015  -15.0987   18.2694 C   0  0  1  0  0  0  0  0  0  0  0  0
    7.2708  -16.2261   17.6111 O   0  0  0  0  0  0  0  0  0  0  0  0
    8.6335  -15.6602   19.4056 C   0  0  1  0  0  0  0  0  0  0  0  0
    8.5545  -14.7736   20.4931 O   0  0  0  0  0  0  0  0  0  0  0  0
    7.9546  -16.9766   19.7253 C   0  0  1  0  0  0  0  0  0  0  0  0
    7.1391  -16.7656   20.8559 O   0  0  0  0  0  0  0  0  0  0  0  0
    7.1038  -17.3167   18.4998 C   0  0  2  0  0  0  0  0  0  0  0  0
   10.3034  -10.7465   12.8571 O   0  0  0  0  0  0  0  0  0  0  0  0
   11.0884  -20.7024   18.2195 N   0  0  0  0  0  0  0  0  0  0  0  0
   10.9304  -19.6572   19.0969 C   0  0  0  0  0  0  0  0  0  0  0  0
    9.8030  -18.8704   19.0109 N   0  0  0  0  0  0  0  0  0  0  0  0
    8.8512  -19.1114   18.0815 C   0  0  0  0  0  0  0  0  0  0  0  0
    8.9902  -20.1717   17.1977 C   0  0  0  0  0  0  0  0  0  0  0  0
   10.1299  -20.9703   17.2654 C   0  0  0  0  0  0  0  0  0  0  0  0
   10.3029  -21.9943   16.4293 N   0  0  0  0  0  0  0  0  0  0  0  0
    7.8988  -20.1873   16.3896 N   0  0  0  0  0  0  0  0  0  0  0  0
    7.0821  -19.1749   16.7621 C   0  0  0  0  0  0  0  0  0  0  0  0
    7.6543  -18.5028   17.8139 N   0  0  0  0  0  0  0  0  0  0  0  0
  2  1  1  1  0  0  0
  2  3  1  0  0  0  0
  2  5  1  0  0  0  0
  3  4  1  0  0  0  0
  3 17  1  0  0  0  0
  5  6  1  0  0  0  0
  7  6  1  6  0  0  0
  7  8  1  0  0  0  0
  7  9  1  0  0  0  0
 10  9  1  6  0  0  0
 10 11  1  0  0  0  0
 10 12  1  0  0  0  0
 11 16  1  0  0  0  0
 12 13  1  1  0  0  0
 12 14  1  0  0  0  0
 14 15  1  1  0  0  0
 14 16  1  0  0  0  0
 16 27  1  6  0  0  0
 18 19  2  0  0  0  0
 18 23  1  0  0  0  0
 19 20  1  0  0  0  0
 20 21  2  0  0  0  0
 21 22  1  0  0  0  0
 21 27  1  0  0  0  0
 22 23  2  0  0  0  0
 22 25  1  0  0  0  0
 23 24  1  0  0  0  0
 25 26  2  0  0  0  0
 26 27  1  0  0  0  0
M  END
>  <CHROM.1>
-49.91145295,-175.37883891,173.16404841,61.33045230,179.70415252,59.05549476
104.54669458,8.85965114,-15.66701829,17.13434790,-1.46134780,-0.94785821
2.88335741

>  <Name>
ligand

>  <RI>
0

>  <Rbt.Current_Directory>
/home/itssahil/PROJECTS/Mol_Feturizer/New_Systems/rnas/3GX5

>  <Rbt.Executable>
rbdock ($Id: //depot/dev/client3/rdock/2013.1/src/exe/rbdock.cxx#4 $)

>  <Rbt.Library>
libRbt.so (2013.1, Build901 2013/11/27)

>  <Rbt.Parameter_File>
/export/apps/rDock/src/rDock_2013.1_src/data/scripts/dock_solv.prm

>  <Rbt.Receptor>
prm/blind_docking_40.prm

>  <SCORE>
-18.321

>  <SCORE.INTER>
-20.569

>  <SCORE.INTER.CONST>
1

>  <SCORE.INTER.POLAR>
0

>  <SCORE.INTER.ROT>
7

>  <SCORE.INTER.SOLV>
16.4902

>  <SCORE.INTER.VDW>
-27.4761

>  <SCORE.INTER.norm>
-0.761815

>  <SCORE.INTRA>
2.24805

>  <SCORE.INTRA.DIHEDRAL>
-0.128466

>  <SCORE.INTRA.DIHEDRAL.0>
4.28829

>  <SCORE.INTRA.POLAR>
0

>  <SCORE.INTRA.POLAR.0>
0

>  <SCORE.INTRA.REPUL>
0

>  <SCORE.INTRA.REPUL.0>
0

>  <SCORE.INTRA.SOLV>
-1.28497

>  <SCORE.INTRA.SOLV.lig_0>
-48.6018

>  <SCORE.INTRA.VDW>
2.95477

>  <SCORE.INTRA.VDW.0>
-2.1506

>  <SCORE.INTRA.norm>
0.0832612

>  <SCORE.RESTR>
0

>  <SCORE.RESTR.CAVITY>
0

>  <SCORE.RESTR.norm>
0

>  <SCORE.SYSTEM>
0

>  <SCORE.SYSTEM.CONST>
0

>  <SCORE.SYSTEM.DIHEDRAL>
0

>  <SCORE.SYSTEM.SOLV>
0

>  <SCORE.SYSTEM.norm>
0

>  <SCORE.heavy>
27

>  <SCORE.norm>
-0.678554

>  <RMSD>
15.995

$$$$
ligand
 OpenBabel11021811483D
libRbt.so/2013.1/901 2013/11/27
 27 29  0  0  0  0  0  0  0  0999 V2000
   11.5533  -10.9866   14.3428 N   0  0  0  0  0  0  0  0  0  0  0  0
   10.1292  -10.6681   14.2241 C   0  0  2  0  0  0  0  0  0  0  0  0
    9.6460   -9.4696   15.0444 C   0  0  0  0  0  0  0  0  0  0  0  0
   10.4811   -8.6981   15.5147 O   0  0  0  0  0  0  0  0  0  0  0  0
    9.2732  -11.8906   14.5101 C   0  0  0  0  0  0  0  0  0  0  0  0
    9.5360  -12.4436   15.9002 C   0  0  0  0  0  0  0  0  0  0  0  0
    8.3656  -13.7548   16.2955 S   0  0  2  0  0  0  0  0  0  0  0  0
    6.9268  -12.7635   16.7499 C   0  0  0  0  0  0  0  0  0  0  0  0
    8.9408  -14.2243   17.9439 C   0  0  0  0  0  0  0  0  0  0  0  0
    7.9110  -15.0853   18.6518 C   0  0  1  0  0  0  0  0  0  0  0  0
    7.4444  -16.1046   17.7977 O   0  0  0  0  0  0  0  0  0  0  0  0
    8.4795  -15.8092   19.8565 C   0  0  1  0  0  0  0  0  0  0  0  0
    8.2532  -15.0186   20.9961 O   0  0  0  0  0  0  0  0  0  0  0  0
    7.6730  -17.0907   19.9134 C   0  0  1  0  0  0  0  0  0  0  0  0
    6.6749  -16.9163   20.8938 O   0  0  0  0  0  0  0  0  0  0  0  0
    7.0472  -17.2527   18.5264 C   0  0  2  0  0  0  0  0  0  0  0  0
    8.4527   -9.2426   15.2621 O   0  0  0  0  0  0  0  0  0  0  0  0
   11.0641  -20.6074   18.3565 N   0  0  0  0  0  0  0  0  0  0  0  0
   10.8516  -19.5917   19.2567 C   0  0  0  0  0  0  0  0  0  0  0  0
    9.7251  -18.8082   19.1343 N   0  0  0  0  0  0  0  0  0  0  0  0
    8.8269  -19.0243   18.1474 C   0  0  0  0  0  0  0  0  0  0  0  0
    9.0208  -20.0550   17.2393 C   0  0  0  0  0  0  0  0  0  0  0  0
   10.1605  -20.8496   17.3437 C   0  0  0  0  0  0  0  0  0  0  0  0
   10.3857  -21.8455   16.4863 N   0  0  0  0  0  0  0  0  0  0  0  0
    7.9750  -20.0504   16.3730 N   0  0  0  0  0  0  0  0  0  0  0  0
    7.1324  -19.0546   16.7322 C   0  0  0  0  0  0  0  0  0  0  0  0
    7.6421  -18.4134   17.8344 N   0  0  0  0  0  0  0  0  0  0  0  0
  2  1  1  1  0  0  0
  2  3  1  0  0  0  0
  2  5  1  0  0  0  0
  3  4  1  0  0  0  0
  3 17  1  0  0  0  0
  5  6  1  0  0  0  0
  7  6  1  1  0  0  0
  7  8  1  0  0  0  0
  7  9  1  0  0  0  0
 10  9  1  6  0  0  0
 10 11  1  0  0  0  0
 10 12  1  0  0  0  0
 11 16  1  0  0  0  0
 12 13  1  1  0  0  0
 12 14  1  0  0  0  0
 14 15  1  1  0  0  0
 14 16  1  0  0  0  0
 16 27  1  6  0  0  0
 18 19  2  0  0  0  0
 18 23  1  0  0  0  0
 19 20  1  0  0  0  0
 20 21  2  0  0  0  0
 21 22  1  0  0  0  0
 21 27  1  0  0  0  0
 22 23  2  0  0  0  0
 22 25  1  0  0  0  0
 23 24  1  0  0  0  0
 25 26  2  0  0  0  0
 26 27  1  0  0  0  0
M  END
>  <CHROM.1>
14.69290682,58.54529217,172.70384848,-79.44883653,165.97210921,47.04084639
95.11305068,8.82454666,-15.53900830,17.34042506,-1.48185987,-0.96734433,2.90258688

>  <Name>
ligand

>  <RI>
0

>  <Rbt.Current_Directory>
/home/itssahil/PROJECTS/Mol_Feturizer/New_Systems/rnas/3GX5

>  <Rbt.Executable>
rbdock ($Id: //depot/dev/client3/rdock/2013.1/src/exe/rbdock.cxx#4 $)

>  <Rbt.Library>
libRbt.so (2013.1, Build901 2013/11/27)

>  <Rbt.Parameter_File>
/export/apps/rDock/src/rDock_2013.1_src/data/scripts/dock_solv.prm

>  <Rbt.Receptor>
prm/blind_docking_40.prm

>  <SCORE>
-17.082

>  <SCORE.INTER>
-17.9524

>  <SCORE.INTER.CONST>
1

>  <SCORE.INTER.POLAR>
0

>  <SCORE.INTER.ROT>
7

>  <SCORE.INTER.SOLV>
15.1606

>  <SCORE.INTER.VDW>
-25.2885

>  <SCORE.INTER.norm>
-0.664904

>  <SCORE.INTRA>
0.870383

>  <SCORE.INTRA.DIHEDRAL>
0.272881

>  <SCORE.INTRA.DIHEDRAL.0>
4.28829

>  <SCORE.INTRA.POLAR>
0

>  <SCORE.INTRA.POLAR.0>
0

>  <SCORE.INTRA.REPUL>
0

>  <SCORE.INTRA.REPUL.0>
0

>  <SCORE.INTRA.SOLV>
-0.510595

>  <SCORE.INTRA.SOLV.lig_0>
-48.6018

>  <SCORE.INTRA.VDW>
0.98924

>  <SCORE.INTRA.VDW.0>
-2.1506

>  <SCORE.INTRA.norm>
0.0322364

>  <SCORE.RESTR>
0

>  <SCORE.RESTR.CAVITY>
0

>  <SCORE.RESTR.norm>
0

>  <SCORE.SYSTEM>
0

>  <SCORE.SYSTEM.CONST>
0

>  <SCORE.SYSTEM.DIHEDRAL>
0

>  <SCORE.SYSTEM.SOLV>
0

>  <SCORE.SYSTEM.norm>
0

>  <SCORE.heavy>
27

>  <SCORE.norm>
-0.632667

>  <RMSD>
16.035

$$$$
ligand
 OpenBabel11021811483D
libRbt.so/2013.1/901 2013/11/27
 27 29  0  0  0  0  0  0  0  0999 V2000
    6.6932   -5.6006   26.3525 N   0  0  0  0  0  0  0  0  0  0  0  0
    7.7304   -6.6155   26.5473 C   0  0  2  0  0  0  0  0  0  0  0  0
    7.9816   -7.0388   27.9967 C   0  0  0  0  0  0  0  0  0  0  0  0
    8.1487   -8.2322   28.2448 O   0  0  0  0  0  0  0  0  0  0  0  0
    9.0304   -6.1990   25.8799 C   0  0  0  0  0  0  0  0  0  0  0  0
    8.9429   -6.3116   24.3676 C   0  0  0  0  0  0  0  0  0  0  0  0
    8.7881   -8.0347   23.8654 S   0  0  2  0  0  0  0  0  0  0  0  0
   10.5254   -8.5251   23.8898 C   0  0  0  0  0  0  0  0  0  0  0  0
    8.5553   -7.8390   22.0832 C   0  0  0  0  0  0  0  0  0  0  0  0
    7.1256   -7.4423   21.7643 C   0  0  1  0  0  0  0  0  0  0  0  0
    6.8252   -6.1812   22.3172 O   0  0  0  0  0  0  0  0  0  0  0  0
    6.8766   -7.2905   20.2766 C   0  0  1  0  0  0  0  0  0  0  0  0
    6.3965   -8.5146   19.7805 O   0  0  0  0  0  0  0  0  0  0  0  0
    5.8100   -6.2168   20.2033 C   0  0  1  0  0  0  0  0  0  0  0  0
    4.5722   -6.8656   20.0166 O   0  0  0  0  0  0  0  0  0  0  0  0
    5.8466   -5.4982   21.5538 C   0  0  2  0  0  0  0  0  0  0  0  0
    8.0192   -6.2362   28.9332 O   0  0  0  0  0  0  0  0  0  0  0  0
   10.0642   -2.4200   21.1604 N   0  0  0  0  0  0  0  0  0  0  0  0
   10.0277   -3.7861   21.3008 C   0  0  0  0  0  0  0  0  0  0  0  0
    8.8087   -4.4216   21.3902 N   0  0  0  0  0  0  0  0  0  0  0  0
    7.6514   -3.7247   21.3391 C   0  0  0  0  0  0  0  0  0  0  0  0
    7.6720   -2.3462   21.1835 C   0  0  0  0  0  0  0  0  0  0  0  0
    8.8973   -1.6880   21.1021 C   0  0  0  0  0  0  0  0  0  0  0  0
    8.9586   -0.3638   20.9590 N   0  0  0  0  0  0  0  0  0  0  0  0
    6.3862   -1.9101   21.1551 N   0  0  0  0  0  0  0  0  0  0  0  0
    5.5723   -2.9846   21.2724 C   0  0  0  0  0  0  0  0  0  0  0  0
    6.3405   -4.1177   21.3801 N   0  0  0  0  0  0  0  0  0  0  0  0
  2  1  1  1  0  0  0
  2  3  1  0  0  0  0
  2  5  1  0  0  0  0
  3  4  1  0  0  0  0
  3 17  1  0  0  0  0
  5  6  1  0  0  0  0
  7  6  1  1  0  0  0
  7  8  1  0  0  0  0
  7  9  1  0  0  0  0
 10  9  1  6  0  0  0
 10 11  1  0  0  0  0
 10 12  1  0  0  0  0
 11 16  1  0  0  0  0
 12 13  1  1  0  0  0
 12 14  1  0  0  0  0
 14 15  1  1  0  0  0
 14 16  1  0  0  0  0
 16 27  1  6  0  0  0
 18 19  2  0  0  0  0
 18 23  1  0  0  0  0
 19 20  1  0  0  0  0
 20 21  2  0  0  0  0
 21 22  1  0  0  0  0
 21 27  1  0  0  0  0
 22 23  2  0  0  0  0
 22 25  1  0  0  0  0
 23 24  1  0  0  0  0
 25 26  2  0  0  0  0
 26 27  1  0  0  0  0
M  END
>  <CHROM.1>
137.95681495,-73.03667814,-66.76441419,-83.14337538,-78.98075048,63.64725263
29.22408378,7.75194935,-5.63812433,22.92760426,-1.18815821,-1.19262825,-0.64626575

>  <Name>
ligand

>  <RI>
0

>  <Rbt.Current_Directory>
/home/itssahil/PROJECTS/Mol_Feturizer/New_Systems/rnas/3GX5

>  <Rbt.Executable>
rbdock ($Id: //depot/dev/client3/rdock/2013.1/src/exe/rbdock.cxx#4 $)

>  <Rbt.Library>
libRbt.so (2013.1, Build901 2013/11/27)

>  <Rbt.Parameter_File>
/export/apps/rDock/src/rDock_2013.1_src/data/scripts/dock_solv.prm

>  <Rbt.Receptor>
prm/blind_docking_60.prm

>  <SCORE>
-9.64631

>  <SCORE.INTER>
-8.48536

>  <SCORE.INTER.CONST>
1

>  <SCORE.INTER.POLAR>
0

>  <SCORE.INTER.ROT>
7

>  <SCORE.INTER.SOLV>
8.40799

>  <SCORE.INTER.VDW>
-16.7262

>  <SCORE.INTER.norm>
-0.314273

>  <SCORE.INTRA>
-1.16095

>  <SCORE.INTRA.DIHEDRAL>
0.956526

>  <SCORE.INTRA.DIHEDRAL.0>
4.28829

>  <SCORE.INTRA.POLAR>
0

>  <SCORE.INTRA.POLAR.0>
0

>  <SCORE.INTRA.REPUL>
0

>  <SCORE.INTRA.REPUL.0>
0

>  <SCORE.INTRA.SOLV>
0.0666675

>  <SCORE.INTRA.SOLV.lig_0>
-48.6018

>  <SCORE.INTRA.VDW>
-1.67255

>  <SCORE.INTRA.VDW.0>
-2.1506

>  <SCORE.INTRA.norm>
-0.0429982

>  <SCORE.RESTR>
0

>  <SCORE.RESTR.CAVITY>
0

>  <SCORE.RESTR.norm>
0

>  <SCORE.SYSTEM>
0

>  <SCORE.SYSTEM.CONST>
0

>  <SCORE.SYSTEM.DIHEDRAL>
0

>  <SCORE.SYSTEM.SOLV>
0

>  <SCORE.SYSTEM.norm>
0

>  <SCORE.heavy>
27

>  <SCORE.norm>
-0.357271

>  <RMSD>
16.052

$$$$
ligand
 OpenBabel11021811483D
libRbt.so/2013.1/901 2013/11/27
 27 29  0  0  0  0  0  0  0  0999 V2000
    6.8417    2.5648   17.2917 N   0  0  0  0  0  0  0  0  0  0  0  0
    6.2438    1.2533   17.0344 C   0  0  2  0  0  0  0  0  0  0  0  0
    5.0105    1.2519   16.1278 C   0  0  0  0  0  0  0  0  0  0  0  0
    5.0445    0.6042   15.0823 O   0  0  0  0  0  0  0  0  0  0  0  0
    5.9507    0.5250   18.3354 C   0  0  0  0  0  0  0  0  0  0  0  0
    7.2288    0.1403   19.0604 C   0  0  0  0  0  0  0  0  0  0  0  0
    6.8566   -0.7959   20.5537 S   0  0  2  0  0  0  0  0  0  0  0  0
    8.5213   -1.3149   21.0210 C   0  0  0  0  0  0  0  0  0  0  0  0
    6.2510   -2.3394   19.8328 C   0  0  0  0  0  0  0  0  0  0  0  0
    5.3928   -3.1008   20.8262 C   0  0  1  0  0  0  0  0  0  0  0  0
    4.9518   -4.3185   20.2703 O   0  0  0  0  0  0  0  0  0  0  0  0
    6.1517   -3.4908   22.0794 C   0  0  1  0  0  0  0  0  0  0  0  0
    5.9596   -2.4872   23.0442 O   0  0  0  0  0  0  0  0  0  0  0  0
    5.4929   -4.7878   22.5036 C   0  0  1  0  0  0  0  0  0  0  0  0
    4.5855   -4.4800   23.5379 O   0  0  0  0  0  0  0  0  0  0  0  0
    4.7516   -5.3038   21.2684 C   0  0  2  0  0  0  0  0  0  0  0  0
    3.9808    1.8774   16.3947 O   0  0  0  0  0  0  0  0  0  0  0  0
    4.1577   -9.6431   18.3987 N   0  0  0  0  0  0  0  0  0  0  0  0
    3.2431   -8.6400   18.6093 C   0  0  0  0  0  0  0  0  0  0  0  0
    3.5886   -7.5698   19.4049 N   0  0  0  0  0  0  0  0  0  0  0  0
    4.8107   -7.4898   19.9773 C   0  0  0  0  0  0  0  0  0  0  0  0
    5.7497   -8.4881   19.7625 C   0  0  0  0  0  0  0  0  0  0  0  0
    5.4116   -9.5821   18.9687 C   0  0  0  0  0  0  0  0  0  0  0  0
    6.2842  -10.5649   18.7441 N   0  0  0  0  0  0  0  0  0  0  0  0
    6.8778   -8.1530   20.4403 N   0  0  0  0  0  0  0  0  0  0  0  0
    6.6656   -6.9662   21.0543 C   0  0  0  0  0  0  0  0  0  0  0  0
    5.3919   -6.5380   20.7717 N   0  0  0  0  0  0  0  0  0  0  0  0
  2  1  1  1  0  0  0
  2  3  1  0  0  0  0
  2  5  1  0  0  0  0
  3  4  1  0  0  0  0
  3 17  1  0  0  0  0
  5  6  1  0  0  0  0
  7  6  1  6  0  0  0
  7  8  1  0  0  0  0
  7  9  1  0  0  0  0
 10  9  1  6  0  0  0
 10 11  1  0  0  0  0
 10 12  1  0  0  0  0
 11 16  1  0  0  0  0
 12 13  1  1  0  0  0
 12 14  1  0  0  0  0
 14 15  1  1  0  0  0
 14 16  1  0  0  0  0
 16 27  1  6  0  0  0
 18 19  2  0  0  0  0
 18 23  1  0  0  0  0
 19 20  1  0  0  0  0
 20 21  2  0  0  0  0
 21 22  1  0  0  0  0
 21 27  1  0  0  0  0
 22 23  2  0  0  0  0
 22 25  1  0  0  0  0
 23 24  1  0  0  0  0
 25 26  2  0  0  0  0
 26 27  1  0  0  0  0
M  END
>  <CHROM.1>
120.49101115,-67.51337415,-177.03492781,171.43084755,-158.59834308,-178.51720211
-87.55609174,5.66899310,-3.71143534,19.69374697,1.27853665,-1.26461318,-0.50596593

>  <Name>
ligand

>  <RI>
0

>  <Rbt.Current_Directory>
/home/itssahil/PROJECTS/Mol_Feturizer/New_Systems/rnas/3GX5

>  <Rbt.Executable>
rbdock ($Id: //depot/dev/client3/rdock/2013.1/src/exe/rbdock.cxx#4 $)

>  <Rbt.Library>
libRbt.so (2013.1, Build901 2013/11/27)

>  <Rbt.Parameter_File>
/export/apps/rDock/src/rDock_2013.1_src/data/scripts/dock_solv.prm

>  <Rbt.Receptor>
prm/blind_docking_60.prm

>  <SCORE>
-5.6203

>  <SCORE.INTER>
-6.37747

>  <SCORE.INTER.CONST>
1

>  <SCORE.INTER.POLAR>
0

>  <SCORE.INTER.ROT>
7

>  <SCORE.INTER.SOLV>
13.082

>  <SCORE.INTER.VDW>
-16.879

>  <SCORE.INTER.norm>
-0.236202

>  <SCORE.INTRA>
0.757163

>  <SCORE.INTRA.DIHEDRAL>
1.6897

>  <SCORE.INTRA.DIHEDRAL.0>
4.28829

>  <SCORE.INTRA.POLAR>
0

>  <SCORE.INTRA.POLAR.0>
0

>  <SCORE.INTRA.REPUL>
0

>  <SCORE.INTRA.REPUL.0>
0

>  <SCORE.INTRA.SOLV>
-0.397048

>  <SCORE.INTRA.SOLV.lig_0>
-48.6018

>  <SCORE.INTRA.VDW>
0.110839

>  <SCORE.INTRA.VDW.0>
-2.1506

>  <SCORE.INTRA.norm>
0.0280431

>  <SCORE.RESTR>
0

>  <SCORE.RESTR.CAVITY>
0

>  <SCORE.RESTR.norm>
0

>  <SCORE.SYSTEM>
0

>  <SCORE.SYSTEM.CONST>
0

>  <SCORE.SYSTEM.DIHEDRAL>
0

>  <SCORE.SYSTEM.SOLV>
0

>  <SCORE.SYSTEM.norm>
0

>  <SCORE.heavy>
27

>  <SCORE.norm>
-0.208159

>  <RMSD>
16.164

$$$$
ligand
 OpenBabel11021811483D
libRbt.so/2013.1/901 2013/11/27
 27 29  0  0  0  0  0  0  0  0999 V2000
   12.9411   -7.5040   18.5612 N   0  0  0  0  0  0  0  0  0  0  0  0
   13.4523   -7.4964   19.9332 C   0  0  2  0  0  0  0  0  0  0  0  0
   14.9400   -7.1704   20.0859 C   0  0  0  0  0  0  0  0  0  0  0  0
   15.2865   -6.3818   20.9644 O   0  0  0  0  0  0  0  0  0  0  0  0
   13.1144   -8.7950   20.6462 C   0  0  0  0  0  0  0  0  0  0  0  0
   11.6596   -8.8311   21.0815 C   0  0  0  0  0  0  0  0  0  0  0  0
   11.3528   -7.6190   22.3784 S   0  0  2  0  0  0  0  0  0  0  0  0
   12.2930   -8.3611   23.7291 C   0  0  0  0  0  0  0  0  0  0  0  0
    9.6811   -8.0896   22.8808 C   0  0  0  0  0  0  0  0  0  0  0  0
    9.2352   -7.2921   24.0925 C   0  0  1  0  0  0  0  0  0  0  0  0
    8.6911   -6.0532   23.6987 O   0  0  0  0  0  0  0  0  0  0  0  0
    8.1310   -7.9781   24.8726 C   0  0  1  0  0  0  0  0  0  0  0  0
    8.7196   -8.7466   25.8914 O   0  0  0  0  0  0  0  0  0  0  0  0
    7.3358   -6.8248   25.4504 C   0  0  1  0  0  0  0  0  0  0  0  0
    7.7416   -6.6640   26.7910 O   0  0  0  0  0  0  0  0  0  0  0  0
    7.7150   -5.5975   24.6188 C   0  0  2  0  0  0  0  0  0  0  0  0
   15.8118   -7.6595   19.3624 O   0  0  0  0  0  0  0  0  0  0  0  0
    4.9763   -6.2886   20.2097 N   0  0  0  0  0  0  0  0  0  0  0  0
    6.0764   -6.9913   20.6377 C   0  0  0  0  0  0  0  0  0  0  0  0
    6.6648   -6.6561   21.8373 N   0  0  0  0  0  0  0  0  0  0  0  0
    6.1765   -5.6516   22.5990 C   0  0  0  0  0  0  0  0  0  0  0  0
    5.0579   -4.9421   22.1868 C   0  0  0  0  0  0  0  0  0  0  0  0
    4.4578   -5.2626   20.9709 C   0  0  0  0  0  0  0  0  0  0  0  0
    3.3854   -4.5996   20.5372 N   0  0  0  0  0  0  0  0  0  0  0  0
    4.7830   -4.0088   23.1342 N   0  0  0  0  0  0  0  0  0  0  0  0
    5.6923   -4.1343   24.1282 C   0  0  0  0  0  0  0  0  0  0  0  0
    6.5588   -5.1527   23.8155 N   0  0  0  0  0  0  0  0  0  0  0  0
  2  1  1  6  0  0  0
  2  3  1  0  0  0  0
  2  5  1  0  0  0  0
  3  4  1  0  0  0  0
  3 17  1  0  0  0  0
  5  6  1  0  0  0  0
  7  6  1  6  0  0  0
  7  8  1  0  0  0  0
  7  9  1  0  0  0  0
 10  9  1  6  0  0  0
 10 11  1  0  0  0  0
 10 12  1  0  0  0  0
 11 16  1  0  0  0  0
 12 13  1  1  0  0  0
 12 14  1  0  0  0  0
 14 15  1  1  0  0  0
 14 16  1  0  0  0  0
 16 27  1  6  0  0  0
 18 19  2  0  0  0  0
 18 23  1  0  0  0  0
 19 20  1  0  0  0  0
 20 21  2  0  0  0  0
 21 22  1  0  0  0  0
 21 27  1  0  0  0  0
 22 23  2  0  0  0  0
 22 25  1  0  0  0  0
 23 24  1  0  0  0  0
 25 26  2  0  0  0  0
 26 27  1  0  0  0  0
M  END
>  <CHROM.1>
135.35344590,-76.85574461,-67.75704665,-68.61749419,173.92736491,85.06231717
29.97625232,9.19405308,-6.77872538,22.43873834,0.21224745,0.30305291,-1.38095439

>  <Name>
ligand

>  <RI>
0

>  <Rbt.Current_Directory>
/home/itssahil/PROJECTS/Mol_Feturizer/New_Systems/rnas/3GX5

>  <Rbt.Executable>
rbdock ($Id: //depot/dev/client3/rdock/2013.1/src/exe/rbdock.cxx#4 $)

>  <Rbt.Library>
libRbt.so (2013.1, Build901 2013/11/27)

>  <Rbt.Parameter_File>
/export/apps/rDock/src/rDock_2013.1_src/data/scripts/dock_solv.prm

>  <Rbt.Receptor>
prm/blind_docking_60.prm

>  <SCORE>
-12.7955

>  <SCORE.INTER>
-13.1702

>  <SCORE.INTER.CONST>
1

>  <SCORE.INTER.POLAR>
0

>  <SCORE.INTER.ROT>
7

>  <SCORE.INTER.SOLV>
11.116

>  <SCORE.INTER.VDW>
-20.7522

>  <SCORE.INTER.norm>
-0.487787

>  <SCORE.INTRA>
0.374735

>  <SCORE.INTRA.DIHEDRAL>
2.49775

>  <SCORE.INTRA.DIHEDRAL.0>
4.28829

>  <SCORE.INTRA.POLAR>
0

>  <SCORE.INTRA.POLAR.0>
0

>  <SCORE.INTRA.REPUL>
0

>  <SCORE.INTRA.REPUL.0>
0

>  <SCORE.INTRA.SOLV>
-0.281174

>  <SCORE.INTRA.SOLV.lig_0>
-48.6018

>  <SCORE.INTRA.VDW>
-0.733554

>  <SCORE.INTRA.VDW.0>
-2.1506

>  <SCORE.INTRA.norm>
0.0138791

>  <SCORE.RESTR>
0

>  <SCORE.RESTR.CAVITY>
0

>  <SCORE.RESTR.norm>
0

>  <SCORE.SYSTEM>
0

>  <SCORE.SYSTEM.CONST>
0

>  <SCORE.SYSTEM.DIHEDRAL>
0

>  <SCORE.SYSTEM.SOLV>
0

>  <SCORE.SYSTEM.norm>
0

>  <SCORE.heavy>
27

>  <SCORE.norm>
-0.473908

>  <RMSD>
16.197

$$$$
ligand
 OpenBabel11021811483D
libRbt.so/2013.1/901 2013/11/27
 27 29  0  0  0  0  0  0  0  0999 V2000
    9.0856  -11.9692   16.8537 N   0  0  0  0  0  0  0  0  0  0  0  0
    8.0372  -11.2428   17.5728 C   0  0  2  0  0  0  0  0  0  0  0  0
    6.6464  -11.2795   16.9346 C   0  0  0  0  0  0  0  0  0  0  0  0
    5.6651  -11.4303   17.6611 O   0  0  0  0  0  0  0  0  0  0  0  0
    8.4604   -9.8097   17.8484 C   0  0  0  0  0  0  0  0  0  0  0  0
    9.3026   -9.7085   19.1085 C   0  0  0  0  0  0  0  0  0  0  0  0
    8.3145  -10.0860   20.5667 S   0  0  2  0  0  0  0  0  0  0  0  0
    7.4157   -8.5307   20.7469 C   0  0  0  0  0  0  0  0  0  0  0  0
    9.5515   -9.8715   21.8677 C   0  0  0  0  0  0  0  0  0  0  0  0
   10.2936   -8.5587   21.6981 C   0  0  1  0  0  0  0  0  0  0  0  0
    9.5205   -7.4850   22.1834 O   0  0  0  0  0  0  0  0  0  0  0  0
   11.5838   -8.5070   22.4925 C   0  0  1  0  0  0  0  0  0  0  0  0
   12.6335   -8.9342   21.6614 O   0  0  0  0  0  0  0  0  0  0  0  0
   11.7273   -7.0392   22.8406 C   0  0  1  0  0  0  0  0  0  0  0  0
   12.6444   -6.4783   21.9284 O   0  0  0  0  0  0  0  0  0  0  0  0
   10.3368   -6.4279   22.6558 C   0  0  2  0  0  0  0  0  0  0  0  0
    6.4627  -11.1699   15.7193 O   0  0  0  0  0  0  0  0  0  0  0  0
    8.0333   -8.0411   27.0727 N   0  0  0  0  0  0  0  0  0  0  0  0
    8.4528   -8.8071   26.0123 C   0  0  0  0  0  0  0  0  0  0  0  0
    9.0413   -8.1927   24.9288 N   0  0  0  0  0  0  0  0  0  0  0  0
    9.2147   -6.8525   24.8940 C   0  0  0  0  0  0  0  0  0  0  0  0
    8.8089   -6.0673   25.9633 C   0  0  0  0  0  0  0  0  0  0  0  0
    8.2027   -6.6729   27.0619 C   0  0  0  0  0  0  0  0  0  0  0  0
    7.7932   -5.9517   28.1059 N   0  0  0  0  0  0  0  0  0  0  0  0
    9.1078   -4.7755   25.6697 N   0  0  0  0  0  0  0  0  0  0  0  0
    9.7023   -4.7444   24.4547 C   0  0  0  0  0  0  0  0  0  0  0  0
    9.7826   -6.0241   23.9634 N   0  0  0  0  0  0  0  0  0  0  0  0
  2  1  1  6  0  0  0
  2  3  1  0  0  0  0
  2  5  1  0  0  0  0
  3  4  1  0  0  0  0
  3 17  1  0  0  0  0
  5  6  1  0  0  0  0
  7  6  1  6  0  0  0
  7  8  1  0  0  0  0
  7  9  1  0  0  0  0
 10  9  1  1  0  0  0
 10 11  1  0  0  0  0
 10 12  1  0  0  0  0
 11 16  1  0  0  0  0
 12 13  1  6  0  0  0
 12 14  1  0  0  0  0
 14 15  1  6  0  0  0
 14 16  1  0  0  0  0
 16 27  1  1  0  0  0
 18 19  2  0  0  0  0
 18 23  1  0  0  0  0
 19 20  1  0  0  0  0
 20 21  2  0  0  0  0
 21 22  1  0  0  0  0
 21 27  1  0  0  0  0
 22 23  2  0  0  0  0
 22 25  1  0  0  0  0
 23 24  1  0  0  0  0
 25 26  2  0  0  0  0
 26 27  1  0  0  0  0
M  END
>  <CHROM.1>
138.49670268,-84.17948636,-67.45918807,-77.64400879,48.79997602,79.26394035
35.20565669,9.07272965,-8.45063724,21.97377059,-1.75209109,0.33446766,1.12433720

>  <Name>
ligand

>  <RI>
0

>  <Rbt.Current_Directory>
/home/itssahil/PROJECTS/Mol_Feturizer/New_Systems/rnas/3GX5

>  <Rbt.Executable>
rbdock ($Id: //depot/dev/client3/rdock/2013.1/src/exe/rbdock.cxx#4 $)

>  <Rbt.Library>
libRbt.so (2013.1, Build901 2013/11/27)

>  <Rbt.Parameter_File>
/export/apps/rDock/src/rDock_2013.1_src/data/scripts/dock_solv.prm

>  <Rbt.Receptor>
prm/blind_docking_80.prm

>  <SCORE>
-10.4409

>  <SCORE.INTER>
-12.7489

>  <SCORE.INTER.CONST>
1

>  <SCORE.INTER.POLAR>
0

>  <SCORE.INTER.ROT>
7

>  <SCORE.INTER.SOLV>
10.497

>  <SCORE.INTER.VDW>
-20.265

>  <SCORE.INTER.norm>
-0.472183

>  <SCORE.INTRA>
2.30806

>  <SCORE.INTRA.DIHEDRAL>
2.86082

>  <SCORE.INTRA.DIHEDRAL.0>
4.28829

>  <SCORE.INTRA.POLAR>
0

>  <SCORE.INTRA.POLAR.0>
0

>  <SCORE.INTRA.REPUL>
0

>  <SCORE.INTRA.REPUL.0>
0

>  <SCORE.INTRA.SOLV>
-0.249219

>  <SCORE.INTRA.SOLV.lig_0>
-48.6018

>  <SCORE.INTRA.VDW>
1.00226

>  <SCORE.INTRA.VDW.0>
-2.1506

>  <SCORE.INTRA.norm>
0.0854838

>  <SCORE.RESTR>
0

>  <SCORE.RESTR.CAVITY>
0

>  <SCORE.RESTR.norm>
0

>  <SCORE.SYSTEM>
0

>  <SCORE.SYSTEM.CONST>
0

>  <SCORE.SYSTEM.DIHEDRAL>
0

>  <SCORE.SYSTEM.SOLV>
0

>  <SCORE.SYSTEM.norm>
0

>  <SCORE.heavy>
27

>  <SCORE.norm>
-0.386699

>  <RMSD>
16.233

$$$$
ligand
 OpenBabel11021811483D
libRbt.so/2013.1/901 2013/11/27
 27 29  0  0  0  0  0  0  0  0999 V2000
    6.2825   -1.2254   18.5852 N   0  0  0  0  0  0  0  0  0  0  0  0
    6.4367   -1.4180   20.0285 C   0  0  2  0  0  0  0  0  0  0  0  0
    7.8168   -1.0830   20.5995 C   0  0  0  0  0  0  0  0  0  0  0  0
    8.8143   -1.3369   19.9256 O   0  0  0  0  0  0  0  0  0  0  0  0
    6.0156   -2.8194   20.4378 C   0  0  0  0  0  0  0  0  0  0  0  0
    6.0731   -3.0023   21.9446 C   0  0  0  0  0  0  0  0  0  0  0  0
    5.6721   -4.6996   22.3957 S   0  0  2  0  0  0  0  0  0  0  0  0
    3.9423   -4.4969   22.8709 C   0  0  0  0  0  0  0  0  0  0  0  0
    6.4265   -4.7917   24.0362 C   0  0  0  0  0  0  0  0  0  0  0  0
    6.8694   -6.2090   24.3497 C   0  0  1  0  0  0  0  0  0  0  0  0
    7.7146   -6.7009   23.3349 O   0  0  0  0  0  0  0  0  0  0  0  0
    7.6868   -6.3002   25.6232 C   0  0  1  0  0  0  0  0  0  0  0  0
    6.8171   -6.5898   26.6884 O   0  0  0  0  0  0  0  0  0  0  0  0
    8.6281   -7.4578   25.3582 C   0  0  1  0  0  0  0  0  0  0  0  0
    8.0927   -8.5914   26.0034 O   0  0  0  0  0  0  0  0  0  0  0  0
    8.6354   -7.6516   23.8403 C   0  0  2  0  0  0  0  0  0  0  0  0
    7.9770   -0.5729   21.7117 O   0  0  0  0  0  0  0  0  0  0  0  0
   12.3124   -8.7853   20.2890 N   0  0  0  0  0  0  0  0  0  0  0  0
   11.1018   -9.4067   20.4768 C   0  0  0  0  0  0  0  0  0  0  0  0
   10.2633   -8.9604   21.4745 N   0  0  0  0  0  0  0  0  0  0  0  0
   10.6107   -7.9219   22.2673 C   0  0  0  0  0  0  0  0  0  0  0  0
   11.8238   -7.2753   22.0806 C   0  0  0  0  0  0  0  0  0  0  0  0
   12.6872   -7.7217   21.0823 C   0  0  0  0  0  0  0  0  0  0  0  0
   13.8645   -7.1309   20.8762 N   0  0  0  0  0  0  0  0  0  0  0  0
   11.9100   -6.2767   22.9968 N   0  0  0  0  0  0  0  0  0  0  0  0
   10.7750   -6.2792   23.7333 C   0  0  0  0  0  0  0  0  0  0  0  0
    9.9561   -7.2880   23.2893 N   0  0  0  0  0  0  0  0  0  0  0  0
  2  1  1  6  0  0  0
  2  3  1  0  0  0  0
  2  5  1  0  0  0  0
  3  4  1  0  0  0  0
  3 17  1  0  0  0  0
  5  6  1  0  0  0  0
  7  6  1  1  0  0  0
  7  8  1  0  0  0  0
  7  9  1  0  0  0  0
 10  9  1  6  0  0  0
 10 11  1  0  0  0  0
 10 12  1  0  0  0  0
 11 16  1  0  0  0  0
 12 13  1  1  0  0  0
 12 14  1  0  0  0  0
 14 15  1  1  0  0  0
 14 16  1  0  0  0  0
 16 27  1  6  0  0  0
 18 19  2  0  0  0  0
 18 23  1  0  0  0  0
 19 20  1  0  0  0  0
 20 21  2  0  0  0  0
 21 22  1  0  0  0  0
 21 27  1  0  0  0  0
 22 23  2  0  0  0  0
 22 25  1  0  0  0  0
 23 24  1  0  0  0  0
 25 26  2  0  0  0  0
 26 27  1  0  0  0  0
M  END
>  <CHROM.1>
-36.31063712,-175.82824140,-176.36403108,-99.37263735,-150.77892240,54.23265520
-104.03499569,8.48595391,-5.52836336,22.48678648,-2.37692375,-0.54818920
2.39456829

>  <Name>
ligand

>  <RI>
0

>  <Rbt.Current_Directory>
/home/itssahil/PROJECTS/Mol_Feturizer/New_Systems/rnas/3GX5

>  <Rbt.Executable>
rbdock ($Id: //depot/dev/client3/rdock/2013.1/src/exe/rbdock.cxx#4 $)

>  <Rbt.Library>
libRbt.so (2013.1, Build901 2013/11/27)

>  <Rbt.Parameter_File>
/export/apps/rDock/src/rDock_2013.1_src/data/scripts/dock_solv.prm

>  <Rbt.Receptor>
prm/blind_docking_40.prm

>  <SCORE>
-7.74661

>  <SCORE.INTER>
-9.64284

>  <SCORE.INTER.CONST>
1

>  <SCORE.INTER.POLAR>
0

>  <SCORE.INTER.ROT>
7

>  <SCORE.INTER.SOLV>
14.1165

>  <SCORE.INTER.VDW>
-19.4007

>  <SCORE.INTER.norm>
-0.357142

>  <SCORE.INTRA>
1.89623

>  <SCORE.INTRA.DIHEDRAL>
4.60693

>  <SCORE.INTRA.DIHEDRAL.0>
4.28829

>  <SCORE.INTRA.POLAR>
0

>  <SCORE.INTRA.POLAR.0>
0

>  <SCORE.INTRA.REPUL>
0

>  <SCORE.INTRA.REPUL.0>
0

>  <SCORE.INTRA.SOLV>
-1.32787

>  <SCORE.INTRA.SOLV.lig_0>
-48.6018

>  <SCORE.INTRA.VDW>
0.256705

>  <SCORE.INTRA.VDW.0>
-2.1506

>  <SCORE.INTRA.norm>
0.0702308

>  <SCORE.RESTR>
0

>  <SCORE.RESTR.CAVITY>
0

>  <SCORE.RESTR.norm>
0

>  <SCORE.SYSTEM>
0

>  <SCORE.SYSTEM.CONST>
0

>  <SCORE.SYSTEM.DIHEDRAL>
0

>  <SCORE.SYSTEM.SOLV>
0

>  <SCORE.SYSTEM.norm>
0

>  <SCORE.heavy>
27

>  <SCORE.norm>
-0.286911

>  <RMSD>
16.260

$$$$
ligand
 OpenBabel11021811483D
libRbt.so/2013.1/901 2013/11/27
 27 29  0  0  0  0  0  0  0  0999 V2000
   -1.3897  -14.4834   10.5503 N   0  0  0  0  0  0  0  0  0  0  0  0
   -0.7539  -13.3281    9.9140 C   0  0  2  0  0  0  0  0  0  0  0  0
   -1.4686  -11.9881   10.1046 C   0  0  0  0  0  0  0  0  0  0  0  0
   -2.6932  -11.9813   10.2229 O   0  0  0  0  0  0  0  0  0  0  0  0
   -0.4986  -13.5920    8.4396 C   0  0  0  0  0  0  0  0  0  0  0  0
    0.4985  -14.7201    8.2385 C   0  0  0  0  0  0  0  0  0  0  0  0
    0.7775  -15.0179    6.4838 S   0  0  2  0  0  0  0  0  0  0  0  0
   -0.8135  -15.7417    6.0324 C   0  0  0  0  0  0  0  0  0  0  0  0
    1.7811  -16.5198    6.5599 C   0  0  0  0  0  0  0  0  0  0  0  0
    3.2392  -16.1844    6.8140 C   0  0  1  0  0  0  0  0  0  0  0  0
    4.0808  -17.1443    6.2170 O   0  0  0  0  0  0  0  0  0  0  0  0
    3.6525  -14.8610    6.2008 C   0  0  1  0  0  0  0  0  0  0  0  0
    3.4984  -13.8557    7.1707 O   0  0  0  0  0  0  0  0  0  0  0  0
    5.1140  -15.0694    5.8594 C   0  0  1  0  0  0  0  0  0  0  0  0
    5.8749  -14.4652    6.8811 O   0  0  0  0  0  0  0  0  0  0  0  0
    5.3287  -16.5844    5.8480 C   0  0  2  0  0  0  0  0  0  0  0  0
   -0.8719  -10.9085   10.1398 O   0  0  0  0  0  0  0  0  0  0  0  0
    3.5449  -16.8784    0.9338 N   0  0  0  0  0  0  0  0  0  0  0  0
    2.9391  -16.2887    2.0166 C   0  0  0  0  0  0  0  0  0  0  0  0
    3.5718  -16.3165    3.2400 N   0  0  0  0  0  0  0  0  0  0  0  0
    4.7768  -16.9105    3.3907 C   0  0  0  0  0  0  0  0  0  0  0  0
    5.4073  -17.4979    2.3035 C   0  0  0  0  0  0  0  0  0  0  0  0
    4.7753  -17.4870    1.0618 C   0  0  0  0  0  0  0  0  0  0  0  0
    5.3459  -18.0467   -0.0054 N   0  0  0  0  0  0  0  0  0  0  0  0
    6.5922  -18.0045    2.7317 N   0  0  0  0  0  0  0  0  0  0  0  0
    6.7175  -17.7308    4.0508 C   0  0  0  0  0  0  0  0  0  0  0  0
    5.6041  -17.0469    4.4731 N   0  0  0  0  0  0  0  0  0  0  0  0
  2  1  1  6  0  0  0
  2  3  1  0  0  0  0
  2  5  1  0  0  0  0
  3  4  1  0  0  0  0
  3 17  1  0  0  0  0
  5  6  1  0  0  0  0
  7  6  1  1  0  0  0
  7  8  1  0  0  0  0
  7  9  1  0  0  0  0
 10  9  1  6  0  0  0
 10 11  1  0  0  0  0
 10 12  1  0  0  0  0
 11 16  1  0  0  0  0
 12 13  1  1  0  0  0
 12 14  1  0  0  0  0
 14 15  1  1  0  0  0
 14 16  1  0  0  0  0
 16 27  1  6  0  0  0
 18 19  2  0  0  0  0
 18 23  1  0  0  0  0
 19 20  1  0  0  0  0
 20 21  2  0  0  0  0
 21 22  1  0  0  0  0
 21 27  1  0  0  0  0
 22 23  2  0  0  0  0
 22 25  1  0  0  0  0
 23 24  1  0  0  0  0
 25 26  2  0  0  0  0
 26 27  1  0  0  0  0
M  END
>  <CHROM.1>
-30.74493662,-64.42455916,179.73045937,-70.40888014,-82.74907784,-149.56406808
53.97492114,2.60188161,-15.41572258,5.91227368,2.23805513,-0.15609833,1.13739709

>  <Name>
ligand

>  <RI>
0

>  <Rbt.Current_Directory>
/home/itssahil/PROJECTS/Mol_Feturizer/New_Systems/rnas/3GX5

>  <Rbt.Executable>
rbdock ($Id: //depot/dev/client3/rdock/2013.1/src/exe/rbdock.cxx#4 $)

>  <Rbt.Library>
libRbt.so (2013.1, Build901 2013/11/27)

>  <Rbt.Parameter_File>
/export/apps/rDock/src/rDock_2013.1_src/data/scripts/dock_solv.prm

>  <Rbt.Receptor>
prm/blind_docking_20.prm

>  <SCORE>
-2.06231

>  <SCORE.INTER>
-3.61734

>  <SCORE.INTER.CONST>
1

>  <SCORE.INTER.POLAR>
0

>  <SCORE.INTER.ROT>
7

>  <SCORE.INTER.SOLV>
17.6465

>  <SCORE.INTER.VDW>
-16.5604

>  <SCORE.INTER.norm>
-0.133976

>  <SCORE.INTRA>
1.43158

>  <SCORE.INTRA.DIHEDRAL>
2.50198

>  <SCORE.INTRA.DIHEDRAL.0>
4.28829

>  <SCORE.INTRA.POLAR>
0

>  <SCORE.INTRA.POLAR.0>
0

>  <SCORE.INTRA.REPUL>
0

>  <SCORE.INTRA.REPUL.0>
0

>  <SCORE.INTRA.SOLV>
-0.117364

>  <SCORE.INTRA.SOLV.lig_0>
-48.6018

>  <SCORE.INTRA.VDW>
0.239272

>  <SCORE.INTRA.VDW.0>
-2.1506

>  <SCORE.INTRA.norm>
0.0530214

>  <SCORE.RESTR>
0.123458

>  <SCORE.RESTR.CAVITY>
0.123458

>  <SCORE.RESTR.norm>
0.0045725

>  <SCORE.SYSTEM>
0

>  <SCORE.SYSTEM.CONST>
0

>  <SCORE.SYSTEM.DIHEDRAL>
0

>  <SCORE.SYSTEM.SOLV>
0

>  <SCORE.SYSTEM.norm>
0

>  <SCORE.heavy>
27

>  <SCORE.norm>
-0.0763817

>  <RMSD>
16.437

$$$$
ligand
 OpenBabel11021811483D
libRbt.so/2013.1/901 2013/11/27
 27 29  0  0  0  0  0  0  0  0999 V2000
    7.5447  -10.2823   19.4329 N   0  0  0  0  0  0  0  0  0  0  0  0
    8.5864   -9.2901   19.1607 C   0  0  2  0  0  0  0  0  0  0  0  0
    9.9032   -9.8434   18.6106 C   0  0  0  0  0  0  0  0  0  0  0  0
    9.9541  -11.0254   18.2729 O   0  0  0  0  0  0  0  0  0  0  0  0
    8.8409   -8.4207   20.3807 C   0  0  0  0  0  0  0  0  0  0  0  0
    9.3527   -9.2396   21.5532 C   0  0  0  0  0  0  0  0  0  0  0  0
    9.9104   -8.1636   22.8860 S   0  0  2  0  0  0  0  0  0  0  0  0
   10.3779   -9.4022   24.1134 C   0  0  0  0  0  0  0  0  0  0  0  0
    8.3223   -7.6416   23.5746 C   0  0  0  0  0  0  0  0  0  0  0  0
    8.5128   -6.9533   24.9137 C   0  0  1  0  0  0  0  0  0  0  0  0
    9.4450   -5.9021   24.8035 O   0  0  0  0  0  0  0  0  0  0  0  0
    7.2426   -6.3026   25.4250 C   0  0  1  0  0  0  0  0  0  0  0  0
    6.5795   -7.2193   26.2587 O   0  0  0  0  0  0  0  0  0  0  0  0
    7.7473   -5.1128   26.2162 C   0  0  1  0  0  0  0  0  0  0  0  0
    7.7268   -5.4745   27.5788 O   0  0  0  0  0  0  0  0  0  0  0  0
    9.1820   -4.8731   25.7410 C   0  0  2  0  0  0  0  0  0  0  0  0
   10.9228   -9.1580   18.4947 O   0  0  0  0  0  0  0  0  0  0  0  0
    9.2022   -2.5999   21.0240 N   0  0  0  0  0  0  0  0  0  0  0  0
    9.0680   -3.9356   21.3155 C   0  0  0  0  0  0  0  0  0  0  0  0
    9.0892   -4.3432   22.6312 N   0  0  0  0  0  0  0  0  0  0  0  0
    9.2366   -3.4520   23.6370 C   0  0  0  0  0  0  0  0  0  0  0  0
    9.3593   -2.0984   23.3590 C   0  0  0  0  0  0  0  0  0  0  0  0
    9.3501   -1.6717   22.0327 C   0  0  0  0  0  0  0  0  0  0  0  0
    9.4720   -0.3802   21.7248 N   0  0  0  0  0  0  0  0  0  0  0  0
    9.4832   -1.4393   24.5399 N   0  0  0  0  0  0  0  0  0  0  0  0
    9.4236   -2.3484   25.5402 C   0  0  0  0  0  0  0  0  0  0  0  0
    9.2637   -3.5998   24.9980 N   0  0  0  0  0  0  0  0  0  0  0  0
  2  1  1  1  0  0  0
  2  3  1  0  0  0  0
  2  5  1  0  0  0  0
  3  4  1  0  0  0  0
  3 17  1  0  0  0  0
  5  6  1  0  0  0  0
  7  6  1  6  0  0  0
  7  8  1  0  0  0  0
  7  9  1  0  0  0  0
 10  9  1  6  0  0  0
 10 11  1  0  0  0  0
 10 12  1  0  0  0  0
 11 16  1  0  0  0  0
 12 13  1  1  0  0  0
 12 14  1  0  0  0  0
 14 15  1  1  0  0  0
 14 16  1  0  0  0  0
 16 27  1  6  0  0  0
 18 19  2  0  0  0  0
 18 23  1  0  0  0  0
 19 20  1  0  0  0  0
 20 21  2  0  0  0  0
 21 22  1  0  0  0  0
 21 27  1  0  0  0  0
 22 23  2  0  0  0  0
 22 25  1  0  0  0  0
 23 24  1  0  0  0  0
 25 26  2  0  0  0  0
 26 27  1  0  0  0  0
M  END
>  <CHROM.1>
9.17068295,62.52751029,170.36304969,177.84469826,167.72118046,53.41246561
15.88624814,9.04484007,-6.14692326,22.90136432,1.25880326,-1.32327954,-2.80810468

>  <Name>
ligand

>  <RI>
0

>  <Rbt.Current_Directory>
/home/itssahil/PROJECTS/Mol_Feturizer/New_Systems/rnas/3GX5

>  <Rbt.Executable>
rbdock ($Id: //depot/dev/client3/rdock/2013.1/src/exe/rbdock.cxx#4 $)

>  <Rbt.Library>
libRbt.so (2013.1, Build901 2013/11/27)

>  <Rbt.Parameter_File>
/export/apps/rDock/src/rDock_2013.1_src/data/scripts/dock_solv.prm

>  <Rbt.Receptor>
prm/blind_docking_100.prm

>  <SCORE>
-8.9208

>  <SCORE.INTER>
-8.47685

>  <SCORE.INTER.CONST>
1

>  <SCORE.INTER.POLAR>
0

>  <SCORE.INTER.ROT>
7

>  <SCORE.INTER.SOLV>
9.89419

>  <SCORE.INTER.VDW>
-17.216

>  <SCORE.INTER.norm>
-0.313957

>  <SCORE.INTRA>
-0.443952

>  <SCORE.INTRA.DIHEDRAL>
-0.103358

>  <SCORE.INTRA.DIHEDRAL.0>
4.28829

>  <SCORE.INTRA.POLAR>
0

>  <SCORE.INTRA.POLAR.0>
0

>  <SCORE.INTRA.REPUL>
0

>  <SCORE.INTRA.REPUL.0>
0

>  <SCORE.INTRA.SOLV>
-0.520888

>  <SCORE.INTRA.SOLV.lig_0>
-48.6018

>  <SCORE.INTRA.VDW>
-0.131829

>  <SCORE.INTRA.VDW.0>
-2.1506

>  <SCORE.INTRA.norm>
-0.0164427

>  <SCORE.RESTR>
0

>  <SCORE.RESTR.CAVITY>
0

>  <SCORE.RESTR.norm>
0

>  <SCORE.SYSTEM>
0

>  <SCORE.SYSTEM.CONST>
0

>  <SCORE.SYSTEM.DIHEDRAL>
0

>  <SCORE.SYSTEM.SOLV>
0

>  <SCORE.SYSTEM.norm>
0

>  <SCORE.heavy>
27

>  <SCORE.norm>
-0.3304

>  <RMSD>
16.441

$$$$
ligand
 OpenBabel11021811483D
libRbt.so/2013.1/901 2013/11/27
 27 29  0  0  0  0  0  0  0  0999 V2000
    6.6432    0.7449   17.9886 N   0  0  0  0  0  0  0  0  0  0  0  0
    7.8177    0.7666   18.8626 C   0  0  2  0  0  0  0  0  0  0  0  0
    8.7099    2.0048   18.7455 C   0  0  0  0  0  0  0  0  0  0  0  0
    8.9101    2.4876   17.6318 O   0  0  0  0  0  0  0  0  0  0  0  0
    8.6397   -0.5009   18.6998 C   0  0  0  0  0  0  0  0  0  0  0  0
    9.7029   -0.6195   19.7782 C   0  0  0  0  0  0  0  0  0  0  0  0
    8.9487   -0.9313   21.3842 S   0  0  2  0  0  0  0  0  0  0  0  0
   10.4176   -0.8905   22.4330 C   0  0  0  0  0  0  0  0  0  0  0  0
    8.6964   -2.7190   21.2884 C   0  0  0  0  0  0  0  0  0  0  0  0
    8.1060   -3.2525   22.5806 C   0  0  1  0  0  0  0  0  0  0  0  0
    6.7860   -2.7893   22.7518 O   0  0  0  0  0  0  0  0  0  0  0  0
    7.9989   -4.7646   22.5967 C   0  0  1  0  0  0  0  0  0  0  0  0
    9.1613   -5.2849   23.1909 O   0  0  0  0  0  0  0  0  0  0  0  0
    6.7818   -5.0248   23.4610 C   0  0  1  0  0  0  0  0  0  0  0  0
    7.2452   -5.3663   24.7481 O   0  0  0  0  0  0  0  0  0  0  0  0
    6.0052   -3.7069   23.4970 C   0  0  2  0  0  0  0  0  0  0  0  0
    9.2450    2.5408   19.7198 O   0  0  0  0  0  0  0  0  0  0  0  0
    3.5821   -3.3708   18.8674 N   0  0  0  0  0  0  0  0  0  0  0  0
    4.9121   -3.1611   19.1400 C   0  0  0  0  0  0  0  0  0  0  0  0
    5.3638   -3.2969   20.4342 N   0  0  0  0  0  0  0  0  0  0  0  0
    4.5223   -3.6352   21.4367 C   0  0  0  0  0  0  0  0  0  0  0  0
    3.1792   -3.8638   21.1746 C   0  0  0  0  0  0  0  0  0  0  0  0
    2.7052   -3.7202   19.8723 C   0  0  0  0  0  0  0  0  0  0  0  0
    1.4202   -3.9248   19.5816 N   0  0  0  0  0  0  0  0  0  0  0  0
    2.5753   -4.1919   22.3458 N   0  0  0  0  0  0  0  0  0  0  0  0
    3.5131   -4.1881   23.3210 C   0  0  0  0  0  0  0  0  0  0  0  0
    4.7266   -3.8521   22.7731 N   0  0  0  0  0  0  0  0  0  0  0  0
  2  1  1  6  0  0  0
  2  3  1  0  0  0  0
  2  5  1  0  0  0  0
  3  4  1  0  0  0  0
  3 17  1  0  0  0  0
  5  6  1  0  0  0  0
  7  6  1  6  0  0  0
  7  8  1  0  0  0  0
  7  9  1  0  0  0  0
 10  9  1  6  0  0  0
 10 11  1  0  0  0  0
 10 12  1  0  0  0  0
 11 16  1  0  0  0  0
 12 13  1  1  0  0  0
 12 14  1  0  0  0  0
 14 15  1  1  0  0  0
 14 16  1  0  0  0  0
 16 27  1  6  0  0  0
 18 19  2  0  0  0  0
 18 23  1  0  0  0  0
 19 20  1  0  0  0  0
 20 21  2  0  0  0  0
 21 22  1  0  0  0  0
 21 27  1  0  0  0  0
 22 23  2  0  0  0  0
 22 25  1  0  0  0  0
 23 24  1  0  0  0  0
 25 26  2  0  0  0  0
 26 27  1  0  0  0  0
M  END
>  <CHROM.1>
-39.07568804,-169.02976922,69.29644351,-175.83910408,177.69777385,68.07810526
24.82639708,6.74630720,-2.27809525,21.08036234,0.88271064,-0.35999962,-0.77204563

>  <Name>
ligand

>  <RI>
0

>  <Rbt.Current_Directory>
/home/itssahil/PROJECTS/Mol_Feturizer/New_Systems/rnas/3GX5

>  <Rbt.Executable>
rbdock ($Id: //depot/dev/client3/rdock/2013.1/src/exe/rbdock.cxx#4 $)

>  <Rbt.Library>
libRbt.so (2013.1, Build901 2013/11/27)

>  <Rbt.Parameter_File>
/export/apps/rDock/src/rDock_2013.1_src/data/scripts/dock_solv.prm

>  <Rbt.Receptor>
prm/blind_docking_80.prm

>  <SCORE>
-10.8354

>  <SCORE.INTER>
-9.60374

>  <SCORE.INTER.CONST>
1

>  <SCORE.INTER.POLAR>
0

>  <SCORE.INTER.ROT>
7

>  <SCORE.INTER.SOLV>
5.9135

>  <SCORE.INTER.VDW>
-16.6403

>  <SCORE.INTER.norm>
-0.355694

>  <SCORE.INTRA>
-1.23163

>  <SCORE.INTRA.DIHEDRAL>
0.779436

>  <SCORE.INTRA.DIHEDRAL.0>
4.28829

>  <SCORE.INTRA.POLAR>
0

>  <SCORE.INTRA.POLAR.0>
0

>  <SCORE.INTRA.REPUL>
0

>  <SCORE.INTRA.REPUL.0>
0

>  <SCORE.INTRA.SOLV>
-1.03016

>  <SCORE.INTRA.SOLV.lig_0>
-48.6018

>  <SCORE.INTRA.VDW>
-1.10627

>  <SCORE.INTRA.VDW.0>
-2.1506

>  <SCORE.INTRA.norm>
-0.045616

>  <SCORE.RESTR>
0

>  <SCORE.RESTR.CAVITY>
0

>  <SCORE.RESTR.norm>
0

>  <SCORE.SYSTEM>
0

>  <SCORE.SYSTEM.CONST>
0

>  <SCORE.SYSTEM.DIHEDRAL>
0

>  <SCORE.SYSTEM.SOLV>
0

>  <SCORE.SYSTEM.norm>
0

>  <SCORE.heavy>
27

>  <SCORE.norm>
-0.40131

>  <RMSD>
16.468

$$$$
ligand
 OpenBabel11021811483D
libRbt.so/2013.1/901 2013/11/27
 27 29  0  0  0  0  0  0  0  0999 V2000
    5.5410   -8.7908   18.6652 N   0  0  0  0  0  0  0  0  0  0  0  0
    6.4120   -9.9594   18.8045 C   0  0  2  0  0  0  0  0  0  0  0  0
    7.5490   -9.8230   19.8201 C   0  0  0  0  0  0  0  0  0  0  0  0
    7.6891   -8.7539   20.4126 O   0  0  0  0  0  0  0  0  0  0  0  0
    6.9525  -10.3985   17.4540 C   0  0  0  0  0  0  0  0  0  0  0  0
    6.9849  -11.9121   17.3306 C   0  0  0  0  0  0  0  0  0  0  0  0
    8.6266  -12.5471   17.7140 S   0  0  2  0  0  0  0  0  0  0  0  0
    9.5598  -11.8572   16.3312 C   0  0  0  0  0  0  0  0  0  0  0  0
    8.4611  -14.2547   17.1436 C   0  0  0  0  0  0  0  0  0  0  0  0
    7.7200  -15.0974   18.1654 C   0  0  1  0  0  0  0  0  0  0  0  0
    7.1988  -16.2610   17.5651 O   0  0  0  0  0  0  0  0  0  0  0  0
    8.6203  -15.5966   19.2783 C   0  0  1  0  0  0  0  0  0  0  0  0
    8.5601  -14.6801   20.3419 O   0  0  0  0  0  0  0  0  0  0  0  0
    8.0011  -16.9238   19.6669 C   0  0  1  0  0  0  0  0  0  0  0  0
    7.2301  -16.7047   20.8269 O   0  0  0  0  0  0  0  0  0  0  0  0
    7.1084  -17.3287   18.4919 C   0  0  2  0  0  0  0  0  0  0  0  0
    8.3390  -10.7375   20.0698 O   0  0  0  0  0  0  0  0  0  0  0  0
   11.1109  -20.6961   18.2504 N   0  0  0  0  0  0  0  0  0  0  0  0
   10.9444  -19.6456   19.1198 C   0  0  0  0  0  0  0  0  0  0  0  0
    9.8133  -18.8650   19.0240 N   0  0  0  0  0  0  0  0  0  0  0  0
    8.8663  -19.1175   18.0929 C   0  0  0  0  0  0  0  0  0  0  0  0
    9.0139  -20.1833   17.2171 C   0  0  0  0  0  0  0  0  0  0  0  0
   10.1573  -20.9757   17.2948 C   0  0  0  0  0  0  0  0  0  0  0  0
   10.3386  -22.0047   16.4666 N   0  0  0  0  0  0  0  0  0  0  0  0
    7.9256  -20.2101   16.4052 N   0  0  0  0  0  0  0  0  0  0  0  0
    7.1025  -19.1993   16.7674 C   0  0  0  0  0  0  0  0  0  0  0  0
    7.6673  -18.5168   17.8165 N   0  0  0  0  0  0  0  0  0  0  0  0
  2  1  1  6  0  0  0
  2  3  1  0  0  0  0
  2  5  1  0  0  0  0
  3  4  1  0  0  0  0
  3 17  1  0  0  0  0
  5  6  1  0  0  0  0
  7  6  1  6  0  0  0
  7  8  1  0  0  0  0
  7  9  1  0  0  0  0
 10  9  1  6  0  0  0
 10 11  1  0  0  0  0
 10 12  1  0  0  0  0
 11 16  1  0  0  0  0
 12 13  1  1  0  0  0
 12 14  1  0  0  0  0
 14 15  1  1  0  0  0
 14 16  1  0  0  0  0
 16 27  1  6  0  0  0
 18 19  2  0  0  0  0
 18 23  1  0  0  0  0
 19 20  1  0  0  0  0
 20 21  2  0  0  0  0
 21 22  1  0  0  0  0
 21 27  1  0  0  0  0
 22 23  2  0  0  0  0
 22 25  1  0  0  0  0
 23 24  1  0  0  0  0
 25 26  2  0  0  0  0
 26 27  1  0  0  0  0
M  END
>  <CHROM.1>
-2.31052788,-140.36272359,-97.05646676,-66.40168320,-79.26871320,160.16241407
108.02917507,8.27348456,-15.31663315,18.32287249,2.46844653,-1.32188204,0.99209969

>  <Name>
ligand

>  <RI>
0

>  <Rbt.Current_Directory>
/home/itssahil/PROJECTS/Mol_Feturizer/New_Systems/rnas/3GX5

>  <Rbt.Executable>
rbdock ($Id: //depot/dev/client3/rdock/2013.1/src/exe/rbdock.cxx#4 $)

>  <Rbt.Library>
libRbt.so (2013.1, Build901 2013/11/27)

>  <Rbt.Parameter_File>
/export/apps/rDock/src/rDock_2013.1_src/data/scripts/dock_solv.prm

>  <Rbt.Receptor>
prm/blind_docking_80.prm

>  <SCORE>
-16.2913

>  <SCORE.INTER>
-20.1127

>  <SCORE.INTER.CONST>
1

>  <SCORE.INTER.POLAR>
0

>  <SCORE.INTER.ROT>
7

>  <SCORE.INTER.SOLV>
14.8069

>  <SCORE.INTER.VDW>
-26.6108

>  <SCORE.INTER.norm>
-0.744916

>  <SCORE.INTRA>
3.8214

>  <SCORE.INTRA.DIHEDRAL>
8.37086

>  <SCORE.INTRA.DIHEDRAL.0>
4.28829

>  <SCORE.INTRA.POLAR>
0

>  <SCORE.INTRA.POLAR.0>
0

>  <SCORE.INTRA.REPUL>
0

>  <SCORE.INTRA.REPUL.0>
0

>  <SCORE.INTRA.SOLV>
-0.965283

>  <SCORE.INTRA.SOLV.lig_0>
-48.6018

>  <SCORE.INTRA.VDW>
0.118611

>  <SCORE.INTRA.VDW.0>
-2.1506

>  <SCORE.INTRA.norm>
0.141533

>  <SCORE.RESTR>
0

>  <SCORE.RESTR.CAVITY>
0

>  <SCORE.RESTR.norm>
0

>  <SCORE.SYSTEM>
0

>  <SCORE.SYSTEM.CONST>
0

>  <SCORE.SYSTEM.DIHEDRAL>
0

>  <SCORE.SYSTEM.SOLV>
0

>  <SCORE.SYSTEM.norm>
0

>  <SCORE.heavy>
27

>  <SCORE.norm>
-0.603382

>  <RMSD>
16.475

$$$$
ligand
 OpenBabel11021811483D
libRbt.so/2013.1/901 2013/11/27
 27 29  0  0  0  0  0  0  0  0999 V2000
   -2.5135   -9.9137   11.0193 N   0  0  0  0  0  0  0  0  0  0  0  0
   -1.6718  -10.9571   10.4305 C   0  0  2  0  0  0  0  0  0  0  0  0
   -0.5514  -10.4662    9.5104 C   0  0  0  0  0  0  0  0  0  0  0  0
    0.4745  -10.0128   10.0160 O   0  0  0  0  0  0  0  0  0  0  0  0
   -2.5179  -12.0060    9.7285 C   0  0  0  0  0  0  0  0  0  0  0  0
   -1.7069  -13.2465    9.3955 C   0  0  0  0  0  0  0  0  0  0  0  0
   -2.7776  -14.5650    8.7953 S   0  0  2  0  0  0  0  0  0  0  0  0
   -3.1443  -15.4033   10.3515 C   0  0  0  0  0  0  0  0  0  0  0  0
   -1.5486  -15.7064    8.1205 C   0  0  0  0  0  0  0  0  0  0  0  0
   -0.8445  -15.0973    6.9221 C   0  0  1  0  0  0  0  0  0  0  0  0
    0.3769  -14.5103    7.3092 O   0  0  0  0  0  0  0  0  0  0  0  0
   -0.4727  -16.1274    5.8738 C   0  0  1  0  0  0  0  0  0  0  0  0
   -1.5117  -16.1942    4.9299 O   0  0  0  0  0  0  0  0  0  0  0  0
    0.7904  -15.5637    5.2549 C   0  0  1  0  0  0  0  0  0  0  0  0
    0.4235  -14.9387    4.0455 O   0  0  0  0  0  0  0  0  0  0  0  0
    1.3236  -14.5362    6.2556 C   0  0  2  0  0  0  0  0  0  0  0  0
   -0.6313  -10.4988    8.2795 O   0  0  0  0  0  0  0  0  0  0  0  0
    6.2171  -16.1349    5.2987 N   0  0  0  0  0  0  0  0  0  0  0  0
    5.2751  -15.7143    4.3916 C   0  0  0  0  0  0  0  0  0  0  0  0
    4.0308  -15.3309    4.8416 N   0  0  0  0  0  0  0  0  0  0  0  0
    3.7240  -15.3592    6.1579 C   0  0  0  0  0  0  0  0  0  0  0  0
    4.6693  -15.7684    7.0872 C   0  0  0  0  0  0  0  0  0  0  0  0
    5.9290  -16.1690    6.6466 C   0  0  0  0  0  0  0  0  0  0  0  0
    6.8621  -16.5750    7.5081 N   0  0  0  0  0  0  0  0  0  0  0  0
    4.1039  -15.6915    8.3195 N   0  0  0  0  0  0  0  0  0  0  0  0
    2.8400  -15.2300    8.1770 C   0  0  0  0  0  0  0  0  0  0  0  0
    2.5911  -15.0123    6.8442 N   0  0  0  0  0  0  0  0  0  0  0  0
  2  1  1  6  0  0  0
  2  3  1  0  0  0  0
  2  5  1  0  0  0  0
  3  4  1  0  0  0  0
  3 17  1  0  0  0  0
  5  6  1  0  0  0  0
  7  6  1  1  0  0  0
  7  8  1  0  0  0  0
  7  9  1  0  0  0  0
 10  9  1  1  0  0  0
 10 11  1  0  0  0  0
 10 12  1  0  0  0  0
 11 16  1  0  0  0  0
 12 13  1  6  0  0  0
 12 14  1  0  0  0  0
 14 15  1  6  0  0  0
 14 16  1  0  0  0  0
 16 27  1  1  0  0  0
 18 19  2  0  0  0  0
 18 23  1  0  0  0  0
 19 20  1  0  0  0  0
 20 21  2  0  0  0  0
 21 22  1  0  0  0  0
 21 27  1  0  0  0  0
 22 23  2  0  0  0  0
 22 25  1  0  0  0  0
 23 24  1  0  0  0  0
 25 26  2  0  0  0  0
 26 27  1  0  0  0  0
M  END
>  <CHROM.1>
78.49423624,-166.81053969,171.41581016,-91.27645029,-66.14705671,96.43469867
170.69388020,0.81590646,-14.29350324,7.53972816,-2.49282249,-0.06815512,-2.45031204

>  <Name>
ligand

>  <RI>
0

>  <Rbt.Current_Directory>
/home/itssahil/PROJECTS/Mol_Feturizer/New_Systems/rnas/3GX5

>  <Rbt.Executable>
rbdock ($Id: //depot/dev/client3/rdock/2013.1/src/exe/rbdock.cxx#4 $)

>  <Rbt.Library>
libRbt.so (2013.1, Build901 2013/11/27)

>  <Rbt.Parameter_File>
/export/apps/rDock/src/rDock_2013.1_src/data/scripts/dock_solv.prm

>  <Rbt.Receptor>
prm/blind_docking_20.prm

>  <SCORE>
-0.38701

>  <SCORE.INTER>
-3.06543

>  <SCORE.INTER.CONST>
1

>  <SCORE.INTER.POLAR>
0

>  <SCORE.INTER.ROT>
7

>  <SCORE.INTER.SOLV>
17.1058

>  <SCORE.INTER.VDW>
-16.0122

>  <SCORE.INTER.norm>
-0.113535

>  <SCORE.INTRA>
2.09818

>  <SCORE.INTRA.DIHEDRAL>
4.82479

>  <SCORE.INTRA.DIHEDRAL.0>
4.28829

>  <SCORE.INTRA.POLAR>
0

>  <SCORE.INTRA.POLAR.0>
0

>  <SCORE.INTRA.REPUL>
0

>  <SCORE.INTRA.REPUL.0>
0

>  <SCORE.INTRA.SOLV>
-1.27238

>  <SCORE.INTRA.SOLV.lig_0>
-48.6018

>  <SCORE.INTRA.VDW>
0.321978

>  <SCORE.INTRA.VDW.0>
-2.1506

>  <SCORE.INTRA.norm>
0.0777105

>  <SCORE.RESTR>
0.58024

>  <SCORE.RESTR.CAVITY>
0.58024

>  <SCORE.RESTR.norm>
0.0214904

>  <SCORE.SYSTEM>
0

>  <SCORE.SYSTEM.CONST>
0

>  <SCORE.SYSTEM.DIHEDRAL>
0

>  <SCORE.SYSTEM.SOLV>
0

>  <SCORE.SYSTEM.norm>
0

>  <SCORE.heavy>
27

>  <SCORE.norm>
-0.0143337

>  <RMSD>
16.545

$$$$
ligand
 OpenBabel11021811483D
libRbt.so/2013.1/901 2013/11/27
 27 29  0  0  0  0  0  0  0  0999 V2000
   -0.4497   -9.1173    8.3985 N   0  0  0  0  0  0  0  0  0  0  0  0
   -1.0520   -9.2763    9.7236 C   0  0  2  0  0  0  0  0  0  0  0  0
   -0.0996   -9.1106   10.9103 C   0  0  0  0  0  0  0  0  0  0  0  0
   -0.5735   -9.0206   12.0421 O   0  0  0  0  0  0  0  0  0  0  0  0
   -1.8056  -10.5920    9.8236 C   0  0  0  0  0  0  0  0  0  0  0  0
   -0.9297  -11.7688    9.4295 C   0  0  0  0  0  0  0  0  0  0  0  0
   -1.7036  -13.3251    9.9028 S   0  0  2  0  0  0  0  0  0  0  0  0
   -1.2609  -13.3756   11.6522 C   0  0  0  0  0  0  0  0  0  0  0  0
   -0.4972  -14.5044    9.2526 C   0  0  0  0  0  0  0  0  0  0  0  0
   -0.7966  -14.8418    7.8036 C   0  0  1  0  0  0  0  0  0  0  0  0
    0.2957  -14.5047    6.9794 O   0  0  0  0  0  0  0  0  0  0  0  0
   -1.0171  -16.3249    7.5798 C   0  0  1  0  0  0  0  0  0  0  0  0
   -2.3941  -16.5880    7.6778 O   0  0  0  0  0  0  0  0  0  0  0  0
   -0.5188  -16.5482    6.1663 C   0  0  1  0  0  0  0  0  0  0  0  0
   -1.6481  -16.5818    5.3227 O   0  0  0  0  0  0  0  0  0  0  0  0
    0.3657  -15.3431    5.8396 C   0  0  2  0  0  0  0  0  0  0  0  0
    1.1267   -9.0572   10.7841 O   0  0  0  0  0  0  0  0  0  0  0  0
    5.0125  -15.6801    8.2294 N   0  0  0  0  0  0  0  0  0  0  0  0
    3.8324  -15.2016    8.7446 C   0  0  0  0  0  0  0  0  0  0  0  0
    2.7059  -15.1929    7.9517 N   0  0  0  0  0  0  0  0  0  0  0  0
    2.7426  -15.6490    6.6796 C   0  0  0  0  0  0  0  0  0  0  0  0
    3.9237  -16.1482    6.1500 C   0  0  0  0  0  0  0  0  0  0  0  0
    5.0740  -16.1541    6.9362 C   0  0  0  0  0  0  0  0  0  0  0  0
    6.2296  -16.6195    6.4610 N   0  0  0  0  0  0  0  0  0  0  0  0
    3.6759  -16.5408    4.8738 N   0  0  0  0  0  0  0  0  0  0  0  0
    2.3692  -16.3126    4.6071 C   0  0  0  0  0  0  0  0  0  0  0  0
    1.7749  -15.7667    5.7182 N   0  0  0  0  0  0  0  0  0  0  0  0
  2  1  1  6  0  0  0
  2  3  1  0  0  0  0
  2  5  1  0  0  0  0
  3  4  1  0  0  0  0
  3 17  1  0  0  0  0
  5  6  1  0  0  0  0
  7  6  1  6  0  0  0
  7  8  1  0  0  0  0
  7  9  1  0  0  0  0
 10  9  1  1  0  0  0
 10 11  1  0  0  0  0
 10 12  1  0  0  0  0
 11 16  1  0  0  0  0
 12 13  1  6  0  0  0
 12 14  1  0  0  0  0
 14 15  1  6  0  0  0
 14 16  1  0  0  0  0
 16 27  1  1  0  0  0
 18 19  2  0  0  0  0
 18 23  1  0  0  0  0
 19 20  1  0  0  0  0
 20 21  2  0  0  0  0
 21 22  1  0  0  0  0
 21 27  1  0  0  0  0
 22 23  2  0  0  0  0
 22 25  1  0  0  0  0
 23 24  1  0  0  0  0
 25 26  2  0  0  0  0
 26 27  1  0  0  0  0
M  END
>  <CHROM.1>
168.61252322,53.26738312,167.24441596,-80.65104182,-87.56187761,120.65670641
14.40555161,0.69268992,-13.95701470,8.12686581,-2.04939786,-0.06801955,-2.55513797

>  <Name>
ligand

>  <RI>
0

>  <Rbt.Current_Directory>
/home/itssahil/PROJECTS/Mol_Feturizer/New_Systems/rnas/3GX5

>  <Rbt.Executable>
rbdock ($Id: //depot/dev/client3/rdock/2013.1/src/exe/rbdock.cxx#4 $)

>  <Rbt.Library>
libRbt.so (2013.1, Build901 2013/11/27)

>  <Rbt.Parameter_File>
/export/apps/rDock/src/rDock_2013.1_src/data/scripts/dock_solv.prm

>  <Rbt.Receptor>
prm/blind_docking_20.prm

>  <SCORE>
-4.79524

>  <SCORE.INTER>
-7.48183

>  <SCORE.INTER.CONST>
1

>  <SCORE.INTER.POLAR>
0

>  <SCORE.INTER.ROT>
7

>  <SCORE.INTER.SOLV>
14.9863

>  <SCORE.INTER.VDW>
-18.25

>  <SCORE.INTER.norm>
-0.277105

>  <SCORE.INTRA>
2.68512

>  <SCORE.INTRA.DIHEDRAL>
6.57012

>  <SCORE.INTRA.DIHEDRAL.0>
4.28829

>  <SCORE.INTRA.POLAR>
0

>  <SCORE.INTRA.POLAR.0>
0

>  <SCORE.INTRA.REPUL>
0

>  <SCORE.INTRA.REPUL.0>
0

>  <SCORE.INTRA.SOLV>
-0.493707

>  <SCORE.INTRA.SOLV.lig_0>
-48.6018

>  <SCORE.INTRA.VDW>
-0.353084

>  <SCORE.INTRA.VDW.0>
-2.1506

>  <SCORE.INTRA.norm>
0.0994489

>  <SCORE.RESTR>
0.0014656

>  <SCORE.RESTR.CAVITY>
0.0014656

>  <SCORE.RESTR.norm>
5.42815e-05

>  <SCORE.SYSTEM>
0

>  <SCORE.SYSTEM.CONST>
0

>  <SCORE.SYSTEM.DIHEDRAL>
0

>  <SCORE.SYSTEM.SOLV>
0

>  <SCORE.SYSTEM.norm>
0

>  <SCORE.heavy>
27

>  <SCORE.norm>
-0.177602

>  <RMSD>
16.593

$$$$
ligand
 OpenBabel11021811483D
libRbt.so/2013.1/901 2013/11/27
 27 29  0  0  0  0  0  0  0  0999 V2000
    8.1038  -17.4517    4.4650 N   0  0  0  0  0  0  0  0  0  0  0  0
    6.7632  -16.9013    4.6742 C   0  0  2  0  0  0  0  0  0  0  0  0
    5.7544  -17.1656    3.5538 C   0  0  0  0  0  0  0  0  0  0  0  0
    4.5586  -17.2294    3.8361 O   0  0  0  0  0  0  0  0  0  0  0  0
    6.8288  -15.4174    4.9944 C   0  0  0  0  0  0  0  0  0  0  0  0
    5.5814  -14.9474    5.7227 C   0  0  0  0  0  0  0  0  0  0  0  0
    5.6373  -15.4301    7.4574 S   0  0  2  0  0  0  0  0  0  0  0  0
    5.0833  -17.1431    7.3237 C   0  0  0  0  0  0  0  0  0  0  0  0
    4.1135  -14.6669    8.0612 C   0  0  0  0  0  0  0  0  0  0  0  0
    2.8945  -15.4002    7.5327 C   0  0  1  0  0  0  0  0  0  0  0  0
    1.8174  -15.2871    8.4345 O   0  0  0  0  0  0  0  0  0  0  0  0
    2.3806  -14.8211    6.2293 C   0  0  1  0  0  0  0  0  0  0  0  0
    2.9711  -15.5271    5.1673 O   0  0  0  0  0  0  0  0  0  0  0  0
    0.8885  -15.0775    6.2911 C   0  0  1  0  0  0  0  0  0  0  0  0
    0.6258  -16.2228    5.5118 O   0  0  0  0  0  0  0  0  0  0  0  0
    0.5702  -15.3405    7.7646 C   0  0  2  0  0  0  0  0  0  0  0  0
    6.0862  -17.3239    2.3758 O   0  0  0  0  0  0  0  0  0  0  0  0
   -1.5796  -13.2561   12.0601 N   0  0  0  0  0  0  0  0  0  0  0  0
   -0.7975  -14.3819   11.9702 C   0  0  0  0  0  0  0  0  0  0  0  0
   -0.3223  -14.7751   10.7385 N   0  0  0  0  0  0  0  0  0  0  0  0
   -0.6102  -14.0713    9.6207 C   0  0  0  0  0  0  0  0  0  0  0  0
   -1.3871  -12.9246    9.6976 C   0  0  0  0  0  0  0  0  0  0  0  0
   -1.8837  -12.5198   10.9349 C   0  0  0  0  0  0  0  0  0  0  0  0
   -2.6393  -11.4272   11.0488 N   0  0  0  0  0  0  0  0  0  0  0  0
   -1.5094  -12.4183    8.4435 N   0  0  0  0  0  0  0  0  0  0  0  0
   -0.8148  -13.2129    7.5968 C   0  0  0  0  0  0  0  0  0  0  0  0
   -0.2455  -14.2380    8.3115 N   0  0  0  0  0  0  0  0  0  0  0  0
  2  1  1  6  0  0  0
  2  3  1  0  0  0  0
  2  5  1  0  0  0  0
  3  4  1  0  0  0  0
  3 17  1  0  0  0  0
  5  6  1  0  0  0  0
  7  6  1  6  0  0  0
  7  8  1  0  0  0  0
  7  9  1  0  0  0  0
 10  9  1  1  0  0  0
 10 11  1  0  0  0  0
 10 12  1  0  0  0  0
 11 16  1  0  0  0  0
 12 13  1  6  0  0  0
 12 14  1  0  0  0  0
 14 15  1  6  0  0  0
 14 16  1  0  0  0  0
 16 27  1  1  0  0  0
 18 19  2  0  0  0  0
 18 23  1  0  0  0  0
 19 20  1  0  0  0  0
 20 21  2  0  0  0  0
 21 22  1  0  0  0  0
 21 27  1  0  0  0  0
 22 23  2  0  0  0  0
 22 25  1  0  0  0  0
 23 24  1  0  0  0  0
 25 26  2  0  0  0  0
 26 27  1  0  0  0  0
M  END
>  <CHROM.1>
151.54581637,-157.99392666,77.55969696,-81.36003651,71.21258867,151.18028750
-59.69935742,2.43366589,-15.06688836,7.30885722,-0.68688124,-0.24546885,1.31386785

>  <Name>
ligand

>  <RI>
0

>  <Rbt.Current_Directory>
/home/itssahil/PROJECTS/Mol_Feturizer/New_Systems/rnas/3GX5

>  <Rbt.Executable>
rbdock ($Id: //depot/dev/client3/rdock/2013.1/src/exe/rbdock.cxx#4 $)

>  <Rbt.Library>
libRbt.so (2013.1, Build901 2013/11/27)

>  <Rbt.Parameter_File>
/export/apps/rDock/src/rDock_2013.1_src/data/scripts/dock_solv.prm

>  <Rbt.Receptor>
prm/blind_docking_20.prm

>  <SCORE>
-4.89115

>  <SCORE.INTER>
-10.8705

>  <SCORE.INTER.CONST>
1

>  <SCORE.INTER.POLAR>
0

>  <SCORE.INTER.ROT>
7

>  <SCORE.INTER.SOLV>
6.68498

>  <SCORE.INTER.VDW>
-17.742

>  <SCORE.INTER.norm>
-0.402612

>  <SCORE.INTRA>
5.94321

>  <SCORE.INTRA.DIHEDRAL>
5.71545

>  <SCORE.INTRA.DIHEDRAL.0>
4.28829

>  <SCORE.INTRA.POLAR>
0

>  <SCORE.INTRA.POLAR.0>
0

>  <SCORE.INTRA.REPUL>
0

>  <SCORE.INTRA.REPUL.0>
0

>  <SCORE.INTRA.SOLV>
0.230542

>  <SCORE.INTRA.SOLV.lig_0>
-48.6018

>  <SCORE.INTRA.VDW>
2.97021

>  <SCORE.INTRA.VDW.0>
-2.1506

>  <SCORE.INTRA.norm>
0.220119

>  <SCORE.RESTR>
0.0361656

>  <SCORE.RESTR.CAVITY>
0.0361656

>  <SCORE.RESTR.norm>
0.00133947

>  <SCORE.SYSTEM>
0

>  <SCORE.SYSTEM.CONST>
0

>  <SCORE.SYSTEM.DIHEDRAL>
0

>  <SCORE.SYSTEM.SOLV>
0

>  <SCORE.SYSTEM.norm>
0

>  <SCORE.heavy>
27

>  <SCORE.norm>
-0.181154

>  <RMSD>
16.602

$$$$
ligand
 OpenBabel11021811483D
libRbt.so/2013.1/901 2013/11/27
 27 29  0  0  0  0  0  0  0  0999 V2000
    4.6271   -9.6333   17.0746 N   0  0  0  0  0  0  0  0  0  0  0  0
    5.2413  -10.1328   18.3062 C   0  0  2  0  0  0  0  0  0  0  0  0
    5.2726   -9.1497   19.4790 C   0  0  0  0  0  0  0  0  0  0  0  0
    4.2134   -8.6625   19.8720 O   0  0  0  0  0  0  0  0  0  0  0  0
    6.6307  -10.6850   18.0354 C   0  0  0  0  0  0  0  0  0  0  0  0
    6.5698  -12.0484   17.3684 C   0  0  0  0  0  0  0  0  0  0  0  0
    8.2245  -12.7288   17.1583 S   0  0  2  0  0  0  0  0  0  0  0  0
    8.6348  -12.0580   15.5332 C   0  0  0  0  0  0  0  0  0  0  0  0
    7.8248  -14.4288   16.6903 C   0  0  0  0  0  0  0  0  0  0  0  0
    7.4595  -15.2545   17.9101 C   0  0  1  0  0  0  0  0  0  0  0  0
    6.9960  -16.5289   17.5264 O   0  0  0  0  0  0  0  0  0  0  0  0
    8.6462  -15.5219   18.8148 C   0  0  1  0  0  0  0  0  0  0  0  0
    8.6874  -14.5201   19.7996 O   0  0  0  0  0  0  0  0  0  0  0  0
    8.3302  -16.8726   19.4244 C   0  0  1  0  0  0  0  0  0  0  0  0
    7.8100  -16.6406   20.7142 O   0  0  0  0  0  0  0  0  0  0  0  0
    7.2703  -17.5026   18.5183 C   0  0  2  0  0  0  0  0  0  0  0  0
    6.3158   -8.8169   20.0479 O   0  0  0  0  0  0  0  0  0  0  0  0
   11.2520  -20.8921   18.2442 N   0  0  0  0  0  0  0  0  0  0  0  0
   11.0736  -19.8724   19.1473 C   0  0  0  0  0  0  0  0  0  0  0  0
    9.9509  -19.0795   19.0546 N   0  0  0  0  0  0  0  0  0  0  0  0
    9.0234  -19.2903   18.0940 C   0  0  0  0  0  0  0  0  0  0  0  0
    9.1828  -20.3249   17.1836 C   0  0  0  0  0  0  0  0  0  0  0  0
   10.3182  -21.1290   17.2580 C   0  0  0  0  0  0  0  0  0  0  0  0
   10.5106  -22.1288   16.3972 N   0  0  0  0  0  0  0  0  0  0  0  0
    8.1131  -20.3133   16.3470 N   0  0  0  0  0  0  0  0  0  0  0  0
    7.2895  -19.3094   16.7272 C   0  0  0  0  0  0  0  0  0  0  0  0
    7.8355  -18.6701   17.8129 N   0  0  0  0  0  0  0  0  0  0  0  0
  2  1  1  6  0  0  0
  2  3  1  0  0  0  0
  2  5  1  0  0  0  0
  3  4  1  0  0  0  0
  3 17  1  0  0  0  0
  5  6  1  0  0  0  0
  7  6  1  6  0  0  0
  7  8  1  0  0  0  0
  7  9  1  0  0  0  0
 10  9  1  6  0  0  0
 10 11  1  0  0  0  0
 10 12  1  0  0  0  0
 11 16  1  0  0  0  0
 12 13  1  1  0  0  0
 12 14  1  0  0  0  0
 14 15  1  1  0  0  0
 14 16  1  0  0  0  0
 16 27  1  6  0  0  0
 18 19  2  0  0  0  0
 18 23  1  0  0  0  0
 19 20  1  0  0  0  0
 20 21  2  0  0  0  0
 21 22  1  0  0  0  0
 21 27  1  0  0  0  0
 22 23  2  0  0  0  0
 22 25  1  0  0  0  0
 23 24  1  0  0  0  0
 25 26  2  0  0  0  0
 26 27  1  0  0  0  0
M  END
>  <CHROM.1>
56.44306098,-75.90667496,-176.22063865,-89.46177770,-79.05194886,172.98897117
126.10182347,7.87110371,-15.35535011,18.07926567,3.02424916,-1.22137819,1.52061078

>  <Name>
ligand

>  <RI>
0

>  <Rbt.Current_Directory>
/home/itssahil/PROJECTS/Mol_Feturizer/New_Systems/rnas/3GX5

>  <Rbt.Executable>
rbdock ($Id: //depot/dev/client3/rdock/2013.1/src/exe/rbdock.cxx#4 $)

>  <Rbt.Library>
libRbt.so (2013.1, Build901 2013/11/27)

>  <Rbt.Parameter_File>
/export/apps/rDock/src/rDock_2013.1_src/data/scripts/dock_solv.prm

>  <Rbt.Receptor>
prm/blind_docking_80.prm

>  <SCORE>
-19.8888

>  <SCORE.INTER>
-21.2731

>  <SCORE.INTER.CONST>
1

>  <SCORE.INTER.POLAR>
0

>  <SCORE.INTER.ROT>
7

>  <SCORE.INTER.SOLV>
14.8068

>  <SCORE.INTER.VDW>
-27.3844

>  <SCORE.INTER.norm>
-0.787894

>  <SCORE.INTRA>
1.38429

>  <SCORE.INTRA.DIHEDRAL>
1.74869

>  <SCORE.INTRA.DIHEDRAL.0>
4.28829

>  <SCORE.INTRA.POLAR>
0

>  <SCORE.INTRA.POLAR.0>
0

>  <SCORE.INTRA.REPUL>
0

>  <SCORE.INTRA.REPUL.0>
0

>  <SCORE.INTRA.SOLV>
-0.522628

>  <SCORE.INTRA.SOLV.lig_0>
-48.6018

>  <SCORE.INTRA.VDW>
0.771262

>  <SCORE.INTRA.VDW.0>
-2.1506

>  <SCORE.INTRA.norm>
0.05127

>  <SCORE.RESTR>
0

>  <SCORE.RESTR.CAVITY>
0

>  <SCORE.RESTR.norm>
0

>  <SCORE.SYSTEM>
0

>  <SCORE.SYSTEM.CONST>
0

>  <SCORE.SYSTEM.DIHEDRAL>
0

>  <SCORE.SYSTEM.SOLV>
0

>  <SCORE.SYSTEM.norm>
0

>  <SCORE.heavy>
27

>  <SCORE.norm>
-0.736624

>  <RMSD>
16.618

$$$$
ligand
 OpenBabel11021811483D
libRbt.so/2013.1/901 2013/11/27
 27 29  0  0  0  0  0  0  0  0999 V2000
   -2.2756   -9.0074   10.4962 N   0  0  0  0  0  0  0  0  0  0  0  0
   -1.2279   -9.9951   10.2307 C   0  0  2  0  0  0  0  0  0  0  0  0
    0.0373   -9.4569    9.5580 C   0  0  0  0  0  0  0  0  0  0  0  0
   -0.0284   -9.0787    8.3891 O   0  0  0  0  0  0  0  0  0  0  0  0
   -1.7814  -11.1796    9.4564 C   0  0  0  0  0  0  0  0  0  0  0  0
   -0.7457  -12.2802    9.3034 C   0  0  0  0  0  0  0  0  0  0  0  0
   -1.3931  -13.6285    8.2994 S   0  0  2  0  0  0  0  0  0  0  0  0
   -2.2570  -14.5774    9.5693 C   0  0  0  0  0  0  0  0  0  0  0  0
    0.0899  -14.6468    8.1190 C   0  0  0  0  0  0  0  0  0  0  0  0
    0.0893  -15.3728    6.7864 C   0  0  1  0  0  0  0  0  0  0  0  0
    1.2911  -15.1337    6.0902 O   0  0  0  0  0  0  0  0  0  0  0  0
    0.0145  -16.8793    6.9389 C   0  0  1  0  0  0  0  0  0  0  0  0
   -1.3358  -17.2643    6.8797 O   0  0  0  0  0  0  0  0  0  0  0  0
    0.7814  -17.3958    5.7384 C   0  0  1  0  0  0  0  0  0  0  0  0
   -0.1658  -17.7710    4.7638 O   0  0  0  0  0  0  0  0  0  0  0  0
    1.6284  -16.2203    5.2462 C   0  0  2  0  0  0  0  0  0  0  0  0
    1.1265   -9.3894   10.1339 O   0  0  0  0  0  0  0  0  0  0  0  0
    6.2296  -17.3637    3.0234 N   0  0  0  0  0  0  0  0  0  0  0  0
    5.0260  -17.1370    2.4012 C   0  0  0  0  0  0  0  0  0  0  0  0
    3.9165  -16.8493    3.1654 N   0  0  0  0  0  0  0  0  0  0  0  0
    3.9938  -16.7838    4.5135 C   0  0  0  0  0  0  0  0  0  0  0  0
    5.2052  -16.9966    5.1552 C   0  0  0  0  0  0  0  0  0  0  0  0
    6.3342  -17.2988    4.3966 C   0  0  0  0  0  0  0  0  0  0  0  0
    7.5147  -17.5163    4.9768 N   0  0  0  0  0  0  0  0  0  0  0  0
    4.9992  -16.8632    6.4908 N   0  0  0  0  0  0  0  0  0  0  0  0
    3.6963  -16.5574    6.6895 C   0  0  0  0  0  0  0  0  0  0  0  0
    3.0608  -16.4973    5.4738 N   0  0  0  0  0  0  0  0  0  0  0  0
  2  1  1  6  0  0  0
  2  3  1  0  0  0  0
  2  5  1  0  0  0  0
  3  4  1  0  0  0  0
  3 17  1  0  0  0  0
  5  6  1  0  0  0  0
  7  6  1  1  0  0  0
  7  8  1  0  0  0  0
  7  9  1  0  0  0  0
 10  9  1  1  0  0  0
 10 11  1  0  0  0  0
 10 12  1  0  0  0  0
 11 16  1  0  0  0  0
 12 13  1  6  0  0  0
 12 14  1  0  0  0  0
 14 15  1  6  0  0  0
 14 16  1  0  0  0  0
 16 27  1  1  0  0  0
 18 19  2  0  0  0  0
 18 23  1  0  0  0  0
 19 20  1  0  0  0  0
 20 21  2  0  0  0  0
 21 22  1  0  0  0  0
 21 27  1  0  0  0  0
 22 23  2  0  0  0  0
 22 25  1  0  0  0  0
 23 24  1  0  0  0  0
 25 26  2  0  0  0  0
 26 27  1  0  0  0  0
M  END
>  <CHROM.1>
-69.05948893,-173.84436190,-176.61772216,-85.17020873,-148.42684519,127.10862601
-137.84876417,1.37900272,-14.66857611,6.88027473,-2.21926114,-0.30284805
-2.68779400

>  <Name>
ligand

>  <RI>
0

>  <Rbt.Current_Directory>
/home/itssahil/PROJECTS/Mol_Feturizer/New_Systems/rnas/3GX5

>  <Rbt.Executable>
rbdock ($Id: //depot/dev/client3/rdock/2013.1/src/exe/rbdock.cxx#4 $)

>  <Rbt.Library>
libRbt.so (2013.1, Build901 2013/11/27)

>  <Rbt.Parameter_File>
/export/apps/rDock/src/rDock_2013.1_src/data/scripts/dock_solv.prm

>  <Rbt.Receptor>
prm/blind_docking_20.prm

>  <SCORE>
0.134339

>  <SCORE.INTER>
-3.53498

>  <SCORE.INTER.CONST>
1

>  <SCORE.INTER.POLAR>
0

>  <SCORE.INTER.ROT>
7

>  <SCORE.INTER.SOLV>
9.96548

>  <SCORE.INTER.VDW>
-13.9452

>  <SCORE.INTER.norm>
-0.130925

>  <SCORE.INTRA>
3.4563

>  <SCORE.INTRA.DIHEDRAL>
8.3049

>  <SCORE.INTRA.DIHEDRAL.0>
4.28829

>  <SCORE.INTRA.POLAR>
0

>  <SCORE.INTRA.POLAR.0>
0

>  <SCORE.INTRA.REPUL>
0

>  <SCORE.INTRA.REPUL.0>
0

>  <SCORE.INTRA.SOLV>
-1.26027

>  <SCORE.INTRA.SOLV.lig_0>
-48.6018

>  <SCORE.INTRA.VDW>
-0.0660151

>  <SCORE.INTRA.VDW.0>
-2.1506

>  <SCORE.INTRA.norm>
0.128011

>  <SCORE.RESTR>
0.213024

>  <SCORE.RESTR.CAVITY>
0.213024

>  <SCORE.RESTR.norm>
0.00788977

>  <SCORE.SYSTEM>
0

>  <SCORE.SYSTEM.CONST>
0

>  <SCORE.SYSTEM.DIHEDRAL>
0

>  <SCORE.SYSTEM.SOLV>
0

>  <SCORE.SYSTEM.norm>
0

>  <SCORE.heavy>
27

>  <SCORE.norm>
0.00497552

>  <RMSD>
16.643

$$$$
ligand
 OpenBabel11021811483D
libRbt.so/2013.1/901 2013/11/27
 27 29  0  0  0  0  0  0  0  0999 V2000
   -1.5407  -12.2642    9.1442 N   0  0  0  0  0  0  0  0  0  0  0  0
   -1.9551  -13.6002    8.7115 C   0  0  2  0  0  0  0  0  0  0  0  0
   -2.2847  -14.5889    9.8325 C   0  0  0  0  0  0  0  0  0  0  0  0
   -1.7681  -14.4258   10.9372 O   0  0  0  0  0  0  0  0  0  0  0  0
   -0.9407  -14.1996    7.7521 C   0  0  0  0  0  0  0  0  0  0  0  0
    0.3642  -14.5322    8.4550 C   0  0  0  0  0  0  0  0  0  0  0  0
    1.6661  -14.8667    7.2556 S   0  0  2  0  0  0  0  0  0  0  0  0
    1.0977  -16.4544    6.6113 C   0  0  0  0  0  0  0  0  0  0  0  0
    2.9844  -15.4407    8.3516 C   0  0  0  0  0  0  0  0  0  0  0  0
    4.2837  -15.6196    7.5881 C   0  0  1  0  0  0  0  0  0  0  0  0
    4.2198  -16.7576    6.7591 O   0  0  0  0  0  0  0  0  0  0  0  0
    4.5776  -14.4646    6.6510 C   0  0  1  0  0  0  0  0  0  0  0  0
    5.3821  -13.5351    7.3320 O   0  0  0  0  0  0  0  0  0  0  0  0
    5.3396  -15.1152    5.5143 C   0  0  1  0  0  0  0  0  0  0  0  0
    6.7105  -14.8667    5.7304 O   0  0  0  0  0  0  0  0  0  0  0  0
    5.0386  -16.6123    5.6121 C   0  0  2  0  0  0  0  0  0  0  0  0
   -3.0434  -15.5498    9.6781 O   0  0  0  0  0  0  0  0  0  0  0  0
    2.4931  -15.0916    1.2964 N   0  0  0  0  0  0  0  0  0  0  0  0
    3.2185  -14.3134    2.1656 C   0  0  0  0  0  0  0  0  0  0  0  0
    3.8194  -14.9028    3.2561 N   0  0  0  0  0  0  0  0  0  0  0  0
    3.7094  -16.2311    3.4821 C   0  0  0  0  0  0  0  0  0  0  0  0
    2.9919  -17.0321    2.6056 C   0  0  0  0  0  0  0  0  0  0  0  0
    2.3697  -16.4490    1.5037 C   0  0  0  0  0  0  0  0  0  0  0  0
    1.6659  -17.1841    0.6424 N   0  0  0  0  0  0  0  0  0  0  0  0
    3.0520  -18.3093    3.0629 N   0  0  0  0  0  0  0  0  0  0  0  0
    3.8014  -18.3206    4.1894 C   0  0  0  0  0  0  0  0  0  0  0  0
    4.2225  -17.0417    4.4590 N   0  0  0  0  0  0  0  0  0  0  0  0
  2  1  1  1  0  0  0
  2  3  1  0  0  0  0
  2  5  1  0  0  0  0
  3  4  1  0  0  0  0
  3 17  1  0  0  0  0
  5  6  1  0  0  0  0
  7  6  1  1  0  0  0
  7  8  1  0  0  0  0
  7  9  1  0  0  0  0
 10  9  1  6  0  0  0
 10 11  1  0  0  0  0
 10 12  1  0  0  0  0
 11 16  1  0  0  0  0
 12 13  1  1  0  0  0
 12 14  1  0  0  0  0
 14 15  1  1  0  0  0
 14 16  1  0  0  0  0
 16 27  1  6  0  0  0
 18 19  2  0  0  0  0
 18 23  1  0  0  0  0
 19 20  1  0  0  0  0
 20 21  2  0  0  0  0
 21 22  1  0  0  0  0
 21 27  1  0  0  0  0
 22 23  2  0  0  0  0
 22 25  1  0  0  0  0
 23 24  1  0  0  0  0
 25 26  2  0  0  0  0
 26 27  1  0  0  0  0
M  END
>  <CHROM.1>
-25.26472185,68.97332029,-166.56410939,-70.71421540,-172.42309463,-72.77721945
109.19825774,2.23020730,-15.41997923,6.04273256,2.26188193,0.00429462,1.25395963

>  <Name>
ligand

>  <RI>
0

>  <Rbt.Current_Directory>
/home/itssahil/PROJECTS/Mol_Feturizer/New_Systems/rnas/3GX5

>  <Rbt.Executable>
rbdock ($Id: //depot/dev/client3/rdock/2013.1/src/exe/rbdock.cxx#4 $)

>  <Rbt.Library>
libRbt.so (2013.1, Build901 2013/11/27)

>  <Rbt.Parameter_File>
/export/apps/rDock/src/rDock_2013.1_src/data/scripts/dock_solv.prm

>  <Rbt.Receptor>
prm/blind_docking_20.prm

>  <SCORE>
-1.28859

>  <SCORE.INTER>
-2.43538

>  <SCORE.INTER.CONST>
1

>  <SCORE.INTER.POLAR>
0

>  <SCORE.INTER.ROT>
7

>  <SCORE.INTER.SOLV>
21.1506

>  <SCORE.INTER.VDW>
-16.9405

>  <SCORE.INTER.norm>
-0.0901993

>  <SCORE.INTRA>
1.12746

>  <SCORE.INTRA.DIHEDRAL>
1.33904

>  <SCORE.INTRA.DIHEDRAL.0>
4.28829

>  <SCORE.INTRA.POLAR>
0

>  <SCORE.INTRA.POLAR.0>
0

>  <SCORE.INTRA.REPUL>
0

>  <SCORE.INTRA.REPUL.0>
0

>  <SCORE.INTRA.SOLV>
-0.341588

>  <SCORE.INTRA.SOLV.lig_0>
-48.6018

>  <SCORE.INTRA.VDW>
0.628738

>  <SCORE.INTRA.VDW.0>
-2.1506

>  <SCORE.INTRA.norm>
0.0417579

>  <SCORE.RESTR>
0.0193305

>  <SCORE.RESTR.CAVITY>
0.0193305

>  <SCORE.RESTR.norm>
0.000715943

>  <SCORE.SYSTEM>
0

>  <SCORE.SYSTEM.CONST>
0

>  <SCORE.SYSTEM.DIHEDRAL>
0

>  <SCORE.SYSTEM.SOLV>
0

>  <SCORE.SYSTEM.norm>
0

>  <SCORE.heavy>
27

>  <SCORE.norm>
-0.0477254

>  <RMSD>
16.660

$$$$
ligand
 OpenBabel11021811483D
libRbt.so/2013.1/901 2013/11/27
 27 29  0  0  0  0  0  0  0  0999 V2000
    7.6309   -4.8377   26.8995 N   0  0  0  0  0  0  0  0  0  0  0  0
    7.1734   -6.1956   27.2006 C   0  0  2  0  0  0  0  0  0  0  0  0
    7.8676   -6.8846   28.3779 C   0  0  0  0  0  0  0  0  0  0  0  0
    8.3354   -6.1897   29.2790 O   0  0  0  0  0  0  0  0  0  0  0  0
    7.2257   -7.0739   25.9618 C   0  0  0  0  0  0  0  0  0  0  0  0
    8.6430   -7.2088   25.4322 C   0  0  0  0  0  0  0  0  0  0  0  0
    8.7004   -8.3690   24.0553 S   0  0  2  0  0  0  0  0  0  0  0  0
   10.4762   -8.6870   23.9878 C   0  0  0  0  0  0  0  0  0  0  0  0
    8.5448   -7.2313   22.6588 C   0  0  0  0  0  0  0  0  0  0  0  0
    7.1108   -6.7604   22.5014 C   0  0  1  0  0  0  0  0  0  0  0  0
    6.9381   -5.4902   23.0871 O   0  0  0  0  0  0  0  0  0  0  0  0
    6.7068   -6.5844   21.0508 C   0  0  1  0  0  0  0  0  0  0  0  0
    6.1129   -7.7787   20.6081 O   0  0  0  0  0  0  0  0  0  0  0  0
    5.6948   -5.4576   21.0987 C   0  0  1  0  0  0  0  0  0  0  0  0
    4.4124   -6.0416   21.0489 O   0  0  0  0  0  0  0  0  0  0  0  0
    5.9171   -4.7526   22.4384 C   0  0  2  0  0  0  0  0  0  0  0  0
    7.9856   -8.1100   28.4636 O   0  0  0  0  0  0  0  0  0  0  0  0
    6.3685   -0.7662   19.0736 N   0  0  0  0  0  0  0  0  0  0  0  0
    5.6993   -1.9519   18.8909 C   0  0  0  0  0  0  0  0  0  0  0  0
    5.6964   -2.8864   19.9030 N   0  0  0  0  0  0  0  0  0  0  0  0
    6.3372   -2.6546   21.0705 C   0  0  0  0  0  0  0  0  0  0  0  0
    7.0056   -1.4563   21.2750 C   0  0  0  0  0  0  0  0  0  0  0  0
    7.0263   -0.5053   20.2569 C   0  0  0  0  0  0  0  0  0  0  0  0
    7.6633    0.6555   20.4128 N   0  0  0  0  0  0  0  0  0  0  0  0
    7.5448   -1.4863   22.5211 N   0  0  0  0  0  0  0  0  0  0  0  0
    7.2129   -2.6647   23.0973 C   0  0  0  0  0  0  0  0  0  0  0  0
    6.4586   -3.3974   22.2144 N   0  0  0  0  0  0  0  0  0  0  0  0
  2  1  1  6  0  0  0
  2  3  1  0  0  0  0
  2  5  1  0  0  0  0
  3  4  1  0  0  0  0
  3 17  1  0  0  0  0
  5  6  1  0  0  0  0
  7  6  1  1  0  0  0
  7  8  1  0  0  0  0
  7  9  1  0  0  0  0
 10  9  1  6  0  0  0
 10 11  1  0  0  0  0
 10 12  1  0  0  0  0
 11 16  1  0  0  0  0
 12 13  1  1  0  0  0
 12 14  1  0  0  0  0
 14 15  1  1  0  0  0
 14 16  1  0  0  0  0
 16 27  1  6  0  0  0
 18 19  2  0  0  0  0
 18 23  1  0  0  0  0
 19 20  1  0  0  0  0
 20 21  2  0  0  0  0
 21 22  1  0  0  0  0
 21 27  1  0  0  0  0
 22 23  2  0  0  0  0
 22 25  1  0  0  0  0
 23 24  1  0  0  0  0
 25 26  2  0  0  0  0
 26 27  1  0  0  0  0
M  END
>  <CHROM.1>
27.40760557,61.64990409,174.95964066,-163.90569032,-76.41992851,98.61592655
136.56018046,7.21736163,-5.11686022,23.18433265,-0.47627663,-1.32692120,0.23047090

>  <Name>
ligand

>  <RI>
0

>  <Rbt.Current_Directory>
/home/itssahil/PROJECTS/Mol_Feturizer/New_Systems/rnas/3GX5

>  <Rbt.Executable>
rbdock ($Id: //depot/dev/client3/rdock/2013.1/src/exe/rbdock.cxx#4 $)

>  <Rbt.Library>
libRbt.so (2013.1, Build901 2013/11/27)

>  <Rbt.Parameter_File>
/export/apps/rDock/src/rDock_2013.1_src/data/scripts/dock_solv.prm

>  <Rbt.Receptor>
prm/blind_docking_40.prm

>  <SCORE>
-7.97398

>  <SCORE.INTER>
-10.4532

>  <SCORE.INTER.CONST>
1

>  <SCORE.INTER.POLAR>
0

>  <SCORE.INTER.ROT>
7

>  <SCORE.INTER.SOLV>
8.51069

>  <SCORE.INTER.VDW>
-18.0723

>  <SCORE.INTER.norm>
-0.387154

>  <SCORE.INTRA>
2.47917

>  <SCORE.INTRA.DIHEDRAL>
4.87096

>  <SCORE.INTRA.DIHEDRAL.0>
4.28829

>  <SCORE.INTRA.POLAR>
0

>  <SCORE.INTRA.POLAR.0>
0

>  <SCORE.INTRA.REPUL>
0

>  <SCORE.INTRA.REPUL.0>
0

>  <SCORE.INTRA.SOLV>
-0.161564

>  <SCORE.INTRA.SOLV.lig_0>
-48.6018

>  <SCORE.INTRA.VDW>
0.124475

>  <SCORE.INTRA.VDW.0>
-2.1506

>  <SCORE.INTRA.norm>
0.0918212

>  <SCORE.RESTR>
0

>  <SCORE.RESTR.CAVITY>
0

>  <SCORE.RESTR.norm>
0

>  <SCORE.SYSTEM>
0

>  <SCORE.SYSTEM.CONST>
0

>  <SCORE.SYSTEM.DIHEDRAL>
0

>  <SCORE.SYSTEM.SOLV>
0

>  <SCORE.SYSTEM.norm>
0

>  <SCORE.heavy>
27

>  <SCORE.norm>
-0.295333

>  <RMSD>
16.681

$$$$
ligand
 OpenBabel11021811483D
libRbt.so/2013.1/901 2013/11/27
 27 29  0  0  0  0  0  0  0  0999 V2000
   -2.4130  -15.5804   10.0926 N   0  0  0  0  0  0  0  0  0  0  0  0
   -1.4330  -14.5624    9.7089 C   0  0  2  0  0  0  0  0  0  0  0  0
   -1.5015  -13.2472   10.4888 C   0  0  0  0  0  0  0  0  0  0  0  0
   -0.6206  -12.4068   10.3117 O   0  0  0  0  0  0  0  0  0  0  0  0
   -1.4801  -14.2992    8.2132 C   0  0  0  0  0  0  0  0  0  0  0  0
   -0.6440  -15.3060    7.4422 C   0  0  0  0  0  0  0  0  0  0  0  0
    1.0954  -15.1644    7.8893 S   0  0  2  0  0  0  0  0  0  0  0  0
    1.5021  -13.6056    7.0745 C   0  0  0  0  0  0  0  0  0  0  0  0
    1.8336  -16.3212    6.7122 C   0  0  0  0  0  0  0  0  0  0  0  0
    3.2854  -16.5943    7.0596 C   0  0  1  0  0  0  0  0  0  0  0  0
    3.8208  -17.5849    6.2121 O   0  0  0  0  0  0  0  0  0  0  0  0
    4.1744  -15.3824    6.8611 C   0  0  1  0  0  0  0  0  0  0  0  0
    4.2598  -14.6907    8.0814 O   0  0  0  0  0  0  0  0  0  0  0  0
    5.5125  -15.9826    6.4801 C   0  0  1  0  0  0  0  0  0  0  0  0
    6.3184  -15.9820    7.6370 O   0  0  0  0  0  0  0  0  0  0  0  0
    5.2151  -17.4140    6.0280 C   0  0  2  0  0  0  0  0  0  0  0  0
   -2.4001  -12.9911   11.2949 O   0  0  0  0  0  0  0  0  0  0  0  0
    3.2127  -16.9062    1.2165 N   0  0  0  0  0  0  0  0  0  0  0  0
    2.6053  -16.6257    2.4163 C   0  0  0  0  0  0  0  0  0  0  0  0
    3.3019  -16.8280    3.5873 N   0  0  0  0  0  0  0  0  0  0  0  0
    4.5709  -17.2940    3.5745 C   0  0  0  0  0  0  0  0  0  0  0  0
    5.2024  -17.5685    2.3701 C   0  0  0  0  0  0  0  0  0  0  0  0
    4.5073  -17.3787    1.1776 C   0  0  0  0  0  0  0  0  0  0  0  0
    5.0774  -17.6375    0.0004 N   0  0  0  0  0  0  0  0  0  0  0  0
    6.4569  -18.0086    2.6473 N   0  0  0  0  0  0  0  0  0  0  0  0
    6.6221  -17.9973    3.9901 C   0  0  0  0  0  0  0  0  0  0  0  0
    5.4651  -17.5502    4.5792 N   0  0  0  0  0  0  0  0  0  0  0  0
  2  1  1  1  0  0  0
  2  3  1  0  0  0  0
  2  5  1  0  0  0  0
  3  4  1  0  0  0  0
  3 17  1  0  0  0  0
  5  6  1  0  0  0  0
  7  6  1  6  0  0  0
  7  8  1  0  0  0  0
  7  9  1  0  0  0  0
 10  9  1  6  0  0  0
 10 11  1  0  0  0  0
 10 12  1  0  0  0  0
 11 16  1  0  0  0  0
 12 13  1  1  0  0  0
 12 14  1  0  0  0  0
 14 15  1  1  0  0  0
 14 16  1  0  0  0  0
 16 27  1  6  0  0  0
 18 19  2  0  0  0  0
 18 23  1  0  0  0  0
 19 20  1  0  0  0  0
 20 21  2  0  0  0  0
 21 22  1  0  0  0  0
 21 27  1  0  0  0  0
 22 23  2  0  0  0  0
 22 25  1  0  0  0  0
 23 24  1  0  0  0  0
 25 26  2  0  0  0  0
 26 27  1  0  0  0  0
M  END
>  <CHROM.1>
172.53488468,-83.99251944,-63.32068063,-72.27430198,-168.87990173,174.78509518
26.37801708,2.59667252,-15.86257887,6.24641618,2.27018924,-0.21010614,1.27573201

>  <Name>
ligand

>  <RI>
0

>  <Rbt.Current_Directory>
/home/itssahil/PROJECTS/Mol_Feturizer/New_Systems/rnas/3GX5

>  <Rbt.Executable>
rbdock ($Id: //depot/dev/client3/rdock/2013.1/src/exe/rbdock.cxx#4 $)

>  <Rbt.Library>
libRbt.so (2013.1, Build901 2013/11/27)

>  <Rbt.Parameter_File>
/export/apps/rDock/src/rDock_2013.1_src/data/scripts/dock_solv.prm

>  <Rbt.Receptor>
prm/blind_docking_20.prm

>  <SCORE>
-2.66114

>  <SCORE.INTER>
-3.73121

>  <SCORE.INTER.CONST>
1

>  <SCORE.INTER.POLAR>
0

>  <SCORE.INTER.ROT>
7

>  <SCORE.INTER.SOLV>
18.9816

>  <SCORE.INTER.VDW>
-17.0813

>  <SCORE.INTER.norm>
-0.138193

>  <SCORE.INTRA>
0.752578

>  <SCORE.INTRA.DIHEDRAL>
2.40284

>  <SCORE.INTRA.DIHEDRAL.0>
4.28829

>  <SCORE.INTRA.POLAR>
0

>  <SCORE.INTRA.POLAR.0>
0

>  <SCORE.INTRA.REPUL>
0

>  <SCORE.INTRA.REPUL.0>
0

>  <SCORE.INTRA.SOLV>
-0.0345222

>  <SCORE.INTRA.SOLV.lig_0>
-48.6018

>  <SCORE.INTRA.VDW>
-0.431579

>  <SCORE.INTRA.VDW.0>
-2.1506

>  <SCORE.INTRA.norm>
0.0278733

>  <SCORE.RESTR>
0.317492

>  <SCORE.RESTR.CAVITY>
0.317492

>  <SCORE.RESTR.norm>
0.011759

>  <SCORE.SYSTEM>
0

>  <SCORE.SYSTEM.CONST>
0

>  <SCORE.SYSTEM.DIHEDRAL>
0

>  <SCORE.SYSTEM.SOLV>
0

>  <SCORE.SYSTEM.norm>
0

>  <SCORE.heavy>
27

>  <SCORE.norm>
-0.0985606

>  <RMSD>
16.696

$$$$
ligand
 OpenBabel11021811483D
libRbt.so/2013.1/901 2013/11/27
 27 29  0  0  0  0  0  0  0  0999 V2000
   -2.1666  -15.1686    9.8872 N   0  0  0  0  0  0  0  0  0  0  0  0
   -1.0101  -14.3326   10.2148 C   0  0  2  0  0  0  0  0  0  0  0  0
   -1.2887  -13.1477   11.1429 C   0  0  0  0  0  0  0  0  0  0  0  0
   -1.9996  -12.2301   10.7351 O   0  0  0  0  0  0  0  0  0  0  0  0
   -0.3009  -13.8677    8.9539 C   0  0  0  0  0  0  0  0  0  0  0  0
    0.6668  -14.9186    8.4377 C   0  0  0  0  0  0  0  0  0  0  0  0
    0.4824  -15.1348    6.6588 S   0  0  2  0  0  0  0  0  0  0  0  0
   -0.9771  -16.1967    6.6222 C   0  0  0  0  0  0  0  0  0  0  0  0
    1.7628  -16.3714    6.3425 C   0  0  0  0  0  0  0  0  0  0  0  0
    1.6377  -16.9333    4.9384 C   0  0  1  0  0  0  0  0  0  0  0  0
    2.6469  -16.4129    4.1036 O   0  0  0  0  0  0  0  0  0  0  0  0
    1.8217  -18.4373    4.8896 C   0  0  1  0  0  0  0  0  0  0  0  0
    0.5569  -19.0420    4.9885 O   0  0  0  0  0  0  0  0  0  0  0  0
    2.4343  -18.6756    3.5243 C   0  0  1  0  0  0  0  0  0  0  0  0
    1.3984  -19.0986    2.6664 O   0  0  0  0  0  0  0  0  0  0  0  0
    2.9917  -17.3234    3.0745 C   0  0  2  0  0  0  0  0  0  0  0  0
   -0.8270  -13.0664   12.2844 O   0  0  0  0  0  0  0  0  0  0  0  0
    7.4275  -16.5026    5.7331 N   0  0  0  0  0  0  0  0  0  0  0  0
    6.1370  -16.3502    6.1788 C   0  0  0  0  0  0  0  0  0  0  0  0
    5.0925  -16.6161    5.3210 N   0  0  0  0  0  0  0  0  0  0  0  0
    5.3165  -17.0262    4.0524 C   0  0  0  0  0  0  0  0  0  0  0  0
    6.6139  -17.1981    3.5924 C   0  0  0  0  0  0  0  0  0  0  0  0
    7.6812  -16.9233    4.4449 C   0  0  0  0  0  0  0  0  0  0  0  0
    8.9422  -17.0700    4.0377 N   0  0  0  0  0  0  0  0  0  0  0  0
    6.5473  -17.6195    2.3031 N   0  0  0  0  0  0  0  0  0  0  0  0
    5.2429  -17.7281    1.9604 C   0  0  0  0  0  0  0  0  0  0  0  0
    4.4669  -17.3709    3.0355 N   0  0  0  0  0  0  0  0  0  0  0  0
  2  1  1  6  0  0  0
  2  3  1  0  0  0  0
  2  5  1  0  0  0  0
  3  4  1  0  0  0  0
  3 17  1  0  0  0  0
  5  6  1  0  0  0  0
  7  6  1  1  0  0  0
  7  8  1  0  0  0  0
  7  9  1  0  0  0  0
 10  9  1  1  0  0  0
 10 11  1  0  0  0  0
 10 12  1  0  0  0  0
 11 16  1  0  0  0  0
 12 13  1  6  0  0  0
 12 14  1  0  0  0  0
 14 15  1  6  0  0  0
 14 16  1  0  0  0  0
 16 27  1  1  0  0  0
 18 19  2  0  0  0  0
 18 23  1  0  0  0  0
 19 20  1  0  0  0  0
 20 21  2  0  0  0  0
 21 22  1  0  0  0  0
 21 27  1  0  0  0  0
 22 23  2  0  0  0  0
 22 25  1  0  0  0  0
 23 24  1  0  0  0  0
 25 26  2  0  0  0  0
 26 27  1  0  0  0  0
M  END
>  <CHROM.1>
-66.59170264,-83.43149558,134.06150564,-79.84082079,168.94892300,105.42070409
21.72348660,2.41529663,-16.24743827,6.02165709,2.33100267,0.12452751,0.94721302

>  <Name>
ligand

>  <RI>
0

>  <Rbt.Current_Directory>
/home/itssahil/PROJECTS/Mol_Feturizer/New_Systems/rnas/3GX5

>  <Rbt.Executable>
rbdock ($Id: //depot/dev/client3/rdock/2013.1/src/exe/rbdock.cxx#4 $)

>  <Rbt.Library>
libRbt.so (2013.1, Build901 2013/11/27)

>  <Rbt.Parameter_File>
/export/apps/rDock/src/rDock_2013.1_src/data/scripts/dock_solv.prm

>  <Rbt.Receptor>
prm/blind_docking_20.prm

>  <SCORE>
0.419615

>  <SCORE.INTER>
-4.55241

>  <SCORE.INTER.CONST>
1

>  <SCORE.INTER.POLAR>
0

>  <SCORE.INTER.ROT>
7

>  <SCORE.INTER.SOLV>
11.2352

>  <SCORE.INTER.VDW>
-15.0467

>  <SCORE.INTER.norm>
-0.168608

>  <SCORE.INTRA>
4.96618

>  <SCORE.INTRA.DIHEDRAL>
10.7599

>  <SCORE.INTRA.DIHEDRAL.0>
4.28829

>  <SCORE.INTRA.POLAR>
0

>  <SCORE.INTRA.POLAR.0>
0

>  <SCORE.INTRA.REPUL>
0

>  <SCORE.INTRA.REPUL.0>
0

>  <SCORE.INTRA.SOLV>
0.534087

>  <SCORE.INTRA.SOLV.lig_0>
-48.6018

>  <SCORE.INTRA.VDW>
-0.680785

>  <SCORE.INTRA.VDW.0>
-2.1506

>  <SCORE.INTRA.norm>
0.183933

>  <SCORE.RESTR>
0.00583659

>  <SCORE.RESTR.CAVITY>
0.00583659

>  <SCORE.RESTR.norm>
0.00021617

>  <SCORE.SYSTEM>
0

>  <SCORE.SYSTEM.CONST>
0

>  <SCORE.SYSTEM.DIHEDRAL>
0

>  <SCORE.SYSTEM.SOLV>
0

>  <SCORE.SYSTEM.norm>
0

>  <SCORE.heavy>
27

>  <SCORE.norm>
0.0155413

>  <RMSD>
16.700

$$$$
ligand
 OpenBabel11021811483D
libRbt.so/2013.1/901 2013/11/27
 27 29  0  0  0  0  0  0  0  0999 V2000
    3.8562  -10.1620   16.6650 N   0  0  0  0  0  0  0  0  0  0  0  0
    4.8310  -10.8446   17.5179 C   0  0  2  0  0  0  0  0  0  0  0  0
    5.4397   -9.9990   18.6392 C   0  0  0  0  0  0  0  0  0  0  0  0
    4.7193   -9.2005   19.2368 O   0  0  0  0  0  0  0  0  0  0  0  0
    5.9240  -11.4915   16.6838 C   0  0  0  0  0  0  0  0  0  0  0  0
    6.6826  -12.5427   17.4756 C   0  0  0  0  0  0  0  0  0  0  0  0
    8.0990  -13.1454   16.5397 S   0  0  2  0  0  0  0  0  0  0  0  0
    7.2971  -14.4206   15.5447 C   0  0  0  0  0  0  0  0  0  0  0  0
    8.8953  -14.1894   17.7825 C   0  0  0  0  0  0  0  0  0  0  0  0
    7.8706  -15.0338   18.5174 C   0  0  1  0  0  0  0  0  0  0  0  0
    7.4071  -16.0798   17.6944 O   0  0  0  0  0  0  0  0  0  0  0  0
    8.4445  -15.7194   19.7417 C   0  0  1  0  0  0  0  0  0  0  0  0
    8.2167  -14.8967   20.8580 O   0  0  0  0  0  0  0  0  0  0  0  0
    7.6438  -17.0023   19.8377 C   0  0  1  0  0  0  0  0  0  0  0  0
    6.6466  -16.8036   20.8145 O   0  0  0  0  0  0  0  0  0  0  0  0
    7.0163  -17.2077   18.4573 C   0  0  2  0  0  0  0  0  0  0  0  0
    6.6260  -10.0768   18.9699 O   0  0  0  0  0  0  0  0  0  0  0  0
   10.9957  -20.6111   18.4434 N   0  0  0  0  0  0  0  0  0  0  0  0
   10.7718  -19.5794   19.3224 C   0  0  0  0  0  0  0  0  0  0  0  0
    9.6585  -18.7848   19.1587 N   0  0  0  0  0  0  0  0  0  0  0  0
    8.7839  -19.0054   18.1517 C   0  0  0  0  0  0  0  0  0  0  0  0
    8.9892  -20.0519   17.2645 C   0  0  0  0  0  0  0  0  0  0  0  0
   10.1161  -20.8581   17.4108 C   0  0  0  0  0  0  0  0  0  0  0  0
   10.3517  -21.8694   16.5745 N   0  0  0  0  0  0  0  0  0  0  0  0
    7.9666  -20.0483   16.3709 N   0  0  0  0  0  0  0  0  0  0  0  0
    7.1269  -19.0374   16.6929 C   0  0  0  0  0  0  0  0  0  0  0  0
    7.6152  -18.3856   17.7985 N   0  0  0  0  0  0  0  0  0  0  0  0
  2  1  1  6  0  0  0
  2  3  1  0  0  0  0
  2  5  1  0  0  0  0
  3  4  1  0  0  0  0
  3 17  1  0  0  0  0
  5  6  1  0  0  0  0
  7  6  1  1  0  0  0
  7  8  1  0  0  0  0
  7  9  1  0  0  0  0
 10  9  1  6  0  0  0
 10 11  1  0  0  0  0
 10 12  1  0  0  0  0
 11 16  1  0  0  0  0
 12 13  1  1  0  0  0
 12 14  1  0  0  0  0
 14 15  1  1  0  0  0
 14 16  1  0  0  0  0
 16 27  1  6  0  0  0
 18 19  2  0  0  0  0
 18 23  1  0  0  0  0
 19 20  1  0  0  0  0
 20 21  2  0  0  0  0
 21 22  1  0  0  0  0
 21 27  1  0  0  0  0
 22 23  2  0  0  0  0
 22 25  1  0  0  0  0
 23 24  1  0  0  0  0
 25 26  2  0  0  0  0
 26 27  1  0  0  0  0
M  END
>  <CHROM.1>
38.44226079,-162.28881676,-172.88005235,-84.92239923,43.94710666,73.83244661
97.14912710,7.67676988,-15.56609065,18.03456120,2.85239476,-1.17030191,1.25741227

>  <Name>
ligand

>  <RI>
0

>  <Rbt.Current_Directory>
/home/itssahil/PROJECTS/Mol_Feturizer/New_Systems/rnas/3GX5

>  <Rbt.Executable>
rbdock ($Id: //depot/dev/client3/rdock/2013.1/src/exe/rbdock.cxx#4 $)

>  <Rbt.Library>
libRbt.so (2013.1, Build901 2013/11/27)

>  <Rbt.Parameter_File>
/export/apps/rDock/src/rDock_2013.1_src/data/scripts/dock_solv.prm

>  <Rbt.Receptor>
prm/blind_docking_80.prm

>  <SCORE>
-16.3182

>  <SCORE.INTER>
-20.2182

>  <SCORE.INTER.CONST>
1

>  <SCORE.INTER.POLAR>
0

>  <SCORE.INTER.ROT>
7

>  <SCORE.INTER.SOLV>
17.3443

>  <SCORE.INTER.VDW>
-27.5269

>  <SCORE.INTER.norm>
-0.748823

>  <SCORE.INTRA>
3.90006

>  <SCORE.INTRA.DIHEDRAL>
1.80794

>  <SCORE.INTRA.DIHEDRAL.0>
4.28829

>  <SCORE.INTRA.POLAR>
0

>  <SCORE.INTRA.POLAR.0>
0

>  <SCORE.INTRA.REPUL>
0

>  <SCORE.INTRA.REPUL.0>
0

>  <SCORE.INTRA.SOLV>
-1.07979

>  <SCORE.INTRA.SOLV.lig_0>
-48.6018

>  <SCORE.INTRA.VDW>
3.53599

>  <SCORE.INTRA.VDW.0>
-2.1506

>  <SCORE.INTRA.norm>
0.144447

>  <SCORE.RESTR>
0

>  <SCORE.RESTR.CAVITY>
0

>  <SCORE.RESTR.norm>
0

>  <SCORE.SYSTEM>
0

>  <SCORE.SYSTEM.CONST>
0

>  <SCORE.SYSTEM.DIHEDRAL>
0

>  <SCORE.SYSTEM.SOLV>
0

>  <SCORE.SYSTEM.norm>
0

>  <SCORE.heavy>
27

>  <SCORE.norm>
-0.604376

>  <RMSD>
16.711

$$$$
ligand
 OpenBabel11021811483D
libRbt.so/2013.1/901 2013/11/27
 27 29  0  0  0  0  0  0  0  0999 V2000
    9.1626   -4.5489   27.7369 N   0  0  0  0  0  0  0  0  0  0  0  0
    7.7818   -4.8161   27.3295 C   0  0  2  0  0  0  0  0  0  0  0  0
    6.7378   -4.7654   28.4477 C   0  0  0  0  0  0  0  0  0  0  0  0
    5.5570   -4.9642   28.1651 O   0  0  0  0  0  0  0  0  0  0  0  0
    7.6841   -6.1269   26.5671 C   0  0  0  0  0  0  0  0  0  0  0  0
    8.4081   -6.0528   25.2337 C   0  0  0  0  0  0  0  0  0  0  0  0
    8.0130   -7.4845   24.2143 S   0  0  2  0  0  0  0  0  0  0  0  0
    9.3041   -8.6226   24.7592 C   0  0  0  0  0  0  0  0  0  0  0  0
    8.7164   -6.9664   22.6315 C   0  0  0  0  0  0  0  0  0  0  0  0
    8.3913   -7.9697   21.5402 C   0  0  1  0  0  0  0  0  0  0  0  0
    7.0071   -8.2318   21.5030 O   0  0  0  0  0  0  0  0  0  0  0  0
    8.7342   -7.4607   20.1540 C   0  0  1  0  0  0  0  0  0  0  0  0
   10.0332   -7.8902   19.8329 O   0  0  0  0  0  0  0  0  0  0  0  0
    7.7042   -8.1291   19.2660 C   0  0  1  0  0  0  0  0  0  0  0  0
    8.3276   -9.2395   18.6608 O   0  0  0  0  0  0  0  0  0  0  0  0
    6.5787   -8.5817   20.1987 C   0  0  2  0  0  0  0  0  0  0  0  0
    7.0254   -4.5280   29.6239 O   0  0  0  0  0  0  0  0  0  0  0  0
    3.7461   -4.3882   21.5435 N   0  0  0  0  0  0  0  0  0  0  0  0
    4.9522   -4.7923   22.0622 C   0  0  0  0  0  0  0  0  0  0  0  0
    5.5460   -5.9355   21.5740 N   0  0  0  0  0  0  0  0  0  0  0  0
    4.9638   -6.6620   20.5938 C   0  0  0  0  0  0  0  0  0  0  0  0
    3.7527   -6.2588   20.0504 C   0  0  0  0  0  0  0  0  0  0  0  0
    3.1346   -5.1104   20.5408 C   0  0  0  0  0  0  0  0  0  0  0  0
    1.9673   -4.6942   20.0491 N   0  0  0  0  0  0  0  0  0  0  0  0
    3.4066   -7.1551   19.0908 N   0  0  0  0  0  0  0  0  0  0  0  0
    4.3801   -8.0918   19.0159 C   0  0  0  0  0  0  0  0  0  0  0  0
    5.3560   -7.7969   19.9358 N   0  0  0  0  0  0  0  0  0  0  0  0
  2  1  1  1  0  0  0
  2  3  1  0  0  0  0
  2  5  1  0  0  0  0
  3  4  1  0  0  0  0
  3 17  1  0  0  0  0
  5  6  1  0  0  0  0
  7  6  1  1  0  0  0
  7  8  1  0  0  0  0
  7  9  1  0  0  0  0
 10  9  1  1  0  0  0
 10 11  1  0  0  0  0
 10 12  1  0  0  0  0
 11 16  1  0  0  0  0
 12 13  1  6  0  0  0
 12 14  1  0  0  0  0
 14 15  1  1  0  0  0
 14 16  1  0  0  0  0
 16 27  1  6  0  0  0
 18 19  2  0  0  0  0
 18 23  1  0  0  0  0
 19 20  1  0  0  0  0
 20 21  2  0  0  0  0
 21 22  1  0  0  0  0
 21 27  1  0  0  0  0
 22 23  2  0  0  0  0
 22 25  1  0  0  0  0
 23 24  1  0  0  0  0
 25 26  2  0  0  0  0
 26 27  1  0  0  0  0
M  END
>  <CHROM.1>
179.06281383,-66.54431772,-168.90425582,-89.00095627,-174.47743016,52.02388051
19.57916227,6.67644847,-6.63209292,22.74586742,-1.31509835,0.46126694,-1.93564644

>  <Name>
ligand

>  <RI>
0

>  <Rbt.Current_Directory>
/home/itssahil/PROJECTS/Mol_Feturizer/New_Systems/rnas/3GX5

>  <Rbt.Executable>
rbdock ($Id: //depot/dev/client3/rdock/2013.1/src/exe/rbdock.cxx#4 $)

>  <Rbt.Library>
libRbt.so (2013.1, Build901 2013/11/27)

>  <Rbt.Parameter_File>
/export/apps/rDock/src/rDock_2013.1_src/data/scripts/dock_solv.prm

>  <Rbt.Receptor>
prm/blind_docking_80.prm

>  <SCORE>
-10.4165

>  <SCORE.INTER>
-10.4456

>  <SCORE.INTER.CONST>
1

>  <SCORE.INTER.POLAR>
0

>  <SCORE.INTER.ROT>
7

>  <SCORE.INTER.SOLV>
7.02916

>  <SCORE.INTER.VDW>
-17.5735

>  <SCORE.INTER.norm>
-0.386874

>  <SCORE.INTRA>
0.029137

>  <SCORE.INTRA.DIHEDRAL>
1.72289

>  <SCORE.INTRA.DIHEDRAL.0>
4.28829

>  <SCORE.INTRA.POLAR>
0

>  <SCORE.INTRA.POLAR.0>
0

>  <SCORE.INTRA.REPUL>
0

>  <SCORE.INTRA.REPUL.0>
0

>  <SCORE.INTRA.SOLV>
-0.593967

>  <SCORE.INTRA.SOLV.lig_0>
-48.6018

>  <SCORE.INTRA.VDW>
-0.535326

>  <SCORE.INTRA.VDW.0>
-2.1506

>  <SCORE.INTRA.norm>
0.00107915

>  <SCORE.RESTR>
0

>  <SCORE.RESTR.CAVITY>
0

>  <SCORE.RESTR.norm>
0

>  <SCORE.SYSTEM>
0

>  <SCORE.SYSTEM.CONST>
0

>  <SCORE.SYSTEM.DIHEDRAL>
0

>  <SCORE.SYSTEM.SOLV>
0

>  <SCORE.SYSTEM.norm>
0

>  <SCORE.heavy>
27

>  <SCORE.norm>
-0.385795

>  <RMSD>
16.713

$$$$
ligand
 OpenBabel11021811483D
libRbt.so/2013.1/901 2013/11/27
 27 29  0  0  0  0  0  0  0  0999 V2000
   -2.9654  -12.5417    9.1916 N   0  0  0  0  0  0  0  0  0  0  0  0
   -1.8659  -13.4954    9.0324 C   0  0  2  0  0  0  0  0  0  0  0  0
   -1.3071  -14.0874   10.3286 C   0  0  0  0  0  0  0  0  0  0  0  0
   -0.5889  -13.3854   11.0392 O   0  0  0  0  0  0  0  0  0  0  0  0
   -0.7483  -12.9009    8.1918 C   0  0  0  0  0  0  0  0  0  0  0  0
    0.3374  -13.9232    7.9025 C   0  0  0  0  0  0  0  0  0  0  0  0
   -0.0725  -14.8903    6.4390 S   0  0  2  0  0  0  0  0  0  0  0  0
   -0.9438  -16.2708    7.2100 C   0  0  0  0  0  0  0  0  0  0  0  0
    1.5188  -15.6835    6.1117 C   0  0  0  0  0  0  0  0  0  0  0  0
    1.4769  -16.4651    4.8116 C   0  0  1  0  0  0  0  0  0  0  0  0
    2.5518  -16.0987    3.9770 O   0  0  0  0  0  0  0  0  0  0  0  0
    1.6301  -17.9590    5.0197 C   0  0  1  0  0  0  0  0  0  0  0  0
    0.3483  -18.5255    5.1255 O   0  0  0  0  0  0  0  0  0  0  0  0
    2.3285  -18.4231    3.7577 C   0  0  1  0  0  0  0  0  0  0  0  0
    1.3441  -18.9687    2.9085 O   0  0  0  0  0  0  0  0  0  0  0  0
    2.9453  -17.1685    3.1357 C   0  0  2  0  0  0  0  0  0  0  0  0
   -1.5396  -15.2431   10.6933 O   0  0  0  0  0  0  0  0  0  0  0  0
    7.1619  -16.6598    6.1983 N   0  0  0  0  0  0  0  0  0  0  0  0
    5.8415  -16.5245    6.5524 C   0  0  0  0  0  0  0  0  0  0  0  0
    4.8664  -16.6964    5.5947 N   0  0  0  0  0  0  0  0  0  0  0  0
    5.1871  -16.9981    4.3165 C   0  0  0  0  0  0  0  0  0  0  0  0
    6.5154  -17.1517    3.9469 C   0  0  0  0  0  0  0  0  0  0  0  0
    7.5137  -16.9708    4.9020 C   0  0  0  0  0  0  0  0  0  0  0  0
    8.8018  -17.1032    4.5842 N   0  0  0  0  0  0  0  0  0  0  0  0
    6.5480  -17.4576    2.6242 N   0  0  0  0  0  0  0  0  0  0  0  0
    5.2743  -17.5133    2.1714 C   0  0  0  0  0  0  0  0  0  0  0  0
    4.4183  -17.2380    3.2092 N   0  0  0  0  0  0  0  0  0  0  0  0
  2  1  1  1  0  0  0
  2  3  1  0  0  0  0
  2  5  1  0  0  0  0
  3  4  1  0  0  0  0
  3 17  1  0  0  0  0
  5  6  1  0  0  0  0
  7  6  1  1  0  0  0
  7  8  1  0  0  0  0
  7  9  1  0  0  0  0
 10  9  1  1  0  0  0
 10 11  1  0  0  0  0
 10 12  1  0  0  0  0
 11 16  1  0  0  0  0
 12 13  1  6  0  0  0
 12 14  1  0  0  0  0
 14 15  1  6  0  0  0
 14 16  1  0  0  0  0
 16 27  1  1  0  0  0
 18 19  2  0  0  0  0
 18 23  1  0  0  0  0
 19 20  1  0  0  0  0
 20 21  2  0  0  0  0
 21 22  1  0  0  0  0
 21 27  1  0  0  0  0
 22 23  2  0  0  0  0
 22 25  1  0  0  0  0
 23 24  1  0  0  0  0
 25 26  2  0  0  0  0
 26 27  1  0  0  0  0
M  END
>  <CHROM.1>
-74.94174686,-174.38707188,86.18005022,-91.68314031,-174.14808570,128.04675712
36.12343488,2.22898460,-16.09081915,5.96438374,-2.42699957,-0.01740192,-2.16268051

>  <Name>
ligand

>  <RI>
0

>  <Rbt.Current_Directory>
/home/itssahil/PROJECTS/Mol_Feturizer/New_Systems/rnas/3GX5

>  <Rbt.Executable>
rbdock ($Id: //depot/dev/client3/rdock/2013.1/src/exe/rbdock.cxx#4 $)

>  <Rbt.Library>
libRbt.so (2013.1, Build901 2013/11/27)

>  <Rbt.Parameter_File>
/export/apps/rDock/src/rDock_2013.1_src/data/scripts/dock_solv.prm

>  <Rbt.Receptor>
prm/blind_docking_20.prm

>  <SCORE>
-1.42932

>  <SCORE.INTER>
-4.24011

>  <SCORE.INTER.CONST>
1

>  <SCORE.INTER.POLAR>
0

>  <SCORE.INTER.ROT>
7

>  <SCORE.INTER.SOLV>
9.00337

>  <SCORE.INTER.VDW>
-14.0945

>  <SCORE.INTER.norm>
-0.157041

>  <SCORE.INTRA>
2.80758

>  <SCORE.INTRA.DIHEDRAL>
8.4812

>  <SCORE.INTRA.DIHEDRAL.0>
4.28829

>  <SCORE.INTRA.POLAR>
0

>  <SCORE.INTRA.POLAR.0>
0

>  <SCORE.INTRA.REPUL>
0

>  <SCORE.INTRA.REPUL.0>
0

>  <SCORE.INTRA.SOLV>
-0.946045

>  <SCORE.INTRA.SOLV.lig_0>
-48.6018

>  <SCORE.INTRA.VDW>
-0.959999

>  <SCORE.INTRA.VDW.0>
-2.1506

>  <SCORE.INTRA.norm>
0.103984

>  <SCORE.RESTR>
0.00321834

>  <SCORE.RESTR.CAVITY>
0.00321834

>  <SCORE.RESTR.norm>
0.000119198

>  <SCORE.SYSTEM>
0

>  <SCORE.SYSTEM.CONST>
0

>  <SCORE.SYSTEM.DIHEDRAL>
0

>  <SCORE.SYSTEM.SOLV>
0

>  <SCORE.SYSTEM.norm>
0

>  <SCORE.heavy>
27

>  <SCORE.norm>
-0.0529378

>  <RMSD>
16.737

$$$$
ligand
 OpenBabel11021811483D
libRbt.so/2013.1/901 2013/11/27
 27 29  0  0  0  0  0  0  0  0999 V2000
    2.4420   -4.6487   20.5062 N   0  0  0  0  0  0  0  0  0  0  0  0
    2.0254   -4.6211   21.9096 C   0  0  2  0  0  0  0  0  0  0  0  0
    0.7740   -3.7943   22.2149 C   0  0  0  0  0  0  0  0  0  0  0  0
    0.1081   -4.0734   23.2110 O   0  0  0  0  0  0  0  0  0  0  0  0
    3.1754   -4.2011   22.8096 C   0  0  0  0  0  0  0  0  0  0  0  0
    4.4029   -5.0683   22.5890 C   0  0  0  0  0  0  0  0  0  0  0  0
    5.8106   -4.4254   23.5111 S   0  0  2  0  0  0  0  0  0  0  0  0
    5.9493   -2.7860   22.7678 C   0  0  0  0  0  0  0  0  0  0  0  0
    7.1706   -5.2583   22.6596 C   0  0  0  0  0  0  0  0  0  0  0  0
    7.4504   -6.6136   23.2826 C   0  0  1  0  0  0  0  0  0  0  0  0
    8.2586   -7.3939   22.4316 O   0  0  0  0  0  0  0  0  0  0  0  0
    8.2259   -6.5136   24.5814 C   0  0  1  0  0  0  0  0  0  0  0  0
    7.3075   -6.4794   25.6445 O   0  0  0  0  0  0  0  0  0  0  0  0
    9.0414   -7.7905   24.6066 C   0  0  1  0  0  0  0  0  0  0  0  0
    8.3726   -8.7001   25.4513 O   0  0  0  0  0  0  0  0  0  0  0  0
    9.0599   -8.3033   23.1651 C   0  0  2  0  0  0  0  0  0  0  0  0
    0.3967   -2.8601   21.5024 O   0  0  0  0  0  0  0  0  0  0  0  0
   12.1795   -9.4083   19.1073 N   0  0  0  0  0  0  0  0  0  0  0  0
   10.8380   -9.6748   19.2364 C   0  0  0  0  0  0  0  0  0  0  0  0
   10.1860   -9.3045   20.3921 N   0  0  0  0  0  0  0  0  0  0  0  0
   10.8427   -8.6824   21.3967 C   0  0  0  0  0  0  0  0  0  0  0  0
   12.1943   -8.3942   21.2752 C   0  0  0  0  0  0  0  0  0  0  0  0
   12.8700   -8.7716   20.1166 C   0  0  0  0  0  0  0  0  0  0  0  0
   14.1701   -8.5182   19.9651 N   0  0  0  0  0  0  0  0  0  0  0  0
   12.5913   -7.7671   22.4125 N   0  0  0  0  0  0  0  0  0  0  0  0
   11.5169   -7.6459   23.2259 C   0  0  0  0  0  0  0  0  0  0  0  0
   10.4236   -8.2017   22.6084 N   0  0  0  0  0  0  0  0  0  0  0  0
  2  1  1  6  0  0  0
  2  3  1  0  0  0  0
  2  5  1  0  0  0  0
  3  4  1  0  0  0  0
  3 17  1  0  0  0  0
  5  6  1  0  0  0  0
  7  6  1  6  0  0  0
  7  8  1  0  0  0  0
  7  9  1  0  0  0  0
 10  9  1  6  0  0  0
 10 11  1  0  0  0  0
 10 12  1  0  0  0  0
 11 16  1  0  0  0  0
 12 13  1  1  0  0  0
 12 14  1  0  0  0  0
 14 15  1  1  0  0  0
 14 16  1  0  0  0  0
 16 27  1  6  0  0  0
 18 19  2  0  0  0  0
 18 23  1  0  0  0  0
 19 20  1  0  0  0  0
 20 21  2  0  0  0  0
 21 22  1  0  0  0  0
 21 27  1  0  0  0  0
 22 23  2  0  0  0  0
 22 25  1  0  0  0  0
 23 24  1  0  0  0  0
 25 26  2  0  0  0  0
 26 27  1  0  0  0  0
M  END
>  <CHROM.1>
155.20681922,-53.93008932,172.90665101,-60.20376418,-88.15365225,165.17219643
-72.90082045,7.47284439,-6.49250078,22.42604442,2.99887925,-0.44951521,1.50142170

>  <Name>
ligand

>  <RI>
0

>  <Rbt.Current_Directory>
/home/itssahil/PROJECTS/Mol_Feturizer/New_Systems/rnas/3GX5

>  <Rbt.Executable>
rbdock ($Id: //depot/dev/client3/rdock/2013.1/src/exe/rbdock.cxx#4 $)

>  <Rbt.Library>
libRbt.so (2013.1, Build901 2013/11/27)

>  <Rbt.Parameter_File>
/export/apps/rDock/src/rDock_2013.1_src/data/scripts/dock_solv.prm

>  <Rbt.Receptor>
prm/blind_docking_60.prm

>  <SCORE>
-14.4642

>  <SCORE.INTER>
-15.9718

>  <SCORE.INTER.CONST>
1

>  <SCORE.INTER.POLAR>
0

>  <SCORE.INTER.ROT>
7

>  <SCORE.INTER.SOLV>
12.3125

>  <SCORE.INTER.VDW>
-23.0187

>  <SCORE.INTER.norm>
-0.591549

>  <SCORE.INTRA>
1.50432

>  <SCORE.INTRA.DIHEDRAL>
1.4707

>  <SCORE.INTRA.DIHEDRAL.0>
4.28829

>  <SCORE.INTRA.POLAR>
0

>  <SCORE.INTRA.POLAR.0>
0

>  <SCORE.INTRA.REPUL>
0

>  <SCORE.INTRA.REPUL.0>
0

>  <SCORE.INTRA.SOLV>
-0.226272

>  <SCORE.INTRA.SOLV.lig_0>
-48.6018

>  <SCORE.INTRA.VDW>
0.882104

>  <SCORE.INTRA.VDW.0>
-2.1506

>  <SCORE.INTRA.norm>
0.0557156

>  <SCORE.RESTR>
0.00327869

>  <SCORE.RESTR.CAVITY>
0.00327869

>  <SCORE.RESTR.norm>
0.000121433

>  <SCORE.SYSTEM>
0

>  <SCORE.SYSTEM.CONST>
0

>  <SCORE.SYSTEM.DIHEDRAL>
0

>  <SCORE.SYSTEM.SOLV>
0

>  <SCORE.SYSTEM.norm>
0

>  <SCORE.heavy>
27

>  <SCORE.norm>
-0.535712

>  <RMSD>
16.744

$$$$
ligand
 OpenBabel11021811483D
libRbt.so/2013.1/901 2013/11/27
 27 29  0  0  0  0  0  0  0  0999 V2000
   -1.6477  -11.7649    8.7950 N   0  0  0  0  0  0  0  0  0  0  0  0
   -1.4474  -13.1707    8.4381 C   0  0  2  0  0  0  0  0  0  0  0  0
   -2.6821  -14.0678    8.5539 C   0  0  0  0  0  0  0  0  0  0  0  0
   -3.7923  -13.5419    8.6210 O   0  0  0  0  0  0  0  0  0  0  0  0
   -0.2809  -13.7661    9.2087 C   0  0  0  0  0  0  0  0  0  0  0  0
    0.2441  -15.0260    8.5420 C   0  0  0  0  0  0  0  0  0  0  0  0
    1.2387  -14.6147    7.0974 S   0  0  2  0  0  0  0  0  0  0  0  0
   -0.0654  -14.4214    5.8642 C   0  0  0  0  0  0  0  0  0  0  0  0
    1.8470  -16.2542    6.6383 C   0  0  0  0  0  0  0  0  0  0  0  0
    3.3162  -16.4040    6.9876 C   0  0  1  0  0  0  0  0  0  0  0  0
    3.9079  -17.4255    6.2178 O   0  0  0  0  0  0  0  0  0  0  0  0
    4.1230  -15.1584    6.6779 C   0  0  1  0  0  0  0  0  0  0  0  0
    4.1732  -14.3635    7.8357 O   0  0  0  0  0  0  0  0  0  0  0  0
    5.4942  -15.7015    6.3299 C   0  0  1  0  0  0  0  0  0  0  0  0
    6.3076  -15.5531    7.4720 O   0  0  0  0  0  0  0  0  0  0  0  0
    5.2866  -17.1816    6.0016 C   0  0  2  0  0  0  0  0  0  0  0  0
   -2.6157  -15.2995    8.5889 O   0  0  0  0  0  0  0  0  0  0  0  0
    3.3467  -16.8279    1.1509 N   0  0  0  0  0  0  0  0  0  0  0  0
    2.7545  -16.4346    2.3263 C   0  0  0  0  0  0  0  0  0  0  0  0
    3.4300  -16.6135    3.5135 N   0  0  0  0  0  0  0  0  0  0  0  0
    4.6637  -17.1656    3.5397 C   0  0  0  0  0  0  0  0  0  0  0  0
    5.2803  -17.5550    2.3595 C   0  0  0  0  0  0  0  0  0  0  0  0
    4.6056  -17.3900    1.1517 C   0  0  0  0  0  0  0  0  0  0  0  0
    5.1620  -17.7578   -0.0028 N   0  0  0  0  0  0  0  0  0  0  0  0
    6.5000  -18.0628    2.6736 N   0  0  0  0  0  0  0  0  0  0  0  0
    6.6594  -17.9820    4.0147 C   0  0  0  0  0  0  0  0  0  0  0  0
    5.5334  -17.4217    4.5658 N   0  0  0  0  0  0  0  0  0  0  0  0
  2  1  1  1  0  0  0
  2  3  1  0  0  0  0
  2  5  1  0  0  0  0
  3  4  1  0  0  0  0
  3 17  1  0  0  0  0
  5  6  1  0  0  0  0
  7  6  1  1  0  0  0
  7  8  1  0  0  0  0
  7  9  1  0  0  0  0
 10  9  1  6  0  0  0
 10 11  1  0  0  0  0
 10 12  1  0  0  0  0
 11 16  1  0  0  0  0
 12 13  1  1  0  0  0
 12 14  1  0  0  0  0
 14 15  1  1  0  0  0
 14 16  1  0  0  0  0
 16 27  1  6  0  0  0
 18 19  2  0  0  0  0
 18 23  1  0  0  0  0
 19 20  1  0  0  0  0
 20 21  2  0  0  0  0
 21 22  1  0  0  0  0
 21 27  1  0  0  0  0
 22 23  2  0  0  0  0
 22 25  1  0  0  0  0
 23 24  1  0  0  0  0
 25 26  2  0  0  0  0
 26 27  1  0  0  0  0
M  END
>  <CHROM.1>
16.74197296,-160.59537193,76.55935104,-83.77248054,-106.59559392,-158.16053283
34.20964266,2.50649530,-15.71260767,5.83887224,2.41007378,-0.24043044,1.25968713

>  <Name>
ligand

>  <RI>
0

>  <Rbt.Current_Directory>
/home/itssahil/PROJECTS/Mol_Feturizer/New_Systems/rnas/3GX5

>  <Rbt.Executable>
rbdock ($Id: //depot/dev/client3/rdock/2013.1/src/exe/rbdock.cxx#4 $)

>  <Rbt.Library>
libRbt.so (2013.1, Build901 2013/11/27)

>  <Rbt.Parameter_File>
/export/apps/rDock/src/rDock_2013.1_src/data/scripts/dock_solv.prm

>  <Rbt.Receptor>
prm/blind_docking_20.prm

>  <SCORE>
0.207032

>  <SCORE.INTER>
-3.28877

>  <SCORE.INTER.CONST>
1

>  <SCORE.INTER.POLAR>
0

>  <SCORE.INTER.ROT>
7

>  <SCORE.INTER.SOLV>
18.5209

>  <SCORE.INTER.VDW>
-16.6328

>  <SCORE.INTER.norm>
-0.121806

>  <SCORE.INTRA>
3.42691

>  <SCORE.INTRA.DIHEDRAL>
6.52815

>  <SCORE.INTRA.DIHEDRAL.0>
4.28829

>  <SCORE.INTRA.POLAR>
0

>  <SCORE.INTRA.POLAR.0>
0

>  <SCORE.INTRA.REPUL>
0

>  <SCORE.INTRA.REPUL.0>
0

>  <SCORE.INTRA.SOLV>
-0.322068

>  <SCORE.INTRA.SOLV.lig_0>
-48.6018

>  <SCORE.INTRA.VDW>
0.323866

>  <SCORE.INTRA.VDW.0>
-2.1506

>  <SCORE.INTRA.norm>
0.126922

>  <SCORE.RESTR>
0.0688936

>  <SCORE.RESTR.CAVITY>
0.0688936

>  <SCORE.RESTR.norm>
0.00255161

>  <SCORE.SYSTEM>
0

>  <SCORE.SYSTEM.CONST>
0

>  <SCORE.SYSTEM.DIHEDRAL>
0

>  <SCORE.SYSTEM.SOLV>
0

>  <SCORE.SYSTEM.norm>
0

>  <SCORE.heavy>
27

>  <SCORE.norm>
0.00766785

>  <RMSD>
16.779

$$$$
ligand
 OpenBabel11021811483D
libRbt.so/2013.1/901 2013/11/27
 27 29  0  0  0  0  0  0  0  0999 V2000
    3.2775  -14.0411    4.0715 N   0  0  0  0  0  0  0  0  0  0  0  0
    2.5693  -15.1541    3.4363 C   0  0  2  0  0  0  0  0  0  0  0  0
    3.0359  -15.5193    2.0250 C   0  0  0  0  0  0  0  0  0  0  0  0
    4.2368  -15.4603    1.7642 O   0  0  0  0  0  0  0  0  0  0  0  0
    1.0671  -14.9264    3.4596 C   0  0  0  0  0  0  0  0  0  0  0  0
    0.5213  -14.9452    4.8770 C   0  0  0  0  0  0  0  0  0  0  0  0
    1.1860  -16.3444    5.7967 S   0  0  2  0  0  0  0  0  0  0  0  0
   -0.3509  -17.1390    6.3118 C   0  0  0  0  0  0  0  0  0  0  0  0
    1.6405  -15.5336    7.3474 C   0  0  0  0  0  0  0  0  0  0  0  0
    3.0552  -15.9006    7.7560 C   0  0  1  0  0  0  0  0  0  0  0  0
    3.5277  -16.9849    6.9898 O   0  0  0  0  0  0  0  0  0  0  0  0
    4.0467  -14.7807    7.5089 C   0  0  1  0  0  0  0  0  0  0  0  0
    4.1582  -14.0199    8.6852 O   0  0  0  0  0  0  0  0  0  0  0  0
    5.3395  -15.5116    7.2081 C   0  0  1  0  0  0  0  0  0  0  0  0
    6.1129  -15.5009    8.3870 O   0  0  0  0  0  0  0  0  0  0  0  0
    4.9356  -16.9405    6.8383 C   0  0  2  0  0  0  0  0  0  0  0  0
    2.2599  -15.8664    1.1305 O   0  0  0  0  0  0  0  0  0  0  0  0
    3.1080  -18.9426    2.3584 N   0  0  0  0  0  0  0  0  0  0  0  0
    2.4717  -18.8772    3.5741 C   0  0  0  0  0  0  0  0  0  0  0  0
    3.1242  -18.3091    4.6461 N   0  0  0  0  0  0  0  0  0  0  0  0
    4.3758  -17.8139    4.5203 C   0  0  0  0  0  0  0  0  0  0  0  0
    5.0259  -17.8602    3.2957 C   0  0  0  0  0  0  0  0  0  0  0  0
    4.3830  -18.4409    2.2045 C   0  0  0  0  0  0  0  0  0  0  0  0
    4.9772  -18.5102    1.0130 N   0  0  0  0  0  0  0  0  0  0  0  0
    6.2497  -17.2924    3.4510 N   0  0  0  0  0  0  0  0  0  0  0  0
    6.3658  -16.8819    4.7350 C   0  0  0  0  0  0  0  0  0  0  0  0
    5.2104  -17.1912    5.4095 N   0  0  0  0  0  0  0  0  0  0  0  0
  2  1  1  6  0  0  0
  2  3  1  0  0  0  0
  2  5  1  0  0  0  0
  3  4  1  0  0  0  0
  3 17  1  0  0  0  0
  5  6  1  0  0  0  0
  7  6  1  6  0  0  0
  7  8  1  0  0  0  0
  7  9  1  0  0  0  0
 10  9  1  6  0  0  0
 10 11  1  0  0  0  0
 10 12  1  0  0  0  0
 11 16  1  0  0  0  0
 12 13  1  1  0  0  0
 12 14  1  0  0  0  0
 14 15  1  1  0  0  0
 14 16  1  0  0  0  0
 16 27  1  6  0  0  0
 18 19  2  0  0  0  0
 18 23  1  0  0  0  0
 19 20  1  0  0  0  0
 20 21  2  0  0  0  0
 21 22  1  0  0  0  0
 21 27  1  0  0  0  0
 22 23  2  0  0  0  0
 22 25  1  0  0  0  0
 23 24  1  0  0  0  0
 25 26  2  0  0  0  0
 26 27  1  0  0  0  0
M  END
>  <CHROM.1>
37.60024756,-66.00621263,-46.09469326,-124.08857814,-131.13461129,-12.73324473
-21.67115056,3.41736752,-16.41930724,4.85760711,1.59658997,-0.24566999,1.25352936

>  <Name>
ligand

>  <RI>
0

>  <Rbt.Current_Directory>
/home/itssahil/PROJECTS/Mol_Feturizer/New_Systems/rnas/3GX5

>  <Rbt.Executable>
rbdock ($Id: //depot/dev/client3/rdock/2013.1/src/exe/rbdock.cxx#4 $)

>  <Rbt.Library>
libRbt.so (2013.1, Build901 2013/11/27)

>  <Rbt.Parameter_File>
/export/apps/rDock/src/rDock_2013.1_src/data/scripts/dock_solv.prm

>  <Rbt.Receptor>
prm/blind_docking_20.prm

>  <SCORE>
3.53877

>  <SCORE.INTER>
-2.75303

>  <SCORE.INTER.CONST>
1

>  <SCORE.INTER.POLAR>
0

>  <SCORE.INTER.ROT>
7

>  <SCORE.INTER.SOLV>
11.1391

>  <SCORE.INTER.VDW>
-13.815

>  <SCORE.INTER.norm>
-0.101964

>  <SCORE.INTRA>
5.62309

>  <SCORE.INTRA.DIHEDRAL>
13.1309

>  <SCORE.INTRA.DIHEDRAL.0>
4.28829

>  <SCORE.INTRA.POLAR>
0

>  <SCORE.INTRA.POLAR.0>
0

>  <SCORE.INTRA.REPUL>
0

>  <SCORE.INTRA.REPUL.0>
0

>  <SCORE.INTRA.SOLV>
3.88267

>  <SCORE.INTRA.SOLV.lig_0>
-48.6018

>  <SCORE.INTRA.VDW>
-2.8837

>  <SCORE.INTRA.VDW.0>
-2.1506

>  <SCORE.INTRA.norm>
0.208263

>  <SCORE.RESTR>
0.668717

>  <SCORE.RESTR.CAVITY>
0.668717

>  <SCORE.RESTR.norm>
0.0247673

>  <SCORE.SYSTEM>
0

>  <SCORE.SYSTEM.CONST>
0

>  <SCORE.SYSTEM.DIHEDRAL>
0

>  <SCORE.SYSTEM.SOLV>
0

>  <SCORE.SYSTEM.norm>
0

>  <SCORE.heavy>
27

>  <SCORE.norm>
0.131066

>  <RMSD>
16.791

$$$$
ligand
 OpenBabel11021811483D
libRbt.so/2013.1/901 2013/11/27
 27 29  0  0  0  0  0  0  0  0999 V2000
   -0.0679   -9.1922    8.5870 N   0  0  0  0  0  0  0  0  0  0  0  0
   -1.2311  -10.0448    8.8400 C   0  0  2  0  0  0  0  0  0  0  0  0
   -1.9028   -9.8644   10.2035 C   0  0  0  0  0  0  0  0  0  0  0  0
   -1.3773   -9.1184   11.0287 O   0  0  0  0  0  0  0  0  0  0  0  0
   -0.8955  -11.5072    8.5997 C   0  0  0  0  0  0  0  0  0  0  0  0
   -2.1487  -12.3614    8.5156 C   0  0  0  0  0  0  0  0  0  0  0  0
   -1.7301  -14.1128    8.5671 S   0  0  2  0  0  0  0  0  0  0  0  0
   -0.8440  -14.1768   10.1386 C   0  0  0  0  0  0  0  0  0  0  0  0
   -0.3265  -14.1498    7.4281 C   0  0  0  0  0  0  0  0  0  0  0  0
   -0.4621  -15.2925    6.4387 C   0  0  1  0  0  0  0  0  0  0  0  0
    0.5642  -15.2388    5.4744 O   0  0  0  0  0  0  0  0  0  0  0  0
   -0.3200  -16.6536    7.0912 C   0  0  1  0  0  0  0  0  0  0  0  0
   -1.6014  -17.1153    7.4371 O   0  0  0  0  0  0  0  0  0  0  0  0
    0.2907  -17.5083    5.9991 C   0  0  1  0  0  0  0  0  0  0  0  0
   -0.7534  -18.2551    5.4160 O   0  0  0  0  0  0  0  0  0  0  0  0
    0.8873  -16.5289    4.9861 C   0  0  2  0  0  0  0  0  0  0  0  0
   -2.9486  -10.4391   10.5176 O   0  0  0  0  0  0  0  0  0  0  0  0
    5.2445  -15.9917    7.8398 N   0  0  0  0  0  0  0  0  0  0  0  0
    3.9438  -15.8196    8.2467 C   0  0  0  0  0  0  0  0  0  0  0  0
    2.9241  -16.0068    7.3396 N   0  0  0  0  0  0  0  0  0  0  0  0
    3.1822  -16.3589    6.0602 C   0  0  0  0  0  0  0  0  0  0  0  0
    4.4899  -16.5499    5.6382 C   0  0  0  0  0  0  0  0  0  0  0  0
    5.5327  -16.3542    6.5412 C   0  0  0  0  0  0  0  0  0  0  0  0
    6.8029  -16.5215    6.1720 N   0  0  0  0  0  0  0  0  0  0  0  0
    4.4581  -16.9025    4.3271 N   0  0  0  0  0  0  0  0  0  0  0  0
    3.1647  -16.9503    3.9331 C   0  0  0  0  0  0  0  0  0  0  0  0
    2.3607  -16.6230    4.9971 N   0  0  0  0  0  0  0  0  0  0  0  0
  2  1  1  1  0  0  0
  2  3  1  0  0  0  0
  2  5  1  0  0  0  0
  3  4  1  0  0  0  0
  3 17  1  0  0  0  0
  5  6  1  0  0  0  0
  7  6  1  1  0  0  0
  7  8  1  0  0  0  0
  7  9  1  0  0  0  0
 10  9  1  1  0  0  0
 10 11  1  0  0  0  0
 10 12  1  0  0  0  0
 11 16  1  0  0  0  0
 12 13  1  6  0  0  0
 12 14  1  0  0  0  0
 14 15  1  6  0  0  0
 14 16  1  0  0  0  0
 16 27  1  1  0  0  0
 18 19  2  0  0  0  0
 18 23  1  0  0  0  0
 19 20  1  0  0  0  0
 20 21  2  0  0  0  0
 21 22  1  0  0  0  0
 21 27  1  0  0  0  0
 22 23  2  0  0  0  0
 22 25  1  0  0  0  0
 23 24  1  0  0  0  0
 25 26  2  0  0  0  0
 26 27  1  0  0  0  0
M  END
>  <CHROM.1>
-5.91411618,-165.77187021,-168.51013829,57.54078205,-133.10465076,174.29309691
52.15624894,0.77161070,-14.58353879,7.38121897,-2.21599761,-0.08454073,-2.62069295

>  <Name>
ligand

>  <RI>
0

>  <Rbt.Current_Directory>
/home/itssahil/PROJECTS/Mol_Feturizer/New_Systems/rnas/3GX5

>  <Rbt.Executable>
rbdock ($Id: //depot/dev/client3/rdock/2013.1/src/exe/rbdock.cxx#4 $)

>  <Rbt.Library>
libRbt.so (2013.1, Build901 2013/11/27)

>  <Rbt.Parameter_File>
/export/apps/rDock/src/rDock_2013.1_src/data/scripts/dock_solv.prm

>  <Rbt.Receptor>
prm/blind_docking_20.prm

>  <SCORE>
-3.06533

>  <SCORE.INTER>
-6.35293

>  <SCORE.INTER.CONST>
1

>  <SCORE.INTER.POLAR>
0

>  <SCORE.INTER.ROT>
7

>  <SCORE.INTER.SOLV>
12.3784

>  <SCORE.INTER.VDW>
-16.6281

>  <SCORE.INTER.norm>
-0.235294

>  <SCORE.INTRA>
3.2715

>  <SCORE.INTRA.DIHEDRAL>
4.78679

>  <SCORE.INTRA.DIHEDRAL.0>
4.28829

>  <SCORE.INTRA.POLAR>
0

>  <SCORE.INTRA.POLAR.0>
0

>  <SCORE.INTRA.REPUL>
0

>  <SCORE.INTRA.REPUL.0>
0

>  <SCORE.INTRA.SOLV>
-1.02087

>  <SCORE.INTRA.SOLV.lig_0>
-48.6018

>  <SCORE.INTRA.VDW>
1.38854

>  <SCORE.INTRA.VDW.0>
-2.1506

>  <SCORE.INTRA.norm>
0.121167

>  <SCORE.RESTR>
0.0161018

>  <SCORE.RESTR.CAVITY>
0.0161018

>  <SCORE.RESTR.norm>
0.000596363

>  <SCORE.SYSTEM>
0

>  <SCORE.SYSTEM.CONST>
0

>  <SCORE.SYSTEM.DIHEDRAL>
0

>  <SCORE.SYSTEM.SOLV>
0

>  <SCORE.SYSTEM.norm>
0

>  <SCORE.heavy>
27

>  <SCORE.norm>
-0.113531

>  <RMSD>
16.906

$$$$
ligand
 OpenBabel11021811483D
libRbt.so/2013.1/901 2013/11/27
 27 29  0  0  0  0  0  0  0  0999 V2000
    5.6469  -15.0072    5.2604 N   0  0  0  0  0  0  0  0  0  0  0  0
    6.0275  -16.3628    4.8587 C   0  0  2  0  0  0  0  0  0  0  0  0
    7.5316  -16.6280    4.7575 C   0  0  0  0  0  0  0  0  0  0  0  0
    8.3113  -15.6927    4.9342 O   0  0  0  0  0  0  0  0  0  0  0  0
    5.3268  -16.7652    3.5719 C   0  0  0  0  0  0  0  0  0  0  0  0
    3.8191  -16.8169    3.7494 C   0  0  0  0  0  0  0  0  0  0  0  0
    3.3237  -18.3586    4.5387 S   0  0  2  0  0  0  0  0  0  0  0  0
    1.5282  -18.1853    4.4646 C   0  0  0  0  0  0  0  0  0  0  0  0
    3.5952  -17.9414    6.2767 C   0  0  0  0  0  0  0  0  0  0  0  0
    3.4005  -16.4551    6.5135 C   0  0  1  0  0  0  0  0  0  0  0  0
    2.0860  -16.0678    6.1842 O   0  0  0  0  0  0  0  0  0  0  0  0
    3.5744  -16.0648    7.9680 C   0  0  1  0  0  0  0  0  0  0  0  0
    4.9113  -15.6797    8.1668 O   0  0  0  0  0  0  0  0  0  0  0  0
    2.6374  -14.8854    8.1333 C   0  0  1  0  0  0  0  0  0  0  0  0
    3.4188  -13.7140    8.0607 O   0  0  0  0  0  0  0  0  0  0  0  0
    1.6613  -14.9591    6.9572 C   0  0  2  0  0  0  0  0  0  0  0  0
    8.0012  -17.7398    4.5004 O   0  0  0  0  0  0  0  0  0  0  0  0
   -1.9539  -14.0640   10.6378 N   0  0  0  0  0  0  0  0  0  0  0  0
   -0.7129  -13.4872   10.5171 C   0  0  0  0  0  0  0  0  0  0  0  0
    0.1032  -13.8580    9.4711 N   0  0  0  0  0  0  0  0  0  0  0  0
   -0.2977  -14.7754    8.5627 C   0  0  0  0  0  0  0  0  0  0  0  0
   -1.5535  -15.3563    8.6634 C   0  0  0  0  0  0  0  0  0  0  0  0
   -2.3864  -14.9992    9.7218 C   0  0  0  0  0  0  0  0  0  0  0  0
   -3.5976  -15.5400    9.8566 N   0  0  0  0  0  0  0  0  0  0  0  0
   -1.6965  -16.2237    7.6284 N   0  0  0  0  0  0  0  0  0  0  0  0
   -0.5688  -16.1814    6.8821 C   0  0  0  0  0  0  0  0  0  0  0  0
    0.3054  -15.2835    7.4434 N   0  0  0  0  0  0  0  0  0  0  0  0
  2  1  1  6  0  0  0
  2  3  1  0  0  0  0
  2  5  1  0  0  0  0
  3  4  1  0  0  0  0
  3 17  1  0  0  0  0
  5  6  1  0  0  0  0
  7  6  1  6  0  0  0
  7  8  1  0  0  0  0
  7  9  1  0  0  0  0
 10  9  1  1  0  0  0
 10 11  1  0  0  0  0
 10 12  1  0  0  0  0
 11 16  1  0  0  0  0
 12 13  1  6  0  0  0
 12 14  1  0  0  0  0
 14 15  1  6  0  0  0
 14 16  1  0  0  0  0
 16 27  1  1  0  0  0
 18 19  2  0  0  0  0
 18 23  1  0  0  0  0
 19 20  1  0  0  0  0
 20 21  2  0  0  0  0
 21 22  1  0  0  0  0
 21 27  1  0  0  0  0
 22 23  2  0  0  0  0
 22 25  1  0  0  0  0
 23 24  1  0  0  0  0
 25 26  2  0  0  0  0
 26 27  1  0  0  0  0
M  END
>  <CHROM.1>
-4.28817276,-63.31356348,-80.23450326,-174.99036670,29.48190225,60.77025161
155.07024986,2.48122795,-15.95987306,6.80231878,-0.54475875,0.20065496,0.84014399

>  <Name>
ligand

>  <RI>
0

>  <Rbt.Current_Directory>
/home/itssahil/PROJECTS/Mol_Feturizer/New_Systems/rnas/3GX5

>  <Rbt.Executable>
rbdock ($Id: //depot/dev/client3/rdock/2013.1/src/exe/rbdock.cxx#4 $)

>  <Rbt.Library>
libRbt.so (2013.1, Build901 2013/11/27)

>  <Rbt.Parameter_File>
/export/apps/rDock/src/rDock_2013.1_src/data/scripts/dock_solv.prm

>  <Rbt.Receptor>
prm/blind_docking_20.prm

>  <SCORE>
-0.0345044

>  <SCORE.INTER>
-5.29988

>  <SCORE.INTER.CONST>
1

>  <SCORE.INTER.POLAR>
0

>  <SCORE.INTER.ROT>
7

>  <SCORE.INTER.SOLV>
8.1256

>  <SCORE.INTER.VDW>
-14.5085

>  <SCORE.INTER.norm>
-0.196292

>  <SCORE.INTRA>
5.09146

>  <SCORE.INTRA.DIHEDRAL>
2.47553

>  <SCORE.INTRA.DIHEDRAL.0>
4.28829

>  <SCORE.INTRA.POLAR>
0

>  <SCORE.INTRA.POLAR.0>
0

>  <SCORE.INTRA.REPUL>
0

>  <SCORE.INTRA.REPUL.0>
0

>  <SCORE.INTRA.SOLV>
4.56729

>  <SCORE.INTRA.SOLV.lig_0>
-48.6018

>  <SCORE.INTRA.VDW>
1.57005

>  <SCORE.INTRA.VDW.0>
-2.1506

>  <SCORE.INTRA.norm>
0.188573

>  <SCORE.RESTR>
0.173914

>  <SCORE.RESTR.CAVITY>
0.173914

>  <SCORE.RESTR.norm>
0.00644125

>  <SCORE.SYSTEM>
0

>  <SCORE.SYSTEM.CONST>
0

>  <SCORE.SYSTEM.DIHEDRAL>
0

>  <SCORE.SYSTEM.SOLV>
0

>  <SCORE.SYSTEM.norm>
0

>  <SCORE.heavy>
27

>  <SCORE.norm>
-0.00127794

>  <RMSD>
16.966

$$$$
ligand
 OpenBabel11021811483D
libRbt.so/2013.1/901 2013/11/27
 27 29  0  0  0  0  0  0  0  0999 V2000
   -0.1617  -14.1143    9.8950 N   0  0  0  0  0  0  0  0  0  0  0  0
   -0.5067  -13.3705    8.6819 C   0  0  2  0  0  0  0  0  0  0  0  0
   -1.9194  -12.7825    8.6426 C   0  0  0  0  0  0  0  0  0  0  0  0
   -2.8272  -13.3828    9.2163 O   0  0  0  0  0  0  0  0  0  0  0  0
   -0.2406  -14.2037    7.4394 C   0  0  0  0  0  0  0  0  0  0  0  0
   -1.0066  -15.5151    7.4717 C   0  0  0  0  0  0  0  0  0  0  0  0
   -0.7804  -16.4224    5.9320 S   0  0  2  0  0  0  0  0  0  0  0  0
   -1.3280  -18.0623    6.4517 C   0  0  0  0  0  0  0  0  0  0  0  0
    1.0090  -16.6792    5.9604 C   0  0  0  0  0  0  0  0  0  0  0  0
    1.7257  -15.5813    5.1962 C   0  0  1  0  0  0  0  0  0  0  0  0
    3.1200  -15.6802    5.3760 O   0  0  0  0  0  0  0  0  0  0  0  0
    1.5132  -15.6742    3.6980 C   0  0  1  0  0  0  0  0  0  0  0  0
    0.4142  -14.8681    3.3555 O   0  0  0  0  0  0  0  0  0  0  0  0
    2.7989  -15.1160    3.1222 C   0  0  1  0  0  0  0  0  0  0  0  0
    2.5476  -13.7796    2.7497 O   0  0  0  0  0  0  0  0  0  0  0  0
    3.8260  -15.1785    4.2548 C   0  0  2  0  0  0  0  0  0  0  0  0
   -2.1930  -11.7324    8.0550 O   0  0  0  0  0  0  0  0  0  0  0  0
    5.7695  -18.4192    0.6301 N   0  0  0  0  0  0  0  0  0  0  0  0
    4.7022  -17.5627    0.5098 C   0  0  0  0  0  0  0  0  0  0  0  0
    4.3387  -16.7844    1.5868 N   0  0  0  0  0  0  0  0  0  0  0  0
    5.0153  -16.8478    2.7554 C   0  0  0  0  0  0  0  0  0  0  0  0
    6.1038  -17.6977    2.8875 C   0  0  0  0  0  0  0  0  0  0  0  0
    6.4773  -18.4988    1.8105 C   0  0  0  0  0  0  0  0  0  0  0  0
    7.5135  -19.3330    1.9006 N   0  0  0  0  0  0  0  0  0  0  0  0
    6.5946  -17.5549    4.1457 N   0  0  0  0  0  0  0  0  0  0  0  0
    5.8482  -16.6273    4.7883 C   0  0  0  0  0  0  0  0  0  0  0  0
    4.8696  -16.1739    3.9384 N   0  0  0  0  0  0  0  0  0  0  0  0
  2  1  1  1  0  0  0
  2  3  1  0  0  0  0
  2  5  1  0  0  0  0
  3  4  1  0  0  0  0
  3 17  1  0  0  0  0
  5  6  1  0  0  0  0
  7  6  1  1  0  0  0
  7  8  1  0  0  0  0
  7  9  1  0  0  0  0
 10  9  1  1  0  0  0
 10 11  1  0  0  0  0
 10 12  1  0  0  0  0
 11 16  1  0  0  0  0
 12 13  1  6  0  0  0
 12 14  1  0  0  0  0
 14 15  1  1  0  0  0
 14 16  1  0  0  0  0
 16 27  1  6  0  0  0
 18 19  2  0  0  0  0
 18 23  1  0  0  0  0
 19 20  1  0  0  0  0
 20 21  2  0  0  0  0
 21 22  1  0  0  0  0
 21 27  1  0  0  0  0
 22 23  2  0  0  0  0
 22 25  1  0  0  0  0
 23 24  1  0  0  0  0
 25 26  2  0  0  0  0
 26 27  1  0  0  0  0
M  END
>  <CHROM.1>
-32.04592599,57.32664187,175.40620910,163.19622935,-93.76063440,171.85271369
120.72497052,2.07654081,-15.80696419,4.94729224,-2.41533304,0.25518528,-1.84312613

>  <Name>
ligand

>  <RI>
0

>  <Rbt.Current_Directory>
/home/itssahil/PROJECTS/Mol_Feturizer/New_Systems/rnas/3GX5

>  <Rbt.Executable>
rbdock ($Id: //depot/dev/client3/rdock/2013.1/src/exe/rbdock.cxx#4 $)

>  <Rbt.Library>
libRbt.so (2013.1, Build901 2013/11/27)

>  <Rbt.Parameter_File>
/export/apps/rDock/src/rDock_2013.1_src/data/scripts/dock_solv.prm

>  <Rbt.Receptor>
prm/blind_docking_20.prm

>  <SCORE>
-4.35255

>  <SCORE.INTER>
-7.12695

>  <SCORE.INTER.CONST>
1

>  <SCORE.INTER.POLAR>
0

>  <SCORE.INTER.ROT>
7

>  <SCORE.INTER.SOLV>
11.3333

>  <SCORE.INTER.VDW>
-16.7957

>  <SCORE.INTER.norm>
-0.263961

>  <SCORE.INTRA>
1.0883

>  <SCORE.INTRA.DIHEDRAL>
1.2454

>  <SCORE.INTRA.DIHEDRAL.0>
4.28829

>  <SCORE.INTRA.POLAR>
0

>  <SCORE.INTRA.POLAR.0>
0

>  <SCORE.INTRA.REPUL>
0

>  <SCORE.INTRA.REPUL.0>
0

>  <SCORE.INTRA.SOLV>
-0.304428

>  <SCORE.INTRA.SOLV.lig_0>
-48.6018

>  <SCORE.INTRA.VDW>
0.617819

>  <SCORE.INTRA.VDW.0>
-2.1506

>  <SCORE.INTRA.norm>
0.0403076

>  <SCORE.RESTR>
1.6861

>  <SCORE.RESTR.CAVITY>
1.6861

>  <SCORE.RESTR.norm>
0.062448

>  <SCORE.SYSTEM>
0

>  <SCORE.SYSTEM.CONST>
0

>  <SCORE.SYSTEM.DIHEDRAL>
0

>  <SCORE.SYSTEM.SOLV>
0

>  <SCORE.SYSTEM.norm>
0

>  <SCORE.heavy>
27

>  <SCORE.norm>
-0.161206

>  <RMSD>
16.976

$$$$
ligand
 OpenBabel11021811483D
libRbt.so/2013.1/901 2013/11/27
 27 29  0  0  0  0  0  0  0  0999 V2000
   -3.0032   -9.8913    9.9405 N   0  0  0  0  0  0  0  0  0  0  0  0
   -1.7051  -10.1270   10.5754 C   0  0  2  0  0  0  0  0  0  0  0  0
   -0.5725   -9.1953   10.1373 C   0  0  0  0  0  0  0  0  0  0  0  0
   -0.6847   -8.5851    9.0749 O   0  0  0  0  0  0  0  0  0  0  0  0
   -1.2860  -11.5806   10.4323 C   0  0  0  0  0  0  0  0  0  0  0  0
   -0.9223  -11.9182    8.9966 C   0  0  0  0  0  0  0  0  0  0  0  0
   -1.2560  -13.6536    8.6467 S   0  0  2  0  0  0  0  0  0  0  0  0
   -0.2574  -14.4303    9.9346 C   0  0  0  0  0  0  0  0  0  0  0  0
   -0.1715  -13.9175    7.2244 C   0  0  0  0  0  0  0  0  0  0  0  0
   -0.5348  -15.1988    6.4969 C   0  0  1  0  0  0  0  0  0  0  0  0
    0.4540  -15.5288    5.5485 O   0  0  0  0  0  0  0  0  0  0  0  0
   -0.6103  -16.3976    7.4219 C   0  0  1  0  0  0  0  0  0  0  0  0
   -1.9407  -16.5439    7.8503 O   0  0  0  0  0  0  0  0  0  0  0  0
   -0.1923  -17.5548    6.5375 C   0  0  1  0  0  0  0  0  0  0  0  0
   -1.3682  -18.2105    6.1189 O   0  0  0  0  0  0  0  0  0  0  0  0
    0.5326  -16.9285    5.3443 C   0  0  2  0  0  0  0  0  0  0  0  0
    0.4553   -9.0308   10.8001 O   0  0  0  0  0  0  0  0  0  0  0  0
    5.0776  -16.3093    7.8695 N   0  0  0  0  0  0  0  0  0  0  0  0
    3.8509  -15.7879    8.2017 C   0  0  0  0  0  0  0  0  0  0  0  0
    2.7628  -16.0654    7.4038 N   0  0  0  0  0  0  0  0  0  0  0  0
    2.8821  -16.8427    6.3041 C   0  0  0  0  0  0  0  0  0  0  0  0
    4.1116  -17.3877    5.9637 C   0  0  0  0  0  0  0  0  0  0  0  0
    5.2236  -17.1077    6.7551 C   0  0  0  0  0  0  0  0  0  0  0  0
    6.4233  -17.6074    6.4571 N   0  0  0  0  0  0  0  0  0  0  0  0
    3.9438  -18.1235    4.8347 N   0  0  0  0  0  0  0  0  0  0  0  0
    2.6401  -18.0606    4.4785 C   0  0  0  0  0  0  0  0  0  0  0  0
    1.9669  -17.2766    5.3828 N   0  0  0  0  0  0  0  0  0  0  0  0
  2  1  1  6  0  0  0
  2  3  1  0  0  0  0
  2  5  1  0  0  0  0
  3  4  1  0  0  0  0
  3 17  1  0  0  0  0
  5  6  1  0  0  0  0
  7  6  1  1  0  0  0
  7  8  1  0  0  0  0
  7  9  1  0  0  0  0
 10  9  1  1  0  0  0
 10 11  1  0  0  0  0
 10 12  1  0  0  0  0
 11 16  1  0  0  0  0
 12 13  1  6  0  0  0
 12 14  1  0  0  0  0
 14 15  1  6  0  0  0
 14 16  1  0  0  0  0
 16 27  1  1  0  0  0
 18 19  2  0  0  0  0
 18 23  1  0  0  0  0
 19 20  1  0  0  0  0
 20 21  2  0  0  0  0
 21 22  1  0  0  0  0
 21 27  1  0  0  0  0
 22 23  2  0  0  0  0
 22 25  1  0  0  0  0
 23 24  1  0  0  0  0
 25 26  2  0  0  0  0
 26 27  1  0  0  0  0
M  END
>  <CHROM.1>
-19.53762754,70.26463404,-150.71500592,-56.58073559,-164.65314175,-169.18982556
45.60811455,0.76541601,-14.66822671,7.66839979,2.07112093,-0.00737129,0.50845583

>  <Name>
ligand

>  <RI>
0

>  <Rbt.Current_Directory>
/home/itssahil/PROJECTS/Mol_Feturizer/New_Systems/rnas/3GX5

>  <Rbt.Executable>
rbdock ($Id: //depot/dev/client3/rdock/2013.1/src/exe/rbdock.cxx#4 $)

>  <Rbt.Library>
libRbt.so (2013.1, Build901 2013/11/27)

>  <Rbt.Parameter_File>
/export/apps/rDock/src/rDock_2013.1_src/data/scripts/dock_solv.prm

>  <Rbt.Receptor>
prm/blind_docking_20.prm

>  <SCORE>
-2.4449

>  <SCORE.INTER>
-5.32682

>  <SCORE.INTER.CONST>
1

>  <SCORE.INTER.POLAR>
0

>  <SCORE.INTER.ROT>
7

>  <SCORE.INTER.SOLV>
13.0975

>  <SCORE.INTER.VDW>
-16.1837

>  <SCORE.INTER.norm>
-0.19729

>  <SCORE.INTRA>
2.86308

>  <SCORE.INTRA.DIHEDRAL>
4.55408

>  <SCORE.INTRA.DIHEDRAL.0>
4.28829

>  <SCORE.INTRA.POLAR>
0

>  <SCORE.INTRA.POLAR.0>
0

>  <SCORE.INTRA.REPUL>
0

>  <SCORE.INTRA.REPUL.0>
0

>  <SCORE.INTRA.SOLV>
-0.104902

>  <SCORE.INTRA.SOLV.lig_0>
-48.6018

>  <SCORE.INTRA.VDW>
0.638491

>  <SCORE.INTRA.VDW.0>
-2.1506

>  <SCORE.INTRA.norm>
0.10604

>  <SCORE.RESTR>
0.0188431

>  <SCORE.RESTR.CAVITY>
0.0188431

>  <SCORE.RESTR.norm>
0.000697893

>  <SCORE.SYSTEM>
0

>  <SCORE.SYSTEM.CONST>
0

>  <SCORE.SYSTEM.DIHEDRAL>
0

>  <SCORE.SYSTEM.SOLV>
0

>  <SCORE.SYSTEM.norm>
0

>  <SCORE.heavy>
27

>  <SCORE.norm>
-0.0905517

>  <RMSD>
17.055

$$$$
ligand
 OpenBabel11021811483D
libRbt.so/2013.1/901 2013/11/27
 27 29  0  0  0  0  0  0  0  0999 V2000
    2.2737  -15.7514    4.8040 N   0  0  0  0  0  0  0  0  0  0  0  0
    2.4371  -17.0640    4.1762 C   0  0  2  0  0  0  0  0  0  0  0  0
    2.8712  -17.0489    2.7085 C   0  0  0  0  0  0  0  0  0  0  0  0
    2.0463  -17.3409    1.8437 O   0  0  0  0  0  0  0  0  0  0  0  0
    1.1883  -17.9110    4.3548 C   0  0  0  0  0  0  0  0  0  0  0  0
    1.1353  -18.5442    5.7346 C   0  0  0  0  0  0  0  0  0  0  0  0
   -0.5297  -18.4486    6.4154 S   0  0  2  0  0  0  0  0  0  0  0  0
   -1.4787  -19.0673    5.0097 C   0  0  0  0  0  0  0  0  0  0  0  0
   -0.8553  -16.6786    6.2431 C   0  0  0  0  0  0  0  0  0  0  0  0
   -0.4221  -15.9248    7.4870 C   0  0  1  0  0  0  0  0  0  0  0  0
    0.9372  -16.1695    7.7676 O   0  0  0  0  0  0  0  0  0  0  0  0
   -0.5280  -14.4208    7.3285 C   0  0  1  0  0  0  0  0  0  0  0  0
   -1.7846  -14.0122    7.8071 O   0  0  0  0  0  0  0  0  0  0  0  0
    0.5879  -13.8922    8.2068 C   0  0  1  0  0  0  0  0  0  0  0  0
    0.0064  -13.4808    9.4236 O   0  0  0  0  0  0  0  0  0  0  0  0
    1.5372  -15.0711    8.4314 C   0  0  2  0  0  0  0  0  0  0  0  0
    4.0167  -16.7618    2.3505 O   0  0  0  0  0  0  0  0  0  0  0  0
    5.7251  -17.2372    6.1537 N   0  0  0  0  0  0  0  0  0  0  0  0
    4.6325  -17.8749    6.6894 C   0  0  0  0  0  0  0  0  0  0  0  0
    3.6232  -17.1244    7.2513 N   0  0  0  0  0  0  0  0  0  0  0  0
    3.6893  -15.7744    7.2813 C   0  0  0  0  0  0  0  0  0  0  0  0
    4.7797  -15.1157    6.7319 C   0  0  0  0  0  0  0  0  0  0  0  0
    5.8134  -15.8614    6.1691 C   0  0  0  0  0  0  0  0  0  0  0  0
    6.8809  -15.2653    5.6372 N   0  0  0  0  0  0  0  0  0  0  0  0
    4.5841  -13.7812    6.8897 N   0  0  0  0  0  0  0  0  0  0  0  0
    3.3942  -13.5980    7.5071 C   0  0  0  0  0  0  0  0  0  0  0  0
    2.8235  -14.8231    7.7503 N   0  0  0  0  0  0  0  0  0  0  0  0
  2  1  1  6  0  0  0
  2  3  1  0  0  0  0
  2  5  1  0  0  0  0
  3  4  1  0  0  0  0
  3 17  1  0  0  0  0
  5  6  1  0  0  0  0
  7  6  1  6  0  0  0
  7  8  1  0  0  0  0
  7  9  1  0  0  0  0
 10  9  1  6  0  0  0
 10 11  1  0  0  0  0
 10 12  1  0  0  0  0
 11 16  1  0  0  0  0
 12 13  1  1  0  0  0
 12 14  1  0  0  0  0
 14 15  1  1  0  0  0
 14 16  1  0  0  0  0
 16 27  1  6  0  0  0
 18 19  2  0  0  0  0
 18 23  1  0  0  0  0
 19 20  1  0  0  0  0
 20 21  2  0  0  0  0
 21 22  1  0  0  0  0
 21 27  1  0  0  0  0
 22 23  2  0  0  0  0
 22 25  1  0  0  0  0
 23 24  1  0  0  0  0
 25 26  2  0  0  0  0
 26 27  1  0  0  0  0
M  END
>  <CHROM.1>
-106.95945811,-79.97606143,137.81166952,48.75677788,-90.45043496,56.04943440
-39.18822214,1.99121000,-16.19639646,6.21338702,0.36099886,-0.21124260,-2.27474226

>  <Name>
ligand

>  <RI>
0

>  <Rbt.Current_Directory>
/home/itssahil/PROJECTS/Mol_Feturizer/New_Systems/rnas/3GX5

>  <Rbt.Executable>
rbdock ($Id: //depot/dev/client3/rdock/2013.1/src/exe/rbdock.cxx#4 $)

>  <Rbt.Library>
libRbt.so (2013.1, Build901 2013/11/27)

>  <Rbt.Parameter_File>
/export/apps/rDock/src/rDock_2013.1_src/data/scripts/dock_solv.prm

>  <Rbt.Receptor>
prm/blind_docking_20.prm

>  <SCORE>
1.56921

>  <SCORE.INTER>
-3.96692

>  <SCORE.INTER.CONST>
1

>  <SCORE.INTER.POLAR>
0

>  <SCORE.INTER.ROT>
7

>  <SCORE.INTER.SOLV>
13.3791

>  <SCORE.INTER.VDW>
-15.371

>  <SCORE.INTER.norm>
-0.146923

>  <SCORE.INTRA>
5.50787

>  <SCORE.INTRA.DIHEDRAL>
6.20912

>  <SCORE.INTRA.DIHEDRAL.0>
4.28829

>  <SCORE.INTRA.POLAR>
0

>  <SCORE.INTRA.POLAR.0>
0

>  <SCORE.INTRA.REPUL>
0

>  <SCORE.INTRA.REPUL.0>
0

>  <SCORE.INTRA.SOLV>
4.96366

>  <SCORE.INTRA.SOLV.lig_0>
-48.6018

>  <SCORE.INTRA.VDW>
-0.0785181

>  <SCORE.INTRA.VDW.0>
-2.1506

>  <SCORE.INTRA.norm>
0.203995

>  <SCORE.RESTR>
0.0282668

>  <SCORE.RESTR.CAVITY>
0.0282668

>  <SCORE.RESTR.norm>
0.00104692

>  <SCORE.SYSTEM>
0

>  <SCORE.SYSTEM.CONST>
0

>  <SCORE.SYSTEM.DIHEDRAL>
0

>  <SCORE.SYSTEM.SOLV>
0

>  <SCORE.SYSTEM.norm>
0

>  <SCORE.heavy>
27

>  <SCORE.norm>
0.058119

>  <RMSD>
17.069

$$$$
ligand
 OpenBabel11021811483D
libRbt.so/2013.1/901 2013/11/27
 27 29  0  0  0  0  0  0  0  0999 V2000
   -3.0968  -11.1413    9.0425 N   0  0  0  0  0  0  0  0  0  0  0  0
   -2.4768  -10.8285   10.3315 C   0  0  2  0  0  0  0  0  0  0  0  0
   -1.2626   -9.8982   10.2762 C   0  0  0  0  0  0  0  0  0  0  0  0
   -1.1225   -9.0537   11.1599 O   0  0  0  0  0  0  0  0  0  0  0  0
   -2.1418  -12.0984   11.0958 C   0  0  0  0  0  0  0  0  0  0  0  0
   -0.9995  -12.8580   10.4436 C   0  0  0  0  0  0  0  0  0  0  0  0
   -1.5361  -13.6103    8.8972 S   0  0  2  0  0  0  0  0  0  0  0  0
   -2.3738  -15.0762    9.5363 C   0  0  0  0  0  0  0  0  0  0  0  0
    0.0108  -14.3646    8.3434 C   0  0  0  0  0  0  0  0  0  0  0  0
   -0.1642  -15.0268    6.9891 C   0  0  1  0  0  0  0  0  0  0  0  0
    0.9822  -14.8367    6.1917 O   0  0  0  0  0  0  0  0  0  0  0  0
   -0.3314  -16.5303    7.0882 C   0  0  1  0  0  0  0  0  0  0  0  0
   -1.7053  -16.8209    7.1427 O   0  0  0  0  0  0  0  0  0  0  0  0
    0.2830  -17.0410    5.8006 C   0  0  1  0  0  0  0  0  0  0  0  0
   -0.7743  -17.3066    4.9065 O   0  0  0  0  0  0  0  0  0  0  0  0
    1.1623  -15.9034    5.2770 C   0  0  2  0  0  0  0  0  0  0  0  0
   -0.4164   -9.9519    9.3796 O   0  0  0  0  0  0  0  0  0  0  0  0
    5.4927  -17.0759    2.5768 N   0  0  0  0  0  0  0  0  0  0  0  0
    4.2626  -16.7156    2.0824 C   0  0  0  0  0  0  0  0  0  0  0  0
    3.2368  -16.4447    2.9610 N   0  0  0  0  0  0  0  0  0  0  0  0
    3.4216  -16.5248    4.2978 C   0  0  0  0  0  0  0  0  0  0  0  0
    4.6618  -16.8737    4.8122 C   0  0  0  0  0  0  0  0  0  0  0  0
    5.7066  -17.1607    3.9362 C   0  0  0  0  0  0  0  0  0  0  0  0
    6.9110  -17.5061    4.3917 N   0  0  0  0  0  0  0  0  0  0  0  0
    4.5684  -16.8684    6.1670 N   0  0  0  0  0  0  0  0  0  0  0  0
    3.3078  -16.5093    6.5027 C   0  0  0  0  0  0  0  0  0  0  0  0
    2.5862  -16.2858    5.3561 N   0  0  0  0  0  0  0  0  0  0  0  0
  2  1  1  6  0  0  0
  2  3  1  0  0  0  0
  2  5  1  0  0  0  0
  3  4  1  0  0  0  0
  3 17  1  0  0  0  0
  5  6  1  0  0  0  0
  7  6  1  1  0  0  0
  7  8  1  0  0  0  0
  7  9  1  0  0  0  0
 10  9  1  1  0  0  0
 10 11  1  0  0  0  0
 10 12  1  0  0  0  0
 11 16  1  0  0  0  0
 12 13  1  6  0  0  0
 12 14  1  0  0  0  0
 14 15  1  6  0  0  0
 14 16  1  0  0  0  0
 16 27  1  1  0  0  0
 18 19  2  0  0  0  0
 18 23  1  0  0  0  0
 19 20  1  0  0  0  0
 20 21  2  0  0  0  0
 21 22  1  0  0  0  0
 21 27  1  0  0  0  0
 22 23  2  0  0  0  0
 22 25  1  0  0  0  0
 23 24  1  0  0  0  0
 25 26  2  0  0  0  0
 26 27  1  0  0  0  0
M  END
>  <CHROM.1>
141.53111090,69.93911995,-71.33262054,-80.24236513,-177.32247801,141.82707234
-134.35861647,0.81970921,-14.71187427,7.02050896,2.26133573,0.35123104,0.55289295

>  <Name>
ligand

>  <RI>
0

>  <Rbt.Current_Directory>
/home/itssahil/PROJECTS/Mol_Feturizer/New_Systems/rnas/3GX5

>  <Rbt.Executable>
rbdock ($Id: //depot/dev/client3/rdock/2013.1/src/exe/rbdock.cxx#4 $)

>  <Rbt.Library>
libRbt.so (2013.1, Build901 2013/11/27)

>  <Rbt.Parameter_File>
/export/apps/rDock/src/rDock_2013.1_src/data/scripts/dock_solv.prm

>  <Rbt.Receptor>
prm/blind_docking_20.prm

>  <SCORE>
0.0459684

>  <SCORE.INTER>
-2.82543

>  <SCORE.INTER.CONST>
1

>  <SCORE.INTER.POLAR>
0

>  <SCORE.INTER.ROT>
7

>  <SCORE.INTER.SOLV>
10.524

>  <SCORE.INTER.VDW>
-13.6583

>  <SCORE.INTER.norm>
-0.104645

>  <SCORE.INTRA>
2.83967

>  <SCORE.INTRA.DIHEDRAL>
4.34532

>  <SCORE.INTRA.DIHEDRAL.0>
4.28829

>  <SCORE.INTRA.POLAR>
0

>  <SCORE.INTRA.POLAR.0>
0

>  <SCORE.INTRA.REPUL>
0

>  <SCORE.INTRA.REPUL.0>
0

>  <SCORE.INTRA.SOLV>
1.47038

>  <SCORE.INTRA.SOLV.lig_0>
-48.6018

>  <SCORE.INTRA.VDW>
-0.0681845

>  <SCORE.INTRA.VDW.0>
-2.1506

>  <SCORE.INTRA.norm>
0.105173

>  <SCORE.RESTR>
0.0317278

>  <SCORE.RESTR.CAVITY>
0.0317278

>  <SCORE.RESTR.norm>
0.0011751

>  <SCORE.SYSTEM>
0

>  <SCORE.SYSTEM.CONST>
0

>  <SCORE.SYSTEM.DIHEDRAL>
0

>  <SCORE.SYSTEM.SOLV>
0

>  <SCORE.SYSTEM.norm>
0

>  <SCORE.heavy>
27

>  <SCORE.norm>
0.00170253

>  <RMSD>
17.079

$$$$
ligand
 OpenBabel11021811483D
libRbt.so/2013.1/901 2013/11/27
 27 29  0  0  0  0  0  0  0  0999 V2000
    7.5896  -16.0702    4.8710 N   0  0  0  0  0  0  0  0  0  0  0  0
    6.3171  -15.4080    5.1643 C   0  0  2  0  0  0  0  0  0  0  0  0
    5.9320  -15.3350    6.6439 C   0  0  0  0  0  0  0  0  0  0  0  0
    5.4006  -14.3096    7.0679 O   0  0  0  0  0  0  0  0  0  0  0  0
    5.1881  -16.0145    4.3482 C   0  0  0  0  0  0  0  0  0  0  0  0
    3.8838  -15.2639    4.5547 C   0  0  0  0  0  0  0  0  0  0  0  0
    2.5699  -15.9830    3.5538 S   0  0  2  0  0  0  0  0  0  0  0  0
    2.6909  -14.9421    2.0838 C   0  0  0  0  0  0  0  0  0  0  0  0
    1.1177  -15.2383    4.3316 C   0  0  0  0  0  0  0  0  0  0  0  0
    0.7011  -16.0220    5.5625 C   0  0  1  0  0  0  0  0  0  0  0  0
    0.9054  -15.2590    6.7297 O   0  0  0  0  0  0  0  0  0  0  0  0
   -0.7758  -16.3644    5.5682 C   0  0  1  0  0  0  0  0  0  0  0  0
   -0.9379  -17.6371    4.9947 O   0  0  0  0  0  0  0  0  0  0  0  0
   -1.1302  -16.3814    7.0414 C   0  0  1  0  0  0  0  0  0  0  0  0
   -1.1462  -17.7293    7.4547 O   0  0  0  0  0  0  0  0  0  0  0  0
   -0.0132  -15.6112    7.7490 C   0  0  2  0  0  0  0  0  0  0  0  0
    6.1354  -16.2587    7.4366 O   0  0  0  0  0  0  0  0  0  0  0  0
   -1.2559  -12.9390   12.0772 N   0  0  0  0  0  0  0  0  0  0  0  0
   -0.7200  -14.2009   11.9903 C   0  0  0  0  0  0  0  0  0  0  0  0
   -0.4620  -14.7389   10.7487 N   0  0  0  0  0  0  0  0  0  0  0  0
   -0.7242  -14.0458    9.6180 C   0  0  0  0  0  0  0  0  0  0  0  0
   -1.2525  -12.7650    9.6901 C   0  0  0  0  0  0  0  0  0  0  0  0
   -1.5286  -12.2111   10.9384 C   0  0  0  0  0  0  0  0  0  0  0  0
   -2.0426  -10.9859   11.0488 N   0  0  0  0  0  0  0  0  0  0  0  0
   -1.4058  -12.3047    8.4217 N   0  0  0  0  0  0  0  0  0  0  0  0
   -0.9708  -13.2610    7.5691 C   0  0  0  0  0  0  0  0  0  0  0  0
   -0.5384  -14.3437    8.2946 N   0  0  0  0  0  0  0  0  0  0  0  0
  2  1  1  1  0  0  0
  2  3  1  0  0  0  0
  2  5  1  0  0  0  0
  3  4  1  0  0  0  0
  3 17  1  0  0  0  0
  5  6  1  0  0  0  0
  7  6  1  1  0  0  0
  7  8  1  0  0  0  0
  7  9  1  0  0  0  0
 10  9  1  6  0  0  0
 10 11  1  0  0  0  0
 10 12  1  0  0  0  0
 11 16  1  0  0  0  0
 12 13  1  1  0  0  0
 12 14  1  0  0  0  0
 14 15  1  1  0  0  0
 14 16  1  0  0  0  0
 16 27  1  6  0  0  0
 18 19  2  0  0  0  0
 18 23  1  0  0  0  0
 19 20  1  0  0  0  0
 20 21  2  0  0  0  0
 21 22  1  0  0  0  0
 21 27  1  0  0  0  0
 22 23  2  0  0  0  0
 22 25  1  0  0  0  0
 23 24  1  0  0  0  0
 25 26  2  0  0  0  0
 26 27  1  0  0  0  0
M  END
>  <CHROM.1>
140.85856398,-175.27971013,178.94456389,-93.44566254,-83.16114401,112.68240151
-136.62188717,1.36564442,-14.98557380,6.99170663,-0.77849023,0.06855771,1.09197948

>  <Name>
ligand

>  <RI>
0

>  <Rbt.Current_Directory>
/home/itssahil/PROJECTS/Mol_Feturizer/New_Systems/rnas/3GX5

>  <Rbt.Executable>
rbdock ($Id: //depot/dev/client3/rdock/2013.1/src/exe/rbdock.cxx#4 $)

>  <Rbt.Library>
libRbt.so (2013.1, Build901 2013/11/27)

>  <Rbt.Parameter_File>
/export/apps/rDock/src/rDock_2013.1_src/data/scripts/dock_solv.prm

>  <Rbt.Receptor>
prm/blind_docking_20.prm

>  <SCORE>
-6.27875

>  <SCORE.INTER>
-8.66013

>  <SCORE.INTER.CONST>
1

>  <SCORE.INTER.POLAR>
0

>  <SCORE.INTER.ROT>
7

>  <SCORE.INTER.SOLV>
11.1857

>  <SCORE.INTER.VDW>
-17.7687

>  <SCORE.INTER.norm>
-0.320746

>  <SCORE.INTRA>
2.38021

>  <SCORE.INTRA.DIHEDRAL>
6.32895

>  <SCORE.INTRA.DIHEDRAL.0>
4.28829

>  <SCORE.INTRA.POLAR>
0

>  <SCORE.INTRA.POLAR.0>
0

>  <SCORE.INTRA.REPUL>
0

>  <SCORE.INTRA.REPUL.0>
0

>  <SCORE.INTRA.SOLV>
-1.33492

>  <SCORE.INTRA.SOLV.lig_0>
-48.6018

>  <SCORE.INTRA.VDW>
-0.116808

>  <SCORE.INTRA.VDW.0>
-2.1506

>  <SCORE.INTRA.norm>
0.0881559

>  <SCORE.RESTR>
0.00117113

>  <SCORE.RESTR.CAVITY>
0.00117113

>  <SCORE.RESTR.norm>
4.33752e-05

>  <SCORE.SYSTEM>
0

>  <SCORE.SYSTEM.CONST>
0

>  <SCORE.SYSTEM.DIHEDRAL>
0

>  <SCORE.SYSTEM.SOLV>
0

>  <SCORE.SYSTEM.norm>
0

>  <SCORE.heavy>
27

>  <SCORE.norm>
-0.232546

>  <RMSD>
17.099

$$$$
ligand
 OpenBabel11021811483D
libRbt.so/2013.1/901 2013/11/27
 27 29  0  0  0  0  0  0  0  0999 V2000
    4.8773  -14.0819    6.8784 N   0  0  0  0  0  0  0  0  0  0  0  0
    4.1086  -15.3056    6.6429 C   0  0  2  0  0  0  0  0  0  0  0  0
    4.0020  -16.2624    7.8329 C   0  0  0  0  0  0  0  0  0  0  0  0
    4.4921  -17.3866    7.7350 O   0  0  0  0  0  0  0  0  0  0  0  0
    4.6171  -16.0385    5.4127 C   0  0  0  0  0  0  0  0  0  0  0  0
    4.3197  -15.2654    4.1394 C   0  0  0  0  0  0  0  0  0  0  0  0
    2.7925  -15.8485    3.3826 S   0  0  2  0  0  0  0  0  0  0  0  0
    2.7645  -14.8184    1.9003 C   0  0  0  0  0  0  0  0  0  0  0  0
    1.5714  -14.9685    4.3842 C   0  0  0  0  0  0  0  0  0  0  0  0
    1.1598  -15.7967    5.5874 C   0  0  1  0  0  0  0  0  0  0  0  0
    1.2469  -15.0333    6.7688 O   0  0  0  0  0  0  0  0  0  0  0  0
   -0.2838  -16.2545    5.5187 C   0  0  1  0  0  0  0  0  0  0  0  0
   -0.3169  -17.5294    4.9283 O   0  0  0  0  0  0  0  0  0  0  0  0
   -0.7059  -16.3162    6.9727 C   0  0  1  0  0  0  0  0  0  0  0  0
   -0.6347  -17.6658    7.3744 O   0  0  0  0  0  0  0  0  0  0  0  0
    0.3113  -15.4685    7.7396 C   0  0  2  0  0  0  0  0  0  0  0  0
    3.4401  -15.9596    8.8890 O   0  0  0  0  0  0  0  0  0  0  0  0
   -1.2487  -12.9042   12.0301 N   0  0  0  0  0  0  0  0  0  0  0  0
   -0.5971  -14.1114   11.9598 C   0  0  0  0  0  0  0  0  0  0  0  0
   -0.2687  -14.6286   10.7260 N   0  0  0  0  0  0  0  0  0  0  0  0
   -0.5740  -13.9676    9.5869 C   0  0  0  0  0  0  0  0  0  0  0  0
   -1.2195  -12.7408    9.6424 C   0  0  0  0  0  0  0  0  0  0  0  0
   -1.5674  -12.2095   10.8826 C   0  0  0  0  0  0  0  0  0  0  0  0
   -2.1943  -11.0366   10.9770 N   0  0  0  0  0  0  0  0  0  0  0  0
   -1.3924  -12.3021    8.3689 N   0  0  0  0  0  0  0  0  0  0  0  0
   -0.8560  -13.2177    7.5295 C   0  0  0  0  0  0  0  0  0  0  0  0
   -0.3382  -14.2527    8.2686 N   0  0  0  0  0  0  0  0  0  0  0  0
  2  1  1  1  0  0  0
  2  3  1  0  0  0  0
  2  5  1  0  0  0  0
  3  4  1  0  0  0  0
  3 17  1  0  0  0  0
  5  6  1  0  0  0  0
  7  6  1  1  0  0  0
  7  8  1  0  0  0  0
  7  9  1  0  0  0  0
 10  9  1  6  0  0  0
 10 11  1  0  0  0  0
 10 12  1  0  0  0  0
 11 16  1  0  0  0  0
 12 13  1  1  0  0  0
 12 14  1  0  0  0  0
 14 15  1  1  0  0  0
 14 16  1  0  0  0  0
 16 27  1  6  0  0  0
 18 19  2  0  0  0  0
 18 23  1  0  0  0  0
 19 20  1  0  0  0  0
 20 21  2  0  0  0  0
 21 22  1  0  0  0  0
 21 27  1  0  0  0  0
 22 23  2  0  0  0  0
 22 25  1  0  0  0  0
 23 24  1  0  0  0  0
 25 26  2  0  0  0  0
 26 27  1  0  0  0  0
M  END
>  <CHROM.1>
-116.99982888,-68.43111032,-95.44610674,-177.50128755,-90.52622851,129.88393658
-134.51618693,1.15841406,-14.98021671,7.21855798,-0.95845722,-0.25607814
1.30666166

>  <Name>
ligand

>  <RI>
0

>  <Rbt.Current_Directory>
/home/itssahil/PROJECTS/Mol_Feturizer/New_Systems/rnas/3GX5

>  <Rbt.Executable>
rbdock ($Id: //depot/dev/client3/rdock/2013.1/src/exe/rbdock.cxx#4 $)

>  <Rbt.Library>
libRbt.so (2013.1, Build901 2013/11/27)

>  <Rbt.Parameter_File>
/export/apps/rDock/src/rDock_2013.1_src/data/scripts/dock_solv.prm

>  <Rbt.Receptor>
prm/blind_docking_20.prm

>  <SCORE>
-5.01338

>  <SCORE.INTER>
-9.35487

>  <SCORE.INTER.CONST>
1

>  <SCORE.INTER.POLAR>
0

>  <SCORE.INTER.ROT>
7

>  <SCORE.INTER.SOLV>
8.84906

>  <SCORE.INTER.VDW>
-17.4529

>  <SCORE.INTER.norm>
-0.346477

>  <SCORE.INTRA>
4.17092

>  <SCORE.INTRA.DIHEDRAL>
9.45594

>  <SCORE.INTRA.DIHEDRAL.0>
4.28829

>  <SCORE.INTRA.POLAR>
0

>  <SCORE.INTRA.POLAR.0>
0

>  <SCORE.INTRA.REPUL>
0

>  <SCORE.INTRA.REPUL.0>
0

>  <SCORE.INTRA.SOLV>
0.836313

>  <SCORE.INTRA.SOLV.lig_0>
-48.6018

>  <SCORE.INTRA.VDW>
-0.975208

>  <SCORE.INTRA.VDW.0>
-2.1506

>  <SCORE.INTRA.norm>
0.154478

>  <SCORE.RESTR>
0.170568

>  <SCORE.RESTR.CAVITY>
0.170568

>  <SCORE.RESTR.norm>
0.00631735

>  <SCORE.SYSTEM>
0

>  <SCORE.SYSTEM.CONST>
0

>  <SCORE.SYSTEM.DIHEDRAL>
0

>  <SCORE.SYSTEM.SOLV>
0

>  <SCORE.SYSTEM.norm>
0

>  <SCORE.heavy>
27

>  <SCORE.norm>
-0.185681

>  <RMSD>
17.108

$$$$
ligand
 OpenBabel11021811483D
libRbt.so/2013.1/901 2013/11/27
 27 29  0  0  0  0  0  0  0  0999 V2000
    3.9626  -18.5165    3.5213 N   0  0  0  0  0  0  0  0  0  0  0  0
    3.6958  -17.1197    3.1726 C   0  0  2  0  0  0  0  0  0  0  0  0
    3.6177  -16.8122    1.6752 C   0  0  0  0  0  0  0  0  0  0  0  0
    2.6052  -16.2704    1.2336 O   0  0  0  0  0  0  0  0  0  0  0  0
    4.6837  -16.1903    3.8576 C   0  0  0  0  0  0  0  0  0  0  0  0
    4.7202  -16.4220    5.3583 C   0  0  0  0  0  0  0  0  0  0  0  0
    5.0666  -14.8849    6.2316 S   0  0  2  0  0  0  0  0  0  0  0  0
    5.1081  -15.4928    7.9309 C   0  0  0  0  0  0  0  0  0  0  0  0
    3.4265  -14.1244    6.2235 C   0  0  0  0  0  0  0  0  0  0  0  0
    2.3505  -15.1547    6.5127 C   0  0  1  0  0  0  0  0  0  0  0  0
    1.9910  -15.1283    7.8751 O   0  0  0  0  0  0  0  0  0  0  0  0
    1.0627  -14.8857    5.7593 C   0  0  1  0  0  0  0  0  0  0  0  0
    1.0956  -15.6069    4.5536 O   0  0  0  0  0  0  0  0  0  0  0  0
   -0.0092  -15.4224    6.6862 C   0  0  1  0  0  0  0  0  0  0  0  0
   -0.3761  -16.6981    6.2108 O   0  0  0  0  0  0  0  0  0  0  0  0
    0.6447  -15.5260    8.0658 C   0  0  2  0  0  0  0  0  0  0  0  0
    4.5246  -17.0885    0.8853 O   0  0  0  0  0  0  0  0  0  0  0  0
   -1.8094  -10.9197    8.4864 N   0  0  0  0  0  0  0  0  0  0  0  0
   -1.4049  -11.5577    7.3390 C   0  0  0  0  0  0  0  0  0  0  0  0
   -0.7668  -12.7748    7.4344 N   0  0  0  0  0  0  0  0  0  0  0  0
   -0.5358  -13.3509    8.6354 C   0  0  0  0  0  0  0  0  0  0  0  0
   -0.9509  -12.7254    9.8020 C   0  0  0  0  0  0  0  0  0  0  0  0
   -1.5884  -11.4890    9.7224 C   0  0  0  0  0  0  0  0  0  0  0  0
   -1.9962  -10.8534   10.8212 N   0  0  0  0  0  0  0  0  0  0  0  0
   -0.6032  -13.5190   10.8477 N   0  0  0  0  0  0  0  0  0  0  0  0
    0.0007  -14.6256   10.3565 C   0  0  0  0  0  0  0  0  0  0  0  0
    0.0442  -14.5405    8.9866 N   0  0  0  0  0  0  0  0  0  0  0  0
  2  1  1  6  0  0  0
  2  3  1  0  0  0  0
  2  5  1  0  0  0  0
  3  4  1  0  0  0  0
  3 17  1  0  0  0  0
  5  6  1  0  0  0  0
  7  6  1  6  0  0  0
  7  8  1  0  0  0  0
  7  9  1  0  0  0  0
 10  9  1  1  0  0  0
 10 11  1  0  0  0  0
 10 12  1  0  0  0  0
 11 16  1  0  0  0  0
 12 13  1  6  0  0  0
 12 14  1  0  0  0  0
 14 15  1  6  0  0  0
 14 16  1  0  0  0  0
 16 27  1  1  0  0  0
 18 19  2  0  0  0  0
 18 23  1  0  0  0  0
 19 20  1  0  0  0  0
 20 21  2  0  0  0  0
 21 22  1  0  0  0  0
 21 27  1  0  0  0  0
 22 23  2  0  0  0  0
 22 25  1  0  0  0  0
 23 24  1  0  0  0  0
 25 26  2  0  0  0  0
 26 27  1  0  0  0  0
M  END
>  <CHROM.1>
124.44115726,-53.48788812,-147.71555229,-177.87400377,41.45930427,97.18139729
86.77081768,1.66698729,-14.80409391,6.48975613,0.92640023,0.34303747,-1.90703573

>  <Name>
ligand

>  <RI>
0

>  <Rbt.Current_Directory>
/home/itssahil/PROJECTS/Mol_Feturizer/New_Systems/rnas/3GX5

>  <Rbt.Executable>
rbdock ($Id: //depot/dev/client3/rdock/2013.1/src/exe/rbdock.cxx#4 $)

>  <Rbt.Library>
libRbt.so (2013.1, Build901 2013/11/27)

>  <Rbt.Parameter_File>
/export/apps/rDock/src/rDock_2013.1_src/data/scripts/dock_solv.prm

>  <Rbt.Receptor>
prm/blind_docking_20.prm

>  <SCORE>
-4.91263

>  <SCORE.INTER>
-9.23146

>  <SCORE.INTER.CONST>
1

>  <SCORE.INTER.POLAR>
0

>  <SCORE.INTER.ROT>
7

>  <SCORE.INTER.SOLV>
6.28992

>  <SCORE.INTER.VDW>
-16.5176

>  <SCORE.INTER.norm>
-0.341906

>  <SCORE.INTRA>
3.66514

>  <SCORE.INTRA.DIHEDRAL>
6.53653

>  <SCORE.INTRA.DIHEDRAL.0>
4.28829

>  <SCORE.INTRA.POLAR>
0

>  <SCORE.INTRA.POLAR.0>
0

>  <SCORE.INTRA.REPUL>
0

>  <SCORE.INTRA.REPUL.0>
0

>  <SCORE.INTRA.SOLV>
0.127945

>  <SCORE.INTRA.SOLV.lig_0>
-48.6018

>  <SCORE.INTRA.VDW>
0.3329

>  <SCORE.INTRA.VDW.0>
-2.1506

>  <SCORE.INTRA.norm>
0.135746

>  <SCORE.RESTR>
0.653687

>  <SCORE.RESTR.CAVITY>
0.653687

>  <SCORE.RESTR.norm>
0.0242106

>  <SCORE.SYSTEM>
0

>  <SCORE.SYSTEM.CONST>
0

>  <SCORE.SYSTEM.DIHEDRAL>
0

>  <SCORE.SYSTEM.SOLV>
0

>  <SCORE.SYSTEM.norm>
0

>  <SCORE.heavy>
27

>  <SCORE.norm>
-0.181949

>  <RMSD>
17.113

$$$$
ligand
 OpenBabel11021811483D
libRbt.so/2013.1/901 2013/11/27
 27 29  0  0  0  0  0  0  0  0999 V2000
    7.9913    0.9667   18.7500 N   0  0  0  0  0  0  0  0  0  0  0  0
    8.7489   -0.2736   18.5723 C   0  0  2  0  0  0  0  0  0  0  0  0
    8.9229   -0.7443   17.1263 C   0  0  0  0  0  0  0  0  0  0  0  0
   10.0613   -0.8704   16.6772 O   0  0  0  0  0  0  0  0  0  0  0  0
    8.1757   -1.3883   19.4312 C   0  0  0  0  0  0  0  0  0  0  0  0
    8.4912   -1.1785   20.9022 C   0  0  0  0  0  0  0  0  0  0  0  0
    8.1236   -2.6654   21.8505 S   0  0  2  0  0  0  0  0  0  0  0  0
    8.9151   -2.2415   23.4167 C   0  0  0  0  0  0  0  0  0  0  0  0
    9.3647   -3.7977   21.1825 C   0  0  0  0  0  0  0  0  0  0  0  0
    9.0275   -5.2362   21.5290 C   0  0  1  0  0  0  0  0  0  0  0  0
    9.2027   -5.4689   22.9078 O   0  0  0  0  0  0  0  0  0  0  0  0
    7.5779   -5.5824   21.2512 C   0  0  1  0  0  0  0  0  0  0  0  0
    7.4916   -6.1235   19.9571 O   0  0  0  0  0  0  0  0  0  0  0  0
    7.2552   -6.6264   22.3010 C   0  0  1  0  0  0  0  0  0  0  0  0
    7.3397   -7.8888   21.6787 O   0  0  0  0  0  0  0  0  0  0  0  0
    8.3310   -6.4812   23.3795 C   0  0  2  0  0  0  0  0  0  0  0  0
    7.9703   -0.9992   16.3844 O   0  0  0  0  0  0  0  0  0  0  0  0
    7.2472   -7.4900   28.4020 N   0  0  0  0  0  0  0  0  0  0  0  0
    7.9020   -8.2958   27.5026 C   0  0  0  0  0  0  0  0  0  0  0  0
    8.0914   -7.8505   26.2128 N   0  0  0  0  0  0  0  0  0  0  0  0
    7.6470   -6.6355   25.8203 C   0  0  0  0  0  0  0  0  0  0  0  0
    6.9963   -5.8049   26.7210 C   0  0  0  0  0  0  0  0  0  0  0  0
    6.7881   -6.2454   28.0263 C   0  0  0  0  0  0  0  0  0  0  0  0
    6.1611   -5.4791   28.9191 N   0  0  0  0  0  0  0  0  0  0  0  0
    6.6706   -4.6579   26.0709 N   0  0  0  0  0  0  0  0  0  0  0  0
    7.1177   -4.7519   24.7973 C   0  0  0  0  0  0  0  0  0  0  0  0
    7.7315   -5.9684   24.6276 N   0  0  0  0  0  0  0  0  0  0  0  0
  2  1  1  6  0  0  0
  2  3  1  0  0  0  0
  2  5  1  0  0  0  0
  3  4  1  0  0  0  0
  3 17  1  0  0  0  0
  5  6  1  0  0  0  0
  7  6  1  6  0  0  0
  7  8  1  0  0  0  0
  7  9  1  0  0  0  0
 10  9  1  1  0  0  0
 10 11  1  0  0  0  0
 10 12  1  0  0  0  0
 11 16  1  0  0  0  0
 12 13  1  6  0  0  0
 12 14  1  0  0  0  0
 14 15  1  6  0  0  0
 14 16  1  0  0  0  0
 16 27  1  1  0  0  0
 18 19  2  0  0  0  0
 18 23  1  0  0  0  0
 19 20  1  0  0  0  0
 20 21  2  0  0  0  0
 21 22  1  0  0  0  0
 21 27  1  0  0  0  0
 22 23  2  0  0  0  0
 22 25  1  0  0  0  0
 23 24  1  0  0  0  0
 25 26  2  0  0  0  0
 26 27  1  0  0  0  0
M  END
>  <CHROM.1>
120.51516858,-72.68438753,-167.73811372,168.35621628,-163.97835751,-70.04054075
-131.14154045,8.00624905,-4.30891597,22.58069097,0.49287033,1.41662820,0.09020200

>  <Name>
ligand

>  <RI>
0

>  <Rbt.Current_Directory>
/home/itssahil/PROJECTS/Mol_Feturizer/New_Systems/rnas/3GX5

>  <Rbt.Executable>
rbdock ($Id: //depot/dev/client3/rdock/2013.1/src/exe/rbdock.cxx#4 $)

>  <Rbt.Library>
libRbt.so (2013.1, Build901 2013/11/27)

>  <Rbt.Parameter_File>
/export/apps/rDock/src/rDock_2013.1_src/data/scripts/dock_solv.prm

>  <Rbt.Receptor>
prm/blind_docking_80.prm

>  <SCORE>
-9.61244

>  <SCORE.INTER>
-9.83085

>  <SCORE.INTER.CONST>
1

>  <SCORE.INTER.POLAR>
0

>  <SCORE.INTER.ROT>
7

>  <SCORE.INTER.SOLV>
14.0866

>  <SCORE.INTER.VDW>
-19.5161

>  <SCORE.INTER.norm>
-0.364105

>  <SCORE.INTRA>
0.218411

>  <SCORE.INTRA.DIHEDRAL>
2.24867

>  <SCORE.INTRA.DIHEDRAL.0>
4.28829

>  <SCORE.INTRA.POLAR>
0

>  <SCORE.INTRA.POLAR.0>
0

>  <SCORE.INTRA.REPUL>
0

>  <SCORE.INTRA.REPUL.0>
0

>  <SCORE.INTRA.SOLV>
-0.473917

>  <SCORE.INTRA.SOLV.lig_0>
-48.6018

>  <SCORE.INTRA.VDW>
-0.668964

>  <SCORE.INTRA.VDW.0>
-2.1506

>  <SCORE.INTRA.norm>
0.0080893

>  <SCORE.RESTR>
0

>  <SCORE.RESTR.CAVITY>
0

>  <SCORE.RESTR.norm>
0

>  <SCORE.SYSTEM>
0

>  <SCORE.SYSTEM.CONST>
0

>  <SCORE.SYSTEM.DIHEDRAL>
0

>  <SCORE.SYSTEM.SOLV>
0

>  <SCORE.SYSTEM.norm>
0

>  <SCORE.heavy>
27

>  <SCORE.norm>
-0.356016

>  <RMSD>
17.116

$$$$
ligand
 OpenBabel11021811483D
libRbt.so/2013.1/901 2013/11/27
 27 29  0  0  0  0  0  0  0  0999 V2000
   -2.2698  -12.7954   10.9067 N   0  0  0  0  0  0  0  0  0  0  0  0
   -2.6481  -13.4324    9.6438 C   0  0  2  0  0  0  0  0  0  0  0  0
   -2.6207  -14.9628    9.6375 C   0  0  0  0  0  0  0  0  0  0  0  0
   -2.2235  -15.5523   10.6417 O   0  0  0  0  0  0  0  0  0  0  0  0
   -1.8294  -12.8792    8.4895 C   0  0  0  0  0  0  0  0  0  0  0  0
   -0.3536  -13.2030    8.6457 C   0  0  0  0  0  0  0  0  0  0  0  0
    0.0033  -14.8588    8.0325 S   0  0  2  0  0  0  0  0  0  0  0  0
    1.7761  -14.9400    8.3638 C   0  0  0  0  0  0  0  0  0  0  0  0
    0.0436  -14.5492    6.2517 C   0  0  0  0  0  0  0  0  0  0  0  0
    0.1304  -15.8516    5.4775 C   0  0  1  0  0  0  0  0  0  0  0  0
    1.1330  -15.7763    4.4900 O   0  0  0  0  0  0  0  0  0  0  0  0
    0.5229  -17.0278    6.3499 C   0  0  1  0  0  0  0  0  0  0  0  0
   -0.6505  -17.6526    6.8057 O   0  0  0  0  0  0  0  0  0  0  0  0
    1.2890  -17.9306    5.4042 C   0  0  1  0  0  0  0  0  0  0  0  0
    0.4069  -18.9485    4.9875 O   0  0  0  0  0  0  0  0  0  0  0  0
    1.6955  -17.0486    4.2217 C   0  0  2  0  0  0  0  0  0  0  0  0
   -2.9748  -15.6362    8.6660 O   0  0  0  0  0  0  0  0  0  0  0  0
    6.0031  -16.3338    7.1117 N   0  0  0  0  0  0  0  0  0  0  0  0
    4.7122  -16.5027    7.5502 C   0  0  0  0  0  0  0  0  0  0  0  0
    3.7047  -16.6768    6.6270 N   0  0  0  0  0  0  0  0  0  0  0  0
    3.9659  -16.6869    5.3006 C   0  0  0  0  0  0  0  0  0  0  0  0
    5.2664  -16.5315    4.8431 C   0  0  0  0  0  0  0  0  0  0  0  0
    6.2948  -16.3441    5.7643 C   0  0  0  0  0  0  0  0  0  0  0  0
    7.5564  -16.1845    5.3637 N   0  0  0  0  0  0  0  0  0  0  0  0
    5.2415  -16.5898    3.4866 N   0  0  0  0  0  0  0  0  0  0  0  0
    3.9625  -16.7937    3.0953 C   0  0  0  0  0  0  0  0  0  0  0  0
    3.1603  -16.8634    4.2076 N   0  0  0  0  0  0  0  0  0  0  0  0
  2  1  1  1  0  0  0
  2  3  1  0  0  0  0
  2  5  1  0  0  0  0
  3  4  1  0  0  0  0
  3 17  1  0  0  0  0
  5  6  1  0  0  0  0
  7  6  1  1  0  0  0
  7  8  1  0  0  0  0
  7  9  1  0  0  0  0
 10  9  1  1  0  0  0
 10 11  1  0  0  0  0
 10 12  1  0  0  0  0
 11 16  1  0  0  0  0
 12 13  1  6  0  0  0
 12 14  1  0  0  0  0
 14 15  1  6  0  0  0
 14 16  1  0  0  0  0
 16 27  1  1  0  0  0
 18 19  2  0  0  0  0
 18 23  1  0  0  0  0
 19 20  1  0  0  0  0
 20 21  2  0  0  0  0
 21 22  1  0  0  0  0
 21 27  1  0  0  0  0
 22 23  2  0  0  0  0
 22 25  1  0  0  0  0
 23 24  1  0  0  0  0
 25 26  2  0  0  0  0
 26 27  1  0  0  0  0
M  END
>  <CHROM.1>
-3.83273143,64.16058245,83.44814345,-179.51062773,-171.64006240,-132.39411861
74.92746355,1.35166469,-15.82598637,6.78424427,-2.52625612,-0.10707352,-2.22302070

>  <Name>
ligand

>  <RI>
0

>  <Rbt.Current_Directory>
/home/itssahil/PROJECTS/Mol_Feturizer/New_Systems/rnas/3GX5

>  <Rbt.Executable>
rbdock ($Id: //depot/dev/client3/rdock/2013.1/src/exe/rbdock.cxx#4 $)

>  <Rbt.Library>
libRbt.so (2013.1, Build901 2013/11/27)

>  <Rbt.Parameter_File>
/export/apps/rDock/src/rDock_2013.1_src/data/scripts/dock_solv.prm

>  <Rbt.Receptor>
prm/blind_docking_20.prm

>  <SCORE>
0.391163

>  <SCORE.INTER>
-3.98146

>  <SCORE.INTER.CONST>
1

>  <SCORE.INTER.POLAR>
0

>  <SCORE.INTER.ROT>
7

>  <SCORE.INTER.SOLV>
9.32136

>  <SCORE.INTER.VDW>
-14.0281

>  <SCORE.INTER.norm>
-0.147461

>  <SCORE.INTRA>
4.36886

>  <SCORE.INTRA.DIHEDRAL>
6.79158

>  <SCORE.INTRA.DIHEDRAL.0>
4.28829

>  <SCORE.INTRA.POLAR>
0

>  <SCORE.INTRA.POLAR.0>
0

>  <SCORE.INTRA.REPUL>
0

>  <SCORE.INTRA.REPUL.0>
0

>  <SCORE.INTRA.SOLV>
0.209207

>  <SCORE.INTRA.SOLV.lig_0>
-48.6018

>  <SCORE.INTRA.VDW>
0.868468

>  <SCORE.INTRA.VDW.0>
-2.1506

>  <SCORE.INTRA.norm>
0.16181

>  <SCORE.RESTR>
0.00375969

>  <SCORE.RESTR.CAVITY>
0.00375969

>  <SCORE.RESTR.norm>
0.000139248

>  <SCORE.SYSTEM>
0

>  <SCORE.SYSTEM.CONST>
0

>  <SCORE.SYSTEM.DIHEDRAL>
0

>  <SCORE.SYSTEM.SOLV>
0

>  <SCORE.SYSTEM.norm>
0

>  <SCORE.heavy>
27

>  <SCORE.norm>
0.0144875

>  <RMSD>
17.147

$$$$
ligand
 OpenBabel11021811483D
libRbt.so/2013.1/901 2013/11/27
 27 29  0  0  0  0  0  0  0  0999 V2000
    6.0819  -18.5538    2.8294 N   0  0  0  0  0  0  0  0  0  0  0  0
    4.8891  -17.7119    2.7184 C   0  0  2  0  0  0  0  0  0  0  0  0
    4.4120  -17.4206    1.2935 C   0  0  0  0  0  0  0  0  0  0  0  0
    3.3012  -16.9168    1.1320 O   0  0  0  0  0  0  0  0  0  0  0  0
    5.0619  -16.4193    3.4981 C   0  0  0  0  0  0  0  0  0  0  0  0
    5.3431  -16.6862    4.9668 C   0  0  0  0  0  0  0  0  0  0  0  0
    5.5921  -15.1409    5.8585 S   0  0  2  0  0  0  0  0  0  0  0  0
    5.6958  -15.7677    7.5483 C   0  0  0  0  0  0  0  0  0  0  0  0
    3.9030  -14.4965    5.8793 C   0  0  0  0  0  0  0  0  0  0  0  0
    2.9349  -15.5325    6.4201 C   0  0  1  0  0  0  0  0  0  0  0  0
    2.3064  -15.0616    7.5903 O   0  0  0  0  0  0  0  0  0  0  0  0
    1.8027  -15.8361    5.4587 C   0  0  1  0  0  0  0  0  0  0  0  0
    2.1735  -16.9399    4.6718 O   0  0  0  0  0  0  0  0  0  0  0  0
    0.6448  -16.1828    6.3725 C   0  0  1  0  0  0  0  0  0  0  0  0
    0.5519  -17.5889    6.4189 O   0  0  0  0  0  0  0  0  0  0  0  0
    1.0132  -15.6188    7.7464 C   0  0  2  0  0  0  0  0  0  0  0  0
    5.0900  -17.6736    0.2939 O   0  0  0  0  0  0  0  0  0  0  0  0
   -1.4096  -13.0373   11.6044 N   0  0  0  0  0  0  0  0  0  0  0  0
   -0.5599  -14.1113   11.7125 C   0  0  0  0  0  0  0  0  0  0  0  0
   -0.0181  -14.6590   10.5705 N   0  0  0  0  0  0  0  0  0  0  0  0
   -0.3062  -14.1560    9.3492 C   0  0  0  0  0  0  0  0  0  0  0  0
   -1.1515  -13.0630    9.2251 C   0  0  0  0  0  0  0  0  0  0  0  0
   -1.7155  -12.5044   10.3702 C   0  0  0  0  0  0  0  0  0  0  0  0
   -2.5377  -11.4578   10.2917 N   0  0  0  0  0  0  0  0  0  0  0  0
   -1.2579  -12.7654    7.9044 N   0  0  0  0  0  0  0  0  0  0  0  0
   -0.4876  -13.6353    7.2113 C   0  0  0  0  0  0  0  0  0  0  0  0
    0.1148  -14.4993    8.0923 N   0  0  0  0  0  0  0  0  0  0  0  0
  2  1  1  6  0  0  0
  2  3  1  0  0  0  0
  2  5  1  0  0  0  0
  3  4  1  0  0  0  0
  3 17  1  0  0  0  0
  5  6  1  0  0  0  0
  7  6  1  6  0  0  0
  7  8  1  0  0  0  0
  7  9  1  0  0  0  0
 10  9  1  6  0  0  0
 10 11  1  0  0  0  0
 10 12  1  0  0  0  0
 11 16  1  0  0  0  0
 12 13  1  6  0  0  0
 12 14  1  0  0  0  0
 14 15  1  1  0  0  0
 14 16  1  0  0  0  0
 16 27  1  6  0  0  0
 18 19  2  0  0  0  0
 18 23  1  0  0  0  0
 19 20  1  0  0  0  0
 20 21  2  0  0  0  0
 21 22  1  0  0  0  0
 21 27  1  0  0  0  0
 22 23  2  0  0  0  0
 22 25  1  0  0  0  0
 23 24  1  0  0  0  0
 25 26  2  0  0  0  0
 26 27  1  0  0  0  0
M  END
>  <CHROM.1>
167.84668602,-58.27430257,178.32365508,173.50898392,52.24044402,118.68317241
-98.59841851,2.16003896,-15.36948533,6.42202887,-0.92729870,-0.13477909,1.18264593

>  <Name>
ligand

>  <RI>
0

>  <Rbt.Current_Directory>
/home/itssahil/PROJECTS/Mol_Feturizer/New_Systems/rnas/3GX5

>  <Rbt.Executable>
rbdock ($Id: //depot/dev/client3/rdock/2013.1/src/exe/rbdock.cxx#4 $)

>  <Rbt.Library>
libRbt.so (2013.1, Build901 2013/11/27)

>  <Rbt.Parameter_File>
/export/apps/rDock/src/rDock_2013.1_src/data/scripts/dock_solv.prm

>  <Rbt.Receptor>
prm/blind_docking_20.prm

>  <SCORE>
-5.87244

>  <SCORE.INTER>
-8.92998

>  <SCORE.INTER.CONST>
1

>  <SCORE.INTER.POLAR>
0

>  <SCORE.INTER.ROT>
7

>  <SCORE.INTER.SOLV>
5.97729

>  <SCORE.INTER.VDW>
-16.2124

>  <SCORE.INTER.norm>
-0.33074

>  <SCORE.INTRA>
3.03947

>  <SCORE.INTRA.DIHEDRAL>
4.51085

>  <SCORE.INTRA.DIHEDRAL.0>
4.28829

>  <SCORE.INTRA.POLAR>
0

>  <SCORE.INTRA.POLAR.0>
0

>  <SCORE.INTRA.REPUL>
0

>  <SCORE.INTRA.REPUL.0>
0

>  <SCORE.INTRA.SOLV>
0.0487992

>  <SCORE.INTRA.SOLV.lig_0>
-48.6018

>  <SCORE.INTRA.VDW>
0.759644

>  <SCORE.INTRA.VDW.0>
-2.1506

>  <SCORE.INTRA.norm>
0.112573

>  <SCORE.RESTR>
0.0180754

>  <SCORE.RESTR.CAVITY>
0.0180754

>  <SCORE.RESTR.norm>
0.000669459

>  <SCORE.SYSTEM>
0

>  <SCORE.SYSTEM.CONST>
0

>  <SCORE.SYSTEM.DIHEDRAL>
0

>  <SCORE.SYSTEM.SOLV>
0

>  <SCORE.SYSTEM.norm>
0

>  <SCORE.heavy>
27

>  <SCORE.norm>
-0.217498

>  <RMSD>
17.163

$$$$
ligand
 OpenBabel11021811483D
libRbt.so/2013.1/901 2013/11/27
 27 29  0  0  0  0  0  0  0  0999 V2000
   -2.9306  -13.9298   10.5543 N   0  0  0  0  0  0  0  0  0  0  0  0
   -2.2787  -13.1791    9.4795 C   0  0  2  0  0  0  0  0  0  0  0  0
   -3.2144  -12.4039    8.5487 C   0  0  0  0  0  0  0  0  0  0  0  0
   -4.3707  -12.7996    8.4072 O   0  0  0  0  0  0  0  0  0  0  0  0
   -1.3495  -14.0746    8.6773 C   0  0  0  0  0  0  0  0  0  0  0  0
   -0.5174  -13.2746    7.6900 C   0  0  0  0  0  0  0  0  0  0  0  0
    0.7426  -14.3140    6.9302 S   0  0  2  0  0  0  0  0  0  0  0  0
   -0.3027  -15.5992    6.2128 C   0  0  0  0  0  0  0  0  0  0  0  0
    1.3573  -15.2006    8.3810 C   0  0  0  0  0  0  0  0  0  0  0  0
    2.7639  -15.7185    8.1433 C   0  0  1  0  0  0  0  0  0  0  0  0
    2.8123  -16.5058    6.9754 O   0  0  0  0  0  0  0  0  0  0  0  0
    3.7674  -14.6061    7.9114 C   0  0  1  0  0  0  0  0  0  0  0  0
    4.3535  -14.2738    9.1447 O   0  0  0  0  0  0  0  0  0  0  0  0
    4.7824  -15.2332    6.9772 C   0  0  1  0  0  0  0  0  0  0  0  0
    5.8867  -15.6282    7.7597 O   0  0  0  0  0  0  0  0  0  0  0  0
    4.0893  -16.4520    6.3643 C   0  0  2  0  0  0  0  0  0  0  0  0
   -2.8602  -11.3990    7.9261 O   0  0  0  0  0  0  0  0  0  0  0  0
    1.8007  -18.2615    2.0162 N   0  0  0  0  0  0  0  0  0  0  0  0
    1.7525  -18.7979    3.2799 C   0  0  0  0  0  0  0  0  0  0  0  0
    2.4282  -18.1711    4.3038 N   0  0  0  0  0  0  0  0  0  0  0  0
    3.1334  -17.0385    4.0858 C   0  0  0  0  0  0  0  0  0  0  0  0
    3.1799  -16.4773    2.8179 C   0  0  0  0  0  0  0  0  0  0  0  0
    2.5101  -17.1052    1.7699 C   0  0  0  0  0  0  0  0  0  0  0  0
    2.5365  -16.6005    0.5361 N   0  0  0  0  0  0  0  0  0  0  0  0
    3.9411  -15.3547    2.8859 N   0  0  0  0  0  0  0  0  0  0  0  0
    4.3520  -15.1991    4.1656 C   0  0  0  0  0  0  0  0  0  0  0  0
    3.8542  -16.2302    4.9236 N   0  0  0  0  0  0  0  0  0  0  0  0
  2  1  1  1  0  0  0
  2  3  1  0  0  0  0
  2  5  1  0  0  0  0
  3  4  1  0  0  0  0
  3 17  1  0  0  0  0
  5  6  1  0  0  0  0
  7  6  1  1  0  0  0
  7  8  1  0  0  0  0
  7  9  1  0  0  0  0
 10  9  1  6  0  0  0
 10 11  1  0  0  0  0
 10 12  1  0  0  0  0
 11 16  1  0  0  0  0
 12 13  1  1  0  0  0
 12 14  1  0  0  0  0
 14 15  1  1  0  0  0
 14 16  1  0  0  0  0
 16 27  1  6  0  0  0
 18 19  2  0  0  0  0
 18 23  1  0  0  0  0
 19 20  1  0  0  0  0
 20 21  2  0  0  0  0
 21 22  1  0  0  0  0
 21 27  1  0  0  0  0
 22 23  2  0  0  0  0
 22 25  1  0  0  0  0
 23 24  1  0  0  0  0
 25 26  2  0  0  0  0
 26 27  1  0  0  0  0
M  END
>  <CHROM.1>
-26.29732319,-171.81893507,171.54429377,57.49486648,-157.10474265,-54.71590027
-58.77327761,1.48500210,-15.22765843,6.30619937,-2.32986922,0.23408588,-1.97873020

>  <Name>
ligand

>  <RI>
0

>  <Rbt.Current_Directory>
/home/itssahil/PROJECTS/Mol_Feturizer/New_Systems/rnas/3GX5

>  <Rbt.Executable>
rbdock ($Id: //depot/dev/client3/rdock/2013.1/src/exe/rbdock.cxx#4 $)

>  <Rbt.Library>
libRbt.so (2013.1, Build901 2013/11/27)

>  <Rbt.Parameter_File>
/export/apps/rDock/src/rDock_2013.1_src/data/scripts/dock_solv.prm

>  <Rbt.Receptor>
prm/blind_docking_20.prm

>  <SCORE>
-3.40589

>  <SCORE.INTER>
-5.88299

>  <SCORE.INTER.CONST>
1

>  <SCORE.INTER.POLAR>
0

>  <SCORE.INTER.ROT>
7

>  <SCORE.INTER.SOLV>
19.9473

>  <SCORE.INTER.VDW>
-18.8377

>  <SCORE.INTER.norm>
-0.217889

>  <SCORE.INTRA>
2.47347

>  <SCORE.INTRA.DIHEDRAL>
2.19156

>  <SCORE.INTRA.DIHEDRAL.0>
4.28829

>  <SCORE.INTRA.POLAR>
0

>  <SCORE.INTRA.POLAR.0>
0

>  <SCORE.INTRA.REPUL>
0

>  <SCORE.INTRA.REPUL.0>
0

>  <SCORE.INTRA.SOLV>
-1.05954

>  <SCORE.INTRA.SOLV.lig_0>
-48.6018

>  <SCORE.INTRA.VDW>
1.90746

>  <SCORE.INTRA.VDW.0>
-2.1506

>  <SCORE.INTRA.norm>
0.09161

>  <SCORE.RESTR>
0.00363113

>  <SCORE.RESTR.CAVITY>
0.00363113

>  <SCORE.RESTR.norm>
0.000134486

>  <SCORE.SYSTEM>
0

>  <SCORE.SYSTEM.CONST>
0

>  <SCORE.SYSTEM.DIHEDRAL>
0

>  <SCORE.SYSTEM.SOLV>
0

>  <SCORE.SYSTEM.norm>
0

>  <SCORE.heavy>
27

>  <SCORE.norm>
-0.126144

>  <RMSD>
17.183

$$$$
ligand
 OpenBabel11021811483D
libRbt.so/2013.1/901 2013/11/27
 27 29  0  0  0  0  0  0  0  0999 V2000
    4.7629  -18.2727    1.8407 N   0  0  0  0  0  0  0  0  0  0  0  0
    3.3448  -18.0252    2.1082 C   0  0  2  0  0  0  0  0  0  0  0  0
    2.8264  -16.6400    1.7138 C   0  0  0  0  0  0  0  0  0  0  0  0
    3.3173  -15.6484    2.2518 O   0  0  0  0  0  0  0  0  0  0  0  0
    3.0038  -18.3300    3.5572 C   0  0  0  0  0  0  0  0  0  0  0  0
    1.5412  -18.0507    3.8576 C   0  0  0  0  0  0  0  0  0  0  0  0
    1.1285  -18.5555    5.5369 S   0  0  2  0  0  0  0  0  0  0  0  0
    0.6996  -20.2851    5.2472 C   0  0  0  0  0  0  0  0  0  0  0  0
   -0.5312  -17.8556    5.6930 C   0  0  0  0  0  0  0  0  0  0  0  0
   -0.4709  -16.4284    6.2054 C   0  0  1  0  0  0  0  0  0  0  0  0
    0.3378  -16.3480    7.3568 O   0  0  0  0  0  0  0  0  0  0  0  0
    0.1614  -15.4742    5.2114 C   0  0  1  0  0  0  0  0  0  0  0  0
   -0.8607  -14.9010    4.4356 O   0  0  0  0  0  0  0  0  0  0  0  0
    0.8260  -14.4348    6.0911 C   0  0  1  0  0  0  0  0  0  0  0  0
   -0.0272  -13.3131    6.1348 O   0  0  0  0  0  0  0  0  0  0  0  0
    0.9493  -15.0756    7.4752 C   0  0  2  0  0  0  0  0  0  0  0  0
    1.9311  -16.4706    0.8817 O   0  0  0  0  0  0  0  0  0  0  0  0
    5.6709  -16.3031    5.5731 N   0  0  0  0  0  0  0  0  0  0  0  0
    4.5005  -16.1280    4.8755 C   0  0  0  0  0  0  0  0  0  0  0  0
    3.3497  -15.8061    5.5609 N   0  0  0  0  0  0  0  0  0  0  0  0
    3.3546  -15.6572    6.9045 C   0  0  0  0  0  0  0  0  0  0  0  0
    4.5317  -15.8170    7.6211 C   0  0  0  0  0  0  0  0  0  0  0  0
    5.7017  -16.1529    6.9433 C   0  0  0  0  0  0  0  0  0  0  0  0
    6.8513  -16.3216    7.5973 N   0  0  0  0  0  0  0  0  0  0  0  0
    4.2538  -15.6042    8.9332 N   0  0  0  0  0  0  0  0  0  0  0  0
    2.9398  -15.3009    9.0436 C   0  0  0  0  0  0  0  0  0  0  0  0
    2.3695  -15.3225    7.7947 N   0  0  0  0  0  0  0  0  0  0  0  0
  2  1  1  1  0  0  0
  2  3  1  0  0  0  0
  2  5  1  0  0  0  0
  3  4  1  0  0  0  0
  3 17  1  0  0  0  0
  5  6  1  0  0  0  0
  7  6  1  6  0  0  0
  7  8  1  0  0  0  0
  7  9  1  0  0  0  0
 10  9  1  6  0  0  0
 10 11  1  0  0  0  0
 10 12  1  0  0  0  0
 11 16  1  0  0  0  0
 12 13  1  6  0  0  0
 12 14  1  0  0  0  0
 14 15  1  1  0  0  0
 14 16  1  0  0  0  0
 16 27  1  6  0  0  0
 18 19  2  0  0  0  0
 18 23  1  0  0  0  0
 19 20  1  0  0  0  0
 20 21  2  0  0  0  0
 21 22  1  0  0  0  0
 21 27  1  0  0  0  0
 22 23  2  0  0  0  0
 22 25  1  0  0  0  0
 23 24  1  0  0  0  0
 25 26  2  0  0  0  0
 26 27  1  0  0  0  0
M  END
>  <CHROM.1>
-61.29524995,178.83065630,175.01267039,-87.48430877,-88.56654433,-50.18562021
80.24116172,2.32882713,-16.49336083,5.37434590,-1.70055288,-0.05616439,1.17690492

>  <Name>
ligand

>  <RI>
0

>  <Rbt.Current_Directory>
/home/itssahil/PROJECTS/Mol_Feturizer/New_Systems/rnas/3GX5

>  <Rbt.Executable>
rbdock ($Id: //depot/dev/client3/rdock/2013.1/src/exe/rbdock.cxx#4 $)

>  <Rbt.Library>
libRbt.so (2013.1, Build901 2013/11/27)

>  <Rbt.Parameter_File>
/export/apps/rDock/src/rDock_2013.1_src/data/scripts/dock_solv.prm

>  <Rbt.Receptor>
prm/blind_docking_20.prm

>  <SCORE>
-6.48126

>  <SCORE.INTER>
-7.15407

>  <SCORE.INTER.CONST>
1

>  <SCORE.INTER.POLAR>
0

>  <SCORE.INTER.ROT>
7

>  <SCORE.INTER.SOLV>
17.833

>  <SCORE.INTER.VDW>
-18.9804

>  <SCORE.INTER.norm>
-0.264965

>  <SCORE.INTRA>
-1.30099

>  <SCORE.INTRA.DIHEDRAL>
1.50573

>  <SCORE.INTRA.DIHEDRAL.0>
4.28829

>  <SCORE.INTRA.POLAR>
0

>  <SCORE.INTRA.POLAR.0>
0

>  <SCORE.INTRA.REPUL>
0

>  <SCORE.INTRA.REPUL.0>
0

>  <SCORE.INTRA.SOLV>
-0.798167

>  <SCORE.INTRA.SOLV.lig_0>
-48.6018

>  <SCORE.INTRA.VDW>
-1.65477

>  <SCORE.INTRA.VDW.0>
-2.1506

>  <SCORE.INTRA.norm>
-0.0481848

>  <SCORE.RESTR>
1.97379

>  <SCORE.RESTR.CAVITY>
1.97379

>  <SCORE.RESTR.norm>
0.0731034

>  <SCORE.SYSTEM>
0

>  <SCORE.SYSTEM.CONST>
0

>  <SCORE.SYSTEM.DIHEDRAL>
0

>  <SCORE.SYSTEM.SOLV>
0

>  <SCORE.SYSTEM.norm>
0

>  <SCORE.heavy>
27

>  <SCORE.norm>
-0.240047

>  <RMSD>
17.189

$$$$
ligand
 OpenBabel11021811483D
libRbt.so/2013.1/901 2013/11/27
 27 29  0  0  0  0  0  0  0  0999 V2000
    7.9471  -12.1353   17.9480 N   0  0  0  0  0  0  0  0  0  0  0  0
    6.9188  -11.0965   17.8615 C   0  0  2  0  0  0  0  0  0  0  0  0
    5.6427  -11.4860   17.1114 C   0  0  0  0  0  0  0  0  0  0  0  0
    5.7137  -12.3325   16.2214 O   0  0  0  0  0  0  0  0  0  0  0  0
    7.4948   -9.8069   17.3012 C   0  0  0  0  0  0  0  0  0  0  0  0
    8.3404   -9.0787   18.3318 C   0  0  0  0  0  0  0  0  0  0  0  0
    7.2958   -8.2859   19.5669 S   0  0  2  0  0  0  0  0  0  0  0  0
    6.4758   -7.0505   18.5370 C   0  0  0  0  0  0  0  0  0  0  0  0
    8.5078   -7.2309   20.3956 C   0  0  0  0  0  0  0  0  0  0  0  0
    7.8213   -6.1090   21.1526 C   0  0  1  0  0  0  0  0  0  0  0  0
    7.0761   -6.6224   22.2330 O   0  0  0  0  0  0  0  0  0  0  0  0
    8.8022   -5.1359   21.7765 C   0  0  1  0  0  0  0  0  0  0  0  0
    9.0122   -4.0788   20.8746 O   0  0  0  0  0  0  0  0  0  0  0  0
    8.0827   -4.6559   23.0207 C   0  0  1  0  0  0  0  0  0  0  0  0
    7.5209   -3.3975   22.7226 O   0  0  0  0  0  0  0  0  0  0  0  0
    6.9860   -5.6875   23.2937 C   0  0  2  0  0  0  0  0  0  0  0  0
    4.5418  -10.9845   17.3547 O   0  0  0  0  0  0  0  0  0  0  0  0
    6.5611   -5.7701   28.5120 N   0  0  0  0  0  0  0  0  0  0  0  0
    6.0791   -4.8227   27.6418 C   0  0  0  0  0  0  0  0  0  0  0  0
    6.2954   -4.9775   26.2902 N   0  0  0  0  0  0  0  0  0  0  0  0
    6.9699   -6.0452   25.8078 C   0  0  0  0  0  0  0  0  0  0  0  0
    7.4506   -7.0174   26.6730 C   0  0  0  0  0  0  0  0  0  0  0  0
    7.2487   -6.8696   28.0437 C   0  0  0  0  0  0  0  0  0  0  0  0
    7.7011   -7.7788   28.9076 N   0  0  0  0  0  0  0  0  0  0  0  0
    8.0722   -7.9681   25.9288 N   0  0  0  0  0  0  0  0  0  0  0  0
    7.9736   -7.6170   24.6259 C   0  0  0  0  0  0  0  0  0  0  0  0
    7.2871   -6.4314   24.5330 N   0  0  0  0  0  0  0  0  0  0  0  0
  2  1  1  6  0  0  0
  2  3  1  0  0  0  0
  2  5  1  0  0  0  0
  3  4  1  0  0  0  0
  3 17  1  0  0  0  0
  5  6  1  0  0  0  0
  7  6  1  6  0  0  0
  7  8  1  0  0  0  0
  7  9  1  0  0  0  0
 10  9  1  1  0  0  0
 10 11  1  0  0  0  0
 10 12  1  0  0  0  0
 11 16  1  0  0  0  0
 12 13  1  6  0  0  0
 12 14  1  0  0  0  0
 14 15  1  6  0  0  0
 14 16  1  0  0  0  0
 16 27  1  1  0  0  0
 18 19  2  0  0  0  0
 18 23  1  0  0  0  0
 19 20  1  0  0  0  0
 20 21  2  0  0  0  0
 21 22  1  0  0  0  0
 21 27  1  0  0  0  0
 22 23  2  0  0  0  0
 22 25  1  0  0  0  0
 23 24  1  0  0  0  0
 25 26  2  0  0  0  0
 26 27  1  0  0  0  0
M  END
>  <CHROM.1>
-28.36359326,-75.16317598,-74.72895940,-66.11421607,160.26984632,67.01857617
-160.89074685,7.24544459,-7.48019468,22.05052870,1.78939372,-1.30291445,-1.82885840

>  <Name>
ligand

>  <RI>
0

>  <Rbt.Current_Directory>
/home/itssahil/PROJECTS/Mol_Feturizer/New_Systems/rnas/3GX5

>  <Rbt.Executable>
rbdock ($Id: //depot/dev/client3/rdock/2013.1/src/exe/rbdock.cxx#4 $)

>  <Rbt.Library>
libRbt.so (2013.1, Build901 2013/11/27)

>  <Rbt.Parameter_File>
/export/apps/rDock/src/rDock_2013.1_src/data/scripts/dock_solv.prm

>  <Rbt.Receptor>
prm/blind_docking_100.prm

>  <SCORE>
-6.51854

>  <SCORE.INTER>
-7.32491

>  <SCORE.INTER.CONST>
1

>  <SCORE.INTER.POLAR>
0

>  <SCORE.INTER.ROT>
7

>  <SCORE.INTER.SOLV>
17.9655

>  <SCORE.INTER.VDW>
-19.1384

>  <SCORE.INTER.norm>
-0.271293

>  <SCORE.INTRA>
0.806373

>  <SCORE.INTRA.DIHEDRAL>
1.27584

>  <SCORE.INTRA.DIHEDRAL.0>
4.28829

>  <SCORE.INTRA.POLAR>
0

>  <SCORE.INTRA.POLAR.0>
0

>  <SCORE.INTRA.REPUL>
0

>  <SCORE.INTRA.REPUL.0>
0

>  <SCORE.INTRA.SOLV>
-0.374591

>  <SCORE.INTRA.SOLV.lig_0>
-48.6018

>  <SCORE.INTRA.VDW>
0.355747

>  <SCORE.INTRA.VDW.0>
-2.1506

>  <SCORE.INTRA.norm>
0.0298657

>  <SCORE.RESTR>
0

>  <SCORE.RESTR.CAVITY>
0

>  <SCORE.RESTR.norm>
0

>  <SCORE.SYSTEM>
0

>  <SCORE.SYSTEM.CONST>
0

>  <SCORE.SYSTEM.DIHEDRAL>
0

>  <SCORE.SYSTEM.SOLV>
0

>  <SCORE.SYSTEM.norm>
0

>  <SCORE.heavy>
27

>  <SCORE.norm>
-0.241427

>  <RMSD>
17.254

$$$$
ligand
 OpenBabel11021811483D
libRbt.so/2013.1/901 2013/11/27
 27 29  0  0  0  0  0  0  0  0999 V2000
    4.5381  -17.8338    7.0297 N   0  0  0  0  0  0  0  0  0  0  0  0
    4.7735  -16.8456    5.9752 C   0  0  2  0  0  0  0  0  0  0  0  0
    6.2203  -16.3704    5.8214 C   0  0  0  0  0  0  0  0  0  0  0  0
    7.0194  -16.6013    6.7280 O   0  0  0  0  0  0  0  0  0  0  0  0
    3.8349  -15.6598    6.1224 C   0  0  0  0  0  0  0  0  0  0  0  0
    3.7110  -14.8810    4.8242 C   0  0  0  0  0  0  0  0  0  0  0  0
    2.6386  -15.7454    3.6631 S   0  0  2  0  0  0  0  0  0  0  0  0
    2.7860  -14.6565    2.2307 C   0  0  0  0  0  0  0  0  0  0  0  0
    1.0147  -15.2297    4.2677 C   0  0  0  0  0  0  0  0  0  0  0  0
    0.6274  -16.0089    5.5111 C   0  0  1  0  0  0  0  0  0  0  0  0
    0.8605  -15.2421    6.6703 O   0  0  0  0  0  0  0  0  0  0  0  0
   -0.8492  -16.3500    5.5537 C   0  0  1  0  0  0  0  0  0  0  0  0
   -1.0261  -17.6245    4.9885 O   0  0  0  0  0  0  0  0  0  0  0  0
   -1.1679  -16.3617    7.0350 C   0  0  1  0  0  0  0  0  0  0  0  0
   -1.1749  -17.7083    7.4531 O   0  0  0  0  0  0  0  0  0  0  0  0
   -0.0335  -15.5902    7.7128 C   0  0  2  0  0  0  0  0  0  0  0  0
    6.6237  -15.7587    4.8285 O   0  0  0  0  0  0  0  0  0  0  0  0
   -1.2010  -12.9149   12.0599 N   0  0  0  0  0  0  0  0  0  0  0  0
   -0.6729  -14.1795   11.9646 C   0  0  0  0  0  0  0  0  0  0  0  0
   -0.4353  -14.7179   10.7191 N   0  0  0  0  0  0  0  0  0  0  0  0
   -0.7099  -14.0225    9.5927 C   0  0  0  0  0  0  0  0  0  0  0  0
   -1.2304  -12.7391    9.6732 C   0  0  0  0  0  0  0  0  0  0  0  0
   -1.4860  -12.1848   10.9257 C   0  0  0  0  0  0  0  0  0  0  0  0
   -1.9920  -10.9570   11.0442 N   0  0  0  0  0  0  0  0  0  0  0  0
   -1.3993  -12.2771    8.4074 N   0  0  0  0  0  0  0  0  0  0  0  0
   -0.9813  -13.2349    7.5481 C   0  0  0  0  0  0  0  0  0  0  0  0
   -0.5443  -14.3204    8.2666 N   0  0  0  0  0  0  0  0  0  0  0  0
  2  1  1  1  0  0  0
  2  3  1  0  0  0  0
  2  5  1  0  0  0  0
  3  4  1  0  0  0  0
  3 17  1  0  0  0  0
  5  6  1  0  0  0  0
  7  6  1  1  0  0  0
  7  8  1  0  0  0  0
  7  9  1  0  0  0  0
 10  9  1  6  0  0  0
 10 11  1  0  0  0  0
 10 12  1  0  0  0  0
 11 16  1  0  0  0  0
 12 13  1  1  0  0  0
 12 14  1  0  0  0  0
 14 15  1  1  0  0  0
 14 16  1  0  0  0  0
 16 27  1  6  0  0  0
 18 19  2  0  0  0  0
 18 23  1  0  0  0  0
 19 20  1  0  0  0  0
 20 21  2  0  0  0  0
 21 22  1  0  0  0  0
 21 27  1  0  0  0  0
 22 23  2  0  0  0  0
 22 25  1  0  0  0  0
 23 24  1  0  0  0  0
 25 26  2  0  0  0  0
 26 27  1  0  0  0  0
M  END
>  <CHROM.1>
-15.22677000,-160.16778703,76.76877695,-176.35830073,-77.75815703,100.27786662
-137.29358598,1.24552976,-15.13215563,7.02298722,-0.80557161,-0.08765272
1.15923831

>  <Name>
ligand

>  <RI>
0

>  <Rbt.Current_Directory>
/home/itssahil/PROJECTS/Mol_Feturizer/New_Systems/rnas/3GX5

>  <Rbt.Executable>
rbdock ($Id: //depot/dev/client3/rdock/2013.1/src/exe/rbdock.cxx#4 $)

>  <Rbt.Library>
libRbt.so (2013.1, Build901 2013/11/27)

>  <Rbt.Parameter_File>
/export/apps/rDock/src/rDock_2013.1_src/data/scripts/dock_solv.prm

>  <Rbt.Receptor>
prm/blind_docking_20.prm

>  <SCORE>
-5.46149

>  <SCORE.INTER>
-7.24559

>  <SCORE.INTER.CONST>
1

>  <SCORE.INTER.POLAR>
0

>  <SCORE.INTER.ROT>
7

>  <SCORE.INTER.SOLV>
8.91076

>  <SCORE.INTER.VDW>
-16.0673

>  <SCORE.INTER.norm>
-0.268355

>  <SCORE.INTRA>
1.78207

>  <SCORE.INTRA.DIHEDRAL>
6.00353

>  <SCORE.INTRA.DIHEDRAL.0>
4.28829

>  <SCORE.INTRA.POLAR>
0

>  <SCORE.INTRA.POLAR.0>
0

>  <SCORE.INTRA.REPUL>
0

>  <SCORE.INTRA.REPUL.0>
0

>  <SCORE.INTRA.SOLV>
-0.869992

>  <SCORE.INTRA.SOLV.lig_0>
-48.6018

>  <SCORE.INTRA.VDW>
-0.784706

>  <SCORE.INTRA.VDW.0>
-2.1506

>  <SCORE.INTRA.norm>
0.0660024

>  <SCORE.RESTR>
0.00202925

>  <SCORE.RESTR.CAVITY>
0.00202925

>  <SCORE.RESTR.norm>
7.51575e-05

>  <SCORE.SYSTEM>
0

>  <SCORE.SYSTEM.CONST>
0

>  <SCORE.SYSTEM.DIHEDRAL>
0

>  <SCORE.SYSTEM.SOLV>
0

>  <SCORE.SYSTEM.norm>
0

>  <SCORE.heavy>
27

>  <SCORE.norm>
-0.202278

>  <RMSD>
17.264

$$$$
ligand
 OpenBabel11021811483D
libRbt.so/2013.1/901 2013/11/27
 27 29  0  0  0  0  0  0  0  0999 V2000
   -2.5862  -14.2105   12.0756 N   0  0  0  0  0  0  0  0  0  0  0  0
   -1.8208  -13.5599   11.0104 C   0  0  2  0  0  0  0  0  0  0  0  0
   -2.6052  -12.5844   10.1295 C   0  0  0  0  0  0  0  0  0  0  0  0
   -2.2359  -11.4124   10.0690 O   0  0  0  0  0  0  0  0  0  0  0  0
   -1.0971  -14.5871   10.1560 C   0  0  0  0  0  0  0  0  0  0  0  0
   -0.0233  -13.9421    9.2967 C   0  0  0  0  0  0  0  0  0  0  0  0
    0.6285  -15.1212    8.1009 S   0  0  2  0  0  0  0  0  0  0  0  0
    1.9511  -14.1307    7.3736 C   0  0  0  0  0  0  0  0  0  0  0  0
   -0.6090  -14.9801    6.7905 C   0  0  0  0  0  0  0  0  0  0  0  0
   -0.3234  -15.9608    5.6681 C   0  0  1  0  0  0  0  0  0  0  0  0
    0.9437  -15.7134    5.1030 O   0  0  0  0  0  0  0  0  0  0  0  0
   -0.2691  -17.3989    6.1451 C   0  0  1  0  0  0  0  0  0  0  0  0
   -1.5467  -17.9644    5.9942 O   0  0  0  0  0  0  0  0  0  0  0  0
    0.7279  -18.0466    5.2056 C   0  0  1  0  0  0  0  0  0  0  0  0
   -0.0087  -18.7393    4.2230 O   0  0  0  0  0  0  0  0  0  0  0  0
    1.5196  -16.8969    4.5788 C   0  0  2  0  0  0  0  0  0  0  0  0
   -3.5988  -12.9185    9.4785 O   0  0  0  0  0  0  0  0  0  0  0  0
    6.5596  -17.2157    3.1953 N   0  0  0  0  0  0  0  0  0  0  0  0
    5.4595  -17.1927    2.3729 C   0  0  0  0  0  0  0  0  0  0  0  0
    4.2031  -17.1061    2.9311 N   0  0  0  0  0  0  0  0  0  0  0  0
    4.0363  -17.0406    4.2710 C   0  0  0  0  0  0  0  0  0  0  0  0
    5.1383  -17.0488    5.1137 C   0  0  0  0  0  0  0  0  0  0  0  0
    6.4151  -17.1464    4.5647 C   0  0  0  0  0  0  0  0  0  0  0  0
    7.4985  -17.1640    5.3417 N   0  0  0  0  0  0  0  0  0  0  0  0
    4.6870  -16.9648    6.3918 N   0  0  0  0  0  0  0  0  0  0  0  0
    3.3366  -16.8883    6.3596 C   0  0  0  0  0  0  0  0  0  0  0  0
    2.9177  -16.9268    5.0524 N   0  0  0  0  0  0  0  0  0  0  0  0
  2  1  1  1  0  0  0
  2  3  1  0  0  0  0
  2  5  1  0  0  0  0
  3  4  1  0  0  0  0
  3 17  1  0  0  0  0
  5  6  1  0  0  0  0
  7  6  1  1  0  0  0
  7  8  1  0  0  0  0
  7  9  1  0  0  0  0
 10  9  1  1  0  0  0
 10 11  1  0  0  0  0
 10 12  1  0  0  0  0
 11 16  1  0  0  0  0
 12 13  1  6  0  0  0
 12 14  1  0  0  0  0
 14 15  1  6  0  0  0
 14 16  1  0  0  0  0
 16 27  1  1  0  0  0
 18 19  2  0  0  0  0
 18 23  1  0  0  0  0
 19 20  1  0  0  0  0
 20 21  2  0  0  0  0
 21 22  1  0  0  0  0
 21 27  1  0  0  0  0
 22 23  2  0  0  0  0
 22 25  1  0  0  0  0
 23 24  1  0  0  0  0
 25 26  2  0  0  0  0
 26 27  1  0  0  0  0
M  END
>  <CHROM.1>
121.03876939,-164.85150500,-170.54987716,-174.75096889,-176.65114720,-60.02551772
-125.16309943,1.30030145,-15.81056051,6.67369329,-2.36865064,-0.11366371
-2.26326726

>  <Name>
ligand

>  <RI>
0

>  <Rbt.Current_Directory>
/home/itssahil/PROJECTS/Mol_Feturizer/New_Systems/rnas/3GX5

>  <Rbt.Executable>
rbdock ($Id: //depot/dev/client3/rdock/2013.1/src/exe/rbdock.cxx#4 $)

>  <Rbt.Library>
libRbt.so (2013.1, Build901 2013/11/27)

>  <Rbt.Parameter_File>
/export/apps/rDock/src/rDock_2013.1_src/data/scripts/dock_solv.prm

>  <Rbt.Receptor>
prm/blind_docking_20.prm

>  <SCORE>
-3.60704

>  <SCORE.INTER>
-3.19452

>  <SCORE.INTER.CONST>
1

>  <SCORE.INTER.POLAR>
0

>  <SCORE.INTER.ROT>
7

>  <SCORE.INTER.SOLV>
7.10258

>  <SCORE.INTER.VDW>
-12.7639

>  <SCORE.INTER.norm>
-0.118315

>  <SCORE.INTRA>
-0.555311

>  <SCORE.INTRA.DIHEDRAL>
1.21561

>  <SCORE.INTRA.DIHEDRAL.0>
4.28829

>  <SCORE.INTRA.POLAR>
0

>  <SCORE.INTRA.POLAR.0>
0

>  <SCORE.INTRA.REPUL>
0

>  <SCORE.INTRA.REPUL.0>
0

>  <SCORE.INTRA.SOLV>
-1.06061

>  <SCORE.INTRA.SOLV.lig_0>
-48.6018

>  <SCORE.INTRA.VDW>
-0.632813

>  <SCORE.INTRA.VDW.0>
-2.1506

>  <SCORE.INTRA.norm>
-0.0205671

>  <SCORE.RESTR>
0.142788

>  <SCORE.RESTR.CAVITY>
0.142788

>  <SCORE.RESTR.norm>
0.00528846

>  <SCORE.SYSTEM>
0

>  <SCORE.SYSTEM.CONST>
0

>  <SCORE.SYSTEM.DIHEDRAL>
0

>  <SCORE.SYSTEM.SOLV>
0

>  <SCORE.SYSTEM.norm>
0

>  <SCORE.heavy>
27

>  <SCORE.norm>
-0.133594

>  <RMSD>
17.300

$$$$
ligand
 OpenBabel11021811483D
libRbt.so/2013.1/901 2013/11/27
 27 29  0  0  0  0  0  0  0  0999 V2000
   -3.5048  -13.9209   10.8909 N   0  0  0  0  0  0  0  0  0  0  0  0
   -2.2591  -13.4128   10.3130 C   0  0  2  0  0  0  0  0  0  0  0  0
   -2.4076  -12.2390    9.3420 C   0  0  0  0  0  0  0  0  0  0  0  0
   -1.8598  -11.1717    9.6145 O   0  0  0  0  0  0  0  0  0  0  0  0
   -1.4585  -14.5356    9.6748 C   0  0  0  0  0  0  0  0  0  0  0  0
   -0.0523  -14.0858    9.3176 C   0  0  0  0  0  0  0  0  0  0  0  0
    0.6676  -15.1734    8.0751 S   0  0  2  0  0  0  0  0  0  0  0  0
    2.1181  -14.2032    7.6124 C   0  0  0  0  0  0  0  0  0  0  0  0
   -0.4002  -14.8117    6.6618 C   0  0  0  0  0  0  0  0  0  0  0  0
   -0.1811  -15.8170    5.5463 C   0  0  1  0  0  0  0  0  0  0  0  0
    1.0751  -15.6189    4.9390 O   0  0  0  0  0  0  0  0  0  0  0  0
   -0.1580  -17.2491    6.0431 C   0  0  1  0  0  0  0  0  0  0  0  0
   -1.4571  -17.7750    5.9400 O   0  0  0  0  0  0  0  0  0  0  0  0
    0.7882  -17.9421    5.0836 C   0  0  1  0  0  0  0  0  0  0  0  0
   -0.0004  -18.6245    4.1346 O   0  0  0  0  0  0  0  0  0  0  0  0
    1.5963  -16.8277    4.4154 C   0  0  2  0  0  0  0  0  0  0  0  0
   -3.0588  -12.3115    8.2963 O   0  0  0  0  0  0  0  0  0  0  0  0
    6.5616  -17.5262    2.9068 N   0  0  0  0  0  0  0  0  0  0  0  0
    5.4360  -17.5079    2.1195 C   0  0  0  0  0  0  0  0  0  0  0  0
    4.2061  -17.3100    2.7076 N   0  0  0  0  0  0  0  0  0  0  0  0
    4.0899  -17.1311    4.0425 C   0  0  0  0  0  0  0  0  0  0  0  0
    5.2189  -17.1331    4.8487 C   0  0  0  0  0  0  0  0  0  0  0  0
    6.4690  -17.3424    4.2701 C   0  0  0  0  0  0  0  0  0  0  0  0
    7.5766  -17.3578    5.0121 N   0  0  0  0  0  0  0  0  0  0  0  0
    4.8178  -16.9252    6.1294 N   0  0  0  0  0  0  0  0  0  0  0  0
    3.4727  -16.7784    6.1329 C   0  0  0  0  0  0  0  0  0  0  0  0
    3.0068  -16.8962    4.8465 N   0  0  0  0  0  0  0  0  0  0  0  0
  2  1  1  6  0  0  0
  2  3  1  0  0  0  0
  2  5  1  0  0  0  0
  3  4  1  0  0  0  0
  3 17  1  0  0  0  0
  5  6  1  0  0  0  0
  7  6  1  1  0  0  0
  7  8  1  0  0  0  0
  7  9  1  0  0  0  0
 10  9  1  1  0  0  0
 10 11  1  0  0  0  0
 10 12  1  0  0  0  0
 11 16  1  0  0  0  0
 12 13  1  6  0  0  0
 12 14  1  0  0  0  0
 14 15  1  6  0  0  0
 14 16  1  0  0  0  0
 16 27  1  1  0  0  0
 18 19  2  0  0  0  0
 18 23  1  0  0  0  0
 19 20  1  0  0  0  0
 20 21  2  0  0  0  0
 21 22  1  0  0  0  0
 21 27  1  0  0  0  0
 22 23  2  0  0  0  0
 22 25  1  0  0  0  0
 23 24  1  0  0  0  0
 25 26  2  0  0  0  0
 26 27  1  0  0  0  0
M  END
>  <CHROM.1>
119.05714243,-168.72206876,-159.80449364,168.21921964,-168.35281455,-70.82184713
-129.04230996,1.34201626,-15.76291936,6.38696618,2.38839650,0.10381735,0.81252598

>  <Name>
ligand

>  <RI>
0

>  <Rbt.Current_Directory>
/home/itssahil/PROJECTS/Mol_Feturizer/New_Systems/rnas/3GX5

>  <Rbt.Executable>
rbdock ($Id: //depot/dev/client3/rdock/2013.1/src/exe/rbdock.cxx#4 $)

>  <Rbt.Library>
libRbt.so (2013.1, Build901 2013/11/27)

>  <Rbt.Parameter_File>
/export/apps/rDock/src/rDock_2013.1_src/data/scripts/dock_solv.prm

>  <Rbt.Receptor>
prm/blind_docking_20.prm

>  <SCORE>
-4.43226

>  <SCORE.INTER>
-4.63355

>  <SCORE.INTER.CONST>
1

>  <SCORE.INTER.POLAR>
0

>  <SCORE.INTER.ROT>
7

>  <SCORE.INTER.SOLV>
6.44033

>  <SCORE.INTER.VDW>
-13.5025

>  <SCORE.INTER.norm>
-0.171613

>  <SCORE.INTRA>
0.176569

>  <SCORE.INTRA.DIHEDRAL>
2.49275

>  <SCORE.INTRA.DIHEDRAL.0>
4.28829

>  <SCORE.INTRA.POLAR>
0

>  <SCORE.INTRA.POLAR.0>
0

>  <SCORE.INTRA.REPUL>
0

>  <SCORE.INTRA.REPUL.0>
0

>  <SCORE.INTRA.SOLV>
-1.05655

>  <SCORE.INTRA.SOLV.lig_0>
-48.6018

>  <SCORE.INTRA.VDW>
-0.541527

>  <SCORE.INTRA.VDW.0>
-2.1506

>  <SCORE.INTRA.norm>
0.00653959

>  <SCORE.RESTR>
0.0247232

>  <SCORE.RESTR.CAVITY>
0.0247232

>  <SCORE.RESTR.norm>
0.000915674

>  <SCORE.SYSTEM>
0

>  <SCORE.SYSTEM.CONST>
0

>  <SCORE.SYSTEM.DIHEDRAL>
0

>  <SCORE.SYSTEM.SOLV>
0

>  <SCORE.SYSTEM.norm>
0

>  <SCORE.heavy>
27

>  <SCORE.norm>
-0.164158

>  <RMSD>
17.302

$$$$
ligand
 OpenBabel11021811483D
libRbt.so/2013.1/901 2013/11/27
 27 29  0  0  0  0  0  0  0  0999 V2000
    4.1884  -15.5895    2.2210 N   0  0  0  0  0  0  0  0  0  0  0  0
    4.3362  -17.0412    2.3409 C   0  0  2  0  0  0  0  0  0  0  0  0
    3.0351  -17.8466    2.3032 C   0  0  0  0  0  0  0  0  0  0  0  0
    3.0142  -18.9630    2.8198 O   0  0  0  0  0  0  0  0  0  0  0  0
    5.1536  -17.4047    3.5691 C   0  0  0  0  0  0  0  0  0  0  0  0
    4.4590  -16.9746    4.8497 C   0  0  0  0  0  0  0  0  0  0  0  0
    4.4128  -15.1782    4.9763 S   0  0  2  0  0  0  0  0  0  0  0  0
    6.1280  -14.8525    5.4357 C   0  0  0  0  0  0  0  0  0  0  0  0
    3.6256  -14.9818    6.5920 C   0  0  0  0  0  0  0  0  0  0  0  0
    2.3069  -15.7309    6.6465 C   0  0  1  0  0  0  0  0  0  0  0  0
    1.5965  -15.4010    7.8180 O   0  0  0  0  0  0  0  0  0  0  0  0
    1.3776  -15.3669    5.5054 C   0  0  1  0  0  0  0  0  0  0  0  0
    1.5818  -16.2817    4.4583 O   0  0  0  0  0  0  0  0  0  0  0  0
   -0.0035  -15.5275    6.1078 C   0  0  1  0  0  0  0  0  0  0  0  0
   -0.5026  -16.7777    5.6882 O   0  0  0  0  0  0  0  0  0  0  0  0
    0.1969  -15.5058    7.6246 C   0  0  2  0  0  0  0  0  0  0  0  0
    2.0026  -17.4291    1.7717 O   0  0  0  0  0  0  0  0  0  0  0  0
   -1.1089  -12.9624   12.0114 N   0  0  0  0  0  0  0  0  0  0  0  0
   -0.4928  -14.1850   11.8974 C   0  0  0  0  0  0  0  0  0  0  0  0
   -0.2316  -14.6931   10.6439 N   0  0  0  0  0  0  0  0  0  0  0  0
   -0.5682  -14.0086    9.5278 C   0  0  0  0  0  0  0  0  0  0  0  0
   -1.1782  -12.7666    9.6270 C   0  0  0  0  0  0  0  0  0  0  0  0
   -1.4583  -12.2439   10.8878 C   0  0  0  0  0  0  0  0  0  0  0  0
   -2.0495  -11.0566   11.0244 N   0  0  0  0  0  0  0  0  0  0  0  0
   -1.3942  -12.3058    8.3680 N   0  0  0  0  0  0  0  0  0  0  0  0
   -0.9188  -13.2230    7.4944 C   0  0  0  0  0  0  0  0  0  0  0  0
   -0.3970  -14.2812    8.1969 N   0  0  0  0  0  0  0  0  0  0  0  0
  2  1  1  1  0  0  0
  2  3  1  0  0  0  0
  2  5  1  0  0  0  0
  3  4  1  0  0  0  0
  3 17  1  0  0  0  0
  5  6  1  0  0  0  0
  7  6  1  1  0  0  0
  7  8  1  0  0  0  0
  7  9  1  0  0  0  0
 10  9  1  6  0  0  0
 10 11  1  0  0  0  0
 10 12  1  0  0  0  0
 11 16  1  0  0  0  0
 12 13  1  6  0  0  0
 12 14  1  0  0  0  0
 14 15  1  6  0  0  0
 14 16  1  0  0  0  0
 16 27  1  6  0  0  0
 18 19  2  0  0  0  0
 18 23  1  0  0  0  0
 19 20  1  0  0  0  0
 20 21  2  0  0  0  0
 21 22  1  0  0  0  0
 21 27  1  0  0  0  0
 22 23  2  0  0  0  0
 22 25  1  0  0  0  0
 23 24  1  0  0  0  0
 25 26  2  0  0  0  0
 26 27  1  0  0  0  0
M  END
>  <CHROM.1>
-156.37592179,63.35893805,-68.02814984,-75.53835100,-54.57129196,-170.42731737
-75.64939366,1.57903650,-15.20551394,6.49751253,-1.00942421,0.11087394,1.00220294

>  <Name>
ligand

>  <RI>
0

>  <Rbt.Current_Directory>
/home/itssahil/PROJECTS/Mol_Feturizer/New_Systems/rnas/3GX5

>  <Rbt.Executable>
rbdock ($Id: //depot/dev/client3/rdock/2013.1/src/exe/rbdock.cxx#4 $)

>  <Rbt.Library>
libRbt.so (2013.1, Build901 2013/11/27)

>  <Rbt.Parameter_File>
/export/apps/rDock/src/rDock_2013.1_src/data/scripts/dock_solv.prm

>  <Rbt.Receptor>
prm/blind_docking_20.prm

>  <SCORE>
-2.71819

>  <SCORE.INTER>
-5.86358

>  <SCORE.INTER.CONST>
1

>  <SCORE.INTER.POLAR>
0

>  <SCORE.INTER.ROT>
7

>  <SCORE.INTER.SOLV>
9.0745

>  <SCORE.INTER.VDW>
-15.2006

>  <SCORE.INTER.norm>
-0.217169

>  <SCORE.INTRA>
3.13963

>  <SCORE.INTRA.DIHEDRAL>
0.493838

>  <SCORE.INTRA.DIHEDRAL.0>
4.28829

>  <SCORE.INTRA.POLAR>
0

>  <SCORE.INTRA.POLAR.0>
0

>  <SCORE.INTRA.REPUL>
0

>  <SCORE.INTRA.REPUL.0>
0

>  <SCORE.INTRA.SOLV>
3.06426

>  <SCORE.INTRA.SOLV.lig_0>
-48.6018

>  <SCORE.INTRA.VDW>
1.36058

>  <SCORE.INTRA.VDW.0>
-2.1506

>  <SCORE.INTRA.norm>
0.116282

>  <SCORE.RESTR>
0.00576205

>  <SCORE.RESTR.CAVITY>
0.00576205

>  <SCORE.RESTR.norm>
0.000213409

>  <SCORE.SYSTEM>
0

>  <SCORE.SYSTEM.CONST>
0

>  <SCORE.SYSTEM.DIHEDRAL>
0

>  <SCORE.SYSTEM.SOLV>
0

>  <SCORE.SYSTEM.norm>
0

>  <SCORE.heavy>
27

>  <SCORE.norm>
-0.100674

>  <RMSD>
17.363

$$$$
ligand
 OpenBabel11021811483D
libRbt.so/2013.1/901 2013/11/27
 27 29  0  0  0  0  0  0  0  0999 V2000
   -3.5195  -14.0879   11.0774 N   0  0  0  0  0  0  0  0  0  0  0  0
   -2.8263  -14.0085    9.7902 C   0  0  2  0  0  0  0  0  0  0  0  0
   -3.5254  -13.1805    8.7092 C   0  0  0  0  0  0  0  0  0  0  0  0
   -2.9657  -12.1720    8.2809 O   0  0  0  0  0  0  0  0  0  0  0  0
   -2.4912  -15.3952    9.2670 C   0  0  0  0  0  0  0  0  0  0  0  0
   -1.4784  -15.3360    8.1364 C   0  0  0  0  0  0  0  0  0  0  0  0
   -0.0320  -14.3808    8.6268 S   0  0  2  0  0  0  0  0  0  0  0  0
   -0.1656  -12.9969    7.4752 C   0  0  0  0  0  0  0  0  0  0  0  0
    1.2778  -15.3246    7.8129 C   0  0  0  0  0  0  0  0  0  0  0  0
    0.7814  -15.9294    6.5126 C   0  0  1  0  0  0  0  0  0  0  0  0
    1.6208  -15.5622    5.4418 O   0  0  0  0  0  0  0  0  0  0  0  0
    0.7988  -17.4453    6.5261 C   0  0  1  0  0  0  0  0  0  0  0  0
   -0.4640  -17.8994    6.9433 O   0  0  0  0  0  0  0  0  0  0  0  0
    1.0580  -17.8098    5.0783 C   0  0  1  0  0  0  0  0  0  0  0  0
   -0.1827  -18.1508    4.5019 O   0  0  0  0  0  0  0  0  0  0  0  0
    1.6302  -16.5495    4.4259 C   0  0  2  0  0  0  0  0  0  0  0  0
   -4.6318  -13.4751    8.2489 O   0  0  0  0  0  0  0  0  0  0  0  0
    6.5827  -16.5759    6.1259 N   0  0  0  0  0  0  0  0  0  0  0  0
    5.4433  -16.3283    6.8524 C   0  0  0  0  0  0  0  0  0  0  0  0
    4.2200  -16.3660    6.2201 N   0  0  0  0  0  0  0  0  0  0  0  0
    4.1231  -16.6447    4.9008 C   0  0  0  0  0  0  0  0  0  0  0  0
    5.2636  -16.9106    4.1571 C   0  0  0  0  0  0  0  0  0  0  0  0
    6.5090  -16.8661    4.7801 C   0  0  0  0  0  0  0  0  0  0  0  0
    7.6285  -17.1092    4.0980 N   0  0  0  0  0  0  0  0  0  0  0  0
    4.8792  -17.1640    2.8795 N   0  0  0  0  0  0  0  0  0  0  0  0
    3.5303  -17.0778    2.8186 C   0  0  0  0  0  0  0  0  0  0  0  0
    3.0456  -16.7638    4.0644 N   0  0  0  0  0  0  0  0  0  0  0  0
  2  1  1  1  0  0  0
  2  3  1  0  0  0  0
  2  5  1  0  0  0  0
  3  4  1  0  0  0  0
  3 17  1  0  0  0  0
  5  6  1  0  0  0  0
  7  6  1  6  0  0  0
  7  8  1  0  0  0  0
  7  9  1  0  0  0  0
 10  9  1  1  0  0  0
 10 11  1  0  0  0  0
 10 12  1  0  0  0  0
 11 16  1  0  0  0  0
 12 13  1  6  0  0  0
 12 14  1  0  0  0  0
 14 15  1  6  0  0  0
 14 16  1  0  0  0  0
 16 27  1  1  0  0  0
 18 19  2  0  0  0  0
 18 23  1  0  0  0  0
 19 20  1  0  0  0  0
 20 21  2  0  0  0  0
 21 22  1  0  0  0  0
 21 27  1  0  0  0  0
 22 23  2  0  0  0  0
 22 25  1  0  0  0  0
 23 24  1  0  0  0  0
 25 26  2  0  0  0  0
 26 27  1  0  0  0  0
M  END
>  <CHROM.1>
116.87421718,-165.45667566,52.42194075,-115.32005158,32.77680771,125.83340778
31.19022035,1.14698921,-15.73246370,6.57826522,-2.54476189,-0.06688318,-2.26623189

>  <Name>
ligand

>  <RI>
0

>  <Rbt.Current_Directory>
/home/itssahil/PROJECTS/Mol_Feturizer/New_Systems/rnas/3GX5

>  <Rbt.Executable>
rbdock ($Id: //depot/dev/client3/rdock/2013.1/src/exe/rbdock.cxx#4 $)

>  <Rbt.Library>
libRbt.so (2013.1, Build901 2013/11/27)

>  <Rbt.Parameter_File>
/export/apps/rDock/src/rDock_2013.1_src/data/scripts/dock_solv.prm

>  <Rbt.Receptor>
prm/blind_docking_20.prm

>  <SCORE>
1.77927

>  <SCORE.INTER>
-3.65318

>  <SCORE.INTER.CONST>
1

>  <SCORE.INTER.POLAR>
0

>  <SCORE.INTER.ROT>
7

>  <SCORE.INTER.SOLV>
9.77948

>  <SCORE.INTER.VDW>
-13.9619

>  <SCORE.INTER.norm>
-0.135303

>  <SCORE.INTRA>
5.14897

>  <SCORE.INTRA.DIHEDRAL>
9.88289

>  <SCORE.INTRA.DIHEDRAL.0>
4.28829

>  <SCORE.INTRA.POLAR>
0

>  <SCORE.INTRA.POLAR.0>
0

>  <SCORE.INTRA.REPUL>
0

>  <SCORE.INTRA.REPUL.0>
0

>  <SCORE.INTRA.SOLV>
-0.500023

>  <SCORE.INTRA.SOLV.lig_0>
-48.6018

>  <SCORE.INTRA.VDW>
0.457539

>  <SCORE.INTRA.VDW.0>
-2.1506

>  <SCORE.INTRA.norm>
0.190703

>  <SCORE.RESTR>
0.283471

>  <SCORE.RESTR.CAVITY>
0.283471

>  <SCORE.RESTR.norm>
0.0104989

>  <SCORE.SYSTEM>
0

>  <SCORE.SYSTEM.CONST>
0

>  <SCORE.SYSTEM.DIHEDRAL>
0

>  <SCORE.SYSTEM.SOLV>
0

>  <SCORE.SYSTEM.norm>
0

>  <SCORE.heavy>
27

>  <SCORE.norm>
0.0658988

>  <RMSD>
17.400

$$$$
ligand
 OpenBabel11021811483D
libRbt.so/2013.1/901 2013/11/27
 27 29  0  0  0  0  0  0  0  0999 V2000
    2.4327  -15.4052    1.7604 N   0  0  0  0  0  0  0  0  0  0  0  0
    2.9625  -16.7669    1.6654 C   0  0  2  0  0  0  0  0  0  0  0  0
    2.2989  -17.8028    2.5760 C   0  0  0  0  0  0  0  0  0  0  0  0
    1.7810  -18.7952    2.0655 O   0  0  0  0  0  0  0  0  0  0  0  0
    4.4702  -16.7778    1.8545 C   0  0  0  0  0  0  0  0  0  0  0  0
    5.0861  -18.0742    1.3571 C   0  0  0  0  0  0  0  0  0  0  0  0
    5.8734  -18.9653    2.7103 S   0  0  2  0  0  0  0  0  0  0  0  0
    6.6840  -20.2868    1.7852 C   0  0  0  0  0  0  0  0  0  0  0  0
    4.4602  -19.8811    3.3682 C   0  0  0  0  0  0  0  0  0  0  0  0
    4.7617  -20.4192    4.7548 C   0  0  1  0  0  0  0  0  0  0  0  0
    5.8518  -21.3115    4.7149 O   0  0  0  0  0  0  0  0  0  0  0  0
    5.1758  -19.3334    5.7284 C   0  0  1  0  0  0  0  0  0  0  0  0
    4.0299  -18.8881    6.4093 O   0  0  0  0  0  0  0  0  0  0  0  0
    6.1269  -20.0447    6.6695 C   0  0  1  0  0  0  0  0  0  0  0  0
    5.4028  -20.3656    7.8360 O   0  0  0  0  0  0  0  0  0  0  0  0
    6.5664  -21.3150    5.9382 C   0  0  2  0  0  0  0  0  0  0  0  0
    2.2538  -17.6862    3.8037 O   0  0  0  0  0  0  0  0  0  0  0  0
   11.3227  -19.7601    7.4801 N   0  0  0  0  0  0  0  0  0  0  0  0
   10.1415  -19.6762    8.1765 C   0  0  0  0  0  0  0  0  0  0  0  0
    8.9828  -20.1426    7.5955 N   0  0  0  0  0  0  0  0  0  0  0  0
    8.9901  -20.6824    6.3562 C   0  0  0  0  0  0  0  0  0  0  0  0
   10.1775  -20.7866    5.6463 C   0  0  0  0  0  0  0  0  0  0  0  0
   11.3561  -20.3099    6.2163 C   0  0  0  0  0  0  0  0  0  0  0  0
   12.5159  -20.3862    5.5631 N   0  0  0  0  0  0  0  0  0  0  0  0
    9.8994  -21.3674    4.4507 N   0  0  0  0  0  0  0  0  0  0  0  0
    8.5747  -21.6396    4.4104 C   0  0  0  0  0  0  0  0  0  0  0  0
    7.9977  -21.2278    5.5864 N   0  0  0  0  0  0  0  0  0  0  0  0
  2  1  1  1  0  0  0
  2  3  1  0  0  0  0
  2  5  1  0  0  0  0
  3  4  1  0  0  0  0
  3 17  1  0  0  0  0
  5  6  1  0  0  0  0
  7  6  1  6  0  0  0
  7  8  1  0  0  0  0
  7  9  1  0  0  0  0
 10  9  1  6  0  0  0
 10 11  1  0  0  0  0
 10 12  1  0  0  0  0
 11 16  1  0  0  0  0
 12 13  1  1  0  0  0
 12 14  1  0  0  0  0
 14 15  1  1  0  0  0
 14 16  1  0  0  0  0
 16 27  1  6  0  0  0
 18 19  2  0  0  0  0
 18 23  1  0  0  0  0
 19 20  1  0  0  0  0
 20 21  2  0  0  0  0
 21 22  1  0  0  0  0
 21 27  1  0  0  0  0
 22 23  2  0  0  0  0
 22 25  1  0  0  0  0
 23 24  1  0  0  0  0
 25 26  2  0  0  0  0
 26 27  1  0  0  0  0
M  END
>  <CHROM.1>
121.77066978,-162.91872688,-117.42718102,-172.44290441,-164.13141900,-61.29854356
151.99780500,6.38158256,-19.51128152,4.56192653,-2.56357141,-0.22087731,1.86667112

>  <Name>
ligand

>  <RI>
0

>  <Rbt.Current_Directory>
/home/itssahil/PROJECTS/Mol_Feturizer/New_Systems/rnas/3GX5

>  <Rbt.Executable>
rbdock ($Id: //depot/dev/client3/rdock/2013.1/src/exe/rbdock.cxx#4 $)

>  <Rbt.Library>
libRbt.so (2013.1, Build901 2013/11/27)

>  <Rbt.Parameter_File>
/export/apps/rDock/src/rDock_2013.1_src/data/scripts/dock_solv.prm

>  <Rbt.Receptor>
prm/blind_docking_60.prm

>  <SCORE>
-6.01407

>  <SCORE.INTER>
-7.98337

>  <SCORE.INTER.CONST>
1

>  <SCORE.INTER.POLAR>
0

>  <SCORE.INTER.ROT>
7

>  <SCORE.INTER.SOLV>
8.44049

>  <SCORE.INTER.VDW>
-16.4024

>  <SCORE.INTER.norm>
-0.29568

>  <SCORE.INTRA>
1.9693

>  <SCORE.INTRA.DIHEDRAL>
7.98651

>  <SCORE.INTRA.DIHEDRAL.0>
4.28829

>  <SCORE.INTRA.POLAR>
0

>  <SCORE.INTRA.POLAR.0>
0

>  <SCORE.INTRA.REPUL>
0

>  <SCORE.INTRA.REPUL.0>
0

>  <SCORE.INTRA.SOLV>
-0.918674

>  <SCORE.INTRA.SOLV.lig_0>
-48.6018

>  <SCORE.INTRA.VDW>
-1.56462

>  <SCORE.INTRA.VDW.0>
-2.1506

>  <SCORE.INTRA.norm>
0.0729369

>  <SCORE.RESTR>
0

>  <SCORE.RESTR.CAVITY>
0

>  <SCORE.RESTR.norm>
0

>  <SCORE.SYSTEM>
0

>  <SCORE.SYSTEM.CONST>
0

>  <SCORE.SYSTEM.DIHEDRAL>
0

>  <SCORE.SYSTEM.SOLV>
0

>  <SCORE.SYSTEM.norm>
0

>  <SCORE.heavy>
27

>  <SCORE.norm>
-0.222743

>  <RMSD>
17.411

$$$$
ligand
 OpenBabel11021811483D
libRbt.so/2013.1/901 2013/11/27
 27 29  0  0  0  0  0  0  0  0999 V2000
    3.9008  -18.6033    2.2097 N   0  0  0  0  0  0  0  0  0  0  0  0
    5.1666  -18.1015    1.6715 C   0  0  2  0  0  0  0  0  0  0  0  0
    5.5415  -18.6061    0.2759 C   0  0  0  0  0  0  0  0  0  0  0  0
    5.8045  -17.7837   -0.6006 O   0  0  0  0  0  0  0  0  0  0  0  0
    6.3053  -18.3400    2.6489 C   0  0  0  0  0  0  0  0  0  0  0  0
    6.6509  -17.0791    3.4223 C   0  0  0  0  0  0  0  0  0  0  0  0
    5.2673  -16.5672    4.4563 S   0  0  2  0  0  0  0  0  0  0  0  0
    4.2364  -15.7521    3.2186 C   0  0  0  0  0  0  0  0  0  0  0  0
    5.9780  -15.1130    5.2617 C   0  0  0  0  0  0  0  0  0  0  0  0
    5.1931  -14.7463    6.5076 C   0  0  1  0  0  0  0  0  0  0  0  0
    3.8286  -14.5717    6.2013 O   0  0  0  0  0  0  0  0  0  0  0  0
    5.2248  -15.8345    7.5627 C   0  0  1  0  0  0  0  0  0  0  0  0
    6.2880  -15.5681    8.4423 O   0  0  0  0  0  0  0  0  0  0  0  0
    3.8889  -15.6888    8.2627 C   0  0  1  0  0  0  0  0  0  0  0  0
    4.1152  -14.9730    9.4562 O   0  0  0  0  0  0  0  0  0  0  0  0
    3.0026  -14.8849    7.3089 C   0  0  2  0  0  0  0  0  0  0  0  0
    5.5870  -19.8046   -0.0145 O   0  0  0  0  0  0  0  0  0  0  0  0
   -2.0414  -16.2192    7.7514 N   0  0  0  0  0  0  0  0  0  0  0  0
   -1.3523  -15.2761    8.4745 C   0  0  0  0  0  0  0  0  0  0  0  0
   -0.0165  -15.0683    8.2099 N   0  0  0  0  0  0  0  0  0  0  0  0
    0.6243  -15.7735    7.2509 C   0  0  0  0  0  0  0  0  0  0  0  0
   -0.0616  -16.7194    6.5029 C   0  0  0  0  0  0  0  0  0  0  0  0
   -1.4106  -16.9483    6.7658 C   0  0  0  0  0  0  0  0  0  0  0  0
   -2.1024  -17.8535    6.0732 N   0  0  0  0  0  0  0  0  0  0  0  0
    0.8114  -17.2638    5.6165 N   0  0  0  0  0  0  0  0  0  0  0  0
    2.0139  -16.6673    5.7863 C   0  0  0  0  0  0  0  0  0  0  0  0
    1.9133  -15.7361    6.7905 N   0  0  0  0  0  0  0  0  0  0  0  0
  2  1  1  1  0  0  0
  2  3  1  0  0  0  0
  2  5  1  0  0  0  0
  3  4  1  0  0  0  0
  3 17  1  0  0  0  0
  5  6  1  0  0  0  0
  7  6  1  6  0  0  0
  7  8  1  0  0  0  0
  7  9  1  0  0  0  0
 10  9  1  6  0  0  0
 10 11  1  0  0  0  0
 10 12  1  0  0  0  0
 11 16  1  0  0  0  0
 12 13  1  1  0  0  0
 12 14  1  0  0  0  0
 14 15  1  1  0  0  0
 14 16  1  0  0  0  0
 16 27  1  6  0  0  0
 18 19  2  0  0  0  0
 18 23  1  0  0  0  0
 19 20  1  0  0  0  0
 20 21  2  0  0  0  0
 21 22  1  0  0  0  0
 21 27  1  0  0  0  0
 22 23  2  0  0  0  0
 22 25  1  0  0  0  0
 23 24  1  0  0  0  0
 25 26  2  0  0  0  0
 26 27  1  0  0  0  0
M  END
>  <CHROM.1>
126.24259433,-100.77978889,64.03550004,-79.65623536,-161.70084583,-54.84059085
-147.26920064,3.32905988,-16.50691318,5.29764003,0.87170206,-0.16729955,-2.04312476

>  <Name>
ligand

>  <RI>
0

>  <Rbt.Current_Directory>
/home/itssahil/PROJECTS/Mol_Feturizer/New_Systems/rnas/3GX5

>  <Rbt.Executable>
rbdock ($Id: //depot/dev/client3/rdock/2013.1/src/exe/rbdock.cxx#4 $)

>  <Rbt.Library>
libRbt.so (2013.1, Build901 2013/11/27)

>  <Rbt.Parameter_File>
/export/apps/rDock/src/rDock_2013.1_src/data/scripts/dock_solv.prm

>  <Rbt.Receptor>
prm/blind_docking_20.prm

>  <SCORE>
-3.0413

>  <SCORE.INTER>
-7.86476

>  <SCORE.INTER.CONST>
1

>  <SCORE.INTER.POLAR>
0

>  <SCORE.INTER.ROT>
7

>  <SCORE.INTER.SOLV>
12.5713

>  <SCORE.INTER.VDW>
-17.7003

>  <SCORE.INTER.norm>
-0.291287

>  <SCORE.INTRA>
3.72294

>  <SCORE.INTRA.DIHEDRAL>
5.58529

>  <SCORE.INTRA.DIHEDRAL.0>
4.28829

>  <SCORE.INTRA.POLAR>
0

>  <SCORE.INTRA.POLAR.0>
0

>  <SCORE.INTRA.REPUL>
0

>  <SCORE.INTRA.REPUL.0>
0

>  <SCORE.INTRA.SOLV>
1.57329

>  <SCORE.INTRA.SOLV.lig_0>
-48.6018

>  <SCORE.INTRA.VDW>
0.143652

>  <SCORE.INTRA.VDW.0>
-2.1506

>  <SCORE.INTRA.norm>
0.137887

>  <SCORE.RESTR>
1.10052

>  <SCORE.RESTR.CAVITY>
1.10052

>  <SCORE.RESTR.norm>
0.04076

>  <SCORE.SYSTEM>
0

>  <SCORE.SYSTEM.CONST>
0

>  <SCORE.SYSTEM.DIHEDRAL>
0

>  <SCORE.SYSTEM.SOLV>
0

>  <SCORE.SYSTEM.norm>
0

>  <SCORE.heavy>
27

>  <SCORE.norm>
-0.112641

>  <RMSD>
17.418

$$$$
ligand
 OpenBabel11021811483D
libRbt.so/2013.1/901 2013/11/27
 27 29  0  0  0  0  0  0  0  0999 V2000
    1.7674  -18.0178    3.5571 N   0  0  0  0  0  0  0  0  0  0  0  0
    2.7290  -16.9467    3.8251 C   0  0  2  0  0  0  0  0  0  0  0  0
    3.3894  -16.3233    2.5930 C   0  0  0  0  0  0  0  0  0  0  0  0
    3.6368  -15.1181    2.5994 O   0  0  0  0  0  0  0  0  0  0  0  0
    3.7814  -17.3985    4.8237 C   0  0  0  0  0  0  0  0  0  0  0  0
    3.4938  -16.8671    6.2173 C   0  0  0  0  0  0  0  0  0  0  0  0
    3.7341  -15.0828    6.2805 S   0  0  2  0  0  0  0  0  0  0  0  0
    3.7896  -14.8376    8.0682 C   0  0  0  0  0  0  0  0  0  0  0  0
    2.0509  -14.5116    5.9501 C   0  0  0  0  0  0  0  0  0  0  0  0
    1.0355  -15.3599    6.6934 C   0  0  1  0  0  0  0  0  0  0  0  0
    0.9839  -14.9946    8.0535 O   0  0  0  0  0  0  0  0  0  0  0  0
   -0.3778  -15.1686    6.1793 C   0  0  1  0  0  0  0  0  0  0  0  0
   -0.6300  -16.1464    5.2018 O   0  0  0  0  0  0  0  0  0  0  0  0
   -1.2355  -15.3926    7.4082 C   0  0  1  0  0  0  0  0  0  0  0  0
   -1.7336  -16.7099    7.3391 O   0  0  0  0  0  0  0  0  0  0  0  0
   -0.2987  -15.2301    8.6071 C   0  0  2  0  0  0  0  0  0  0  0  0
    3.6816  -16.9747    1.5865 O   0  0  0  0  0  0  0  0  0  0  0  0
   -1.7654  -10.2114    8.3235 N   0  0  0  0  0  0  0  0  0  0  0  0
   -1.5402  -11.0838    7.2864 C   0  0  0  0  0  0  0  0  0  0  0  0
   -1.1550  -12.3766    7.5655 N   0  0  0  0  0  0  0  0  0  0  0  0
   -0.9985  -12.7999    8.8398 C   0  0  0  0  0  0  0  0  0  0  0  0
   -1.2359  -11.9346    9.8979 C   0  0  0  0  0  0  0  0  0  0  0  0
   -1.6160  -10.6209    9.6315 C   0  0  0  0  0  0  0  0  0  0  0  0
   -1.8468   -9.7575   10.6209 N   0  0  0  0  0  0  0  0  0  0  0  0
   -1.0144  -12.6155   11.0518 N   0  0  0  0  0  0  0  0  0  0  0  0
   -0.6627  -13.8828   10.7344 C   0  0  0  0  0  0  0  0  0  0  0  0
   -0.6550  -14.0157    9.3677 N   0  0  0  0  0  0  0  0  0  0  0  0
  2  1  1  6  0  0  0
  2  3  1  0  0  0  0
  2  5  1  0  0  0  0
  3  4  1  0  0  0  0
  3 17  1  0  0  0  0
  5  6  1  0  0  0  0
  7  6  1  1  0  0  0
  7  8  1  0  0  0  0
  7  9  1  0  0  0  0
 10  9  1  6  0  0  0
 10 11  1  0  0  0  0
 10 12  1  0  0  0  0
 11 16  1  0  0  0  0
 12 13  1  6  0  0  0
 12 14  1  0  0  0  0
 14 15  1  6  0  0  0
 14 16  1  0  0  0  0
 16 27  1  1  0  0  0
 18 19  2  0  0  0  0
 18 23  1  0  0  0  0
 19 20  1  0  0  0  0
 20 21  2  0  0  0  0
 21 22  1  0  0  0  0
 21 27  1  0  0  0  0
 22 23  2  0  0  0  0
 22 25  1  0  0  0  0
 23 24  1  0  0  0  0
 25 26  2  0  0  0  0
 26 27  1  0  0  0  0
M  END
>  <CHROM.1>
144.23333746,-101.15342547,-69.19247355,-164.77283661,41.23100495,77.71395592
72.00528022,0.84340076,-14.56466718,6.86222424,0.97636199,-0.33579187,-2.47851051

>  <Name>
ligand

>  <RI>
0

>  <Rbt.Current_Directory>
/home/itssahil/PROJECTS/Mol_Feturizer/New_Systems/rnas/3GX5

>  <Rbt.Executable>
rbdock ($Id: //depot/dev/client3/rdock/2013.1/src/exe/rbdock.cxx#4 $)

>  <Rbt.Library>
libRbt.so (2013.1, Build901 2013/11/27)

>  <Rbt.Parameter_File>
/export/apps/rDock/src/rDock_2013.1_src/data/scripts/dock_solv.prm

>  <Rbt.Receptor>
prm/blind_docking_20.prm

>  <SCORE>
-1.26816

>  <SCORE.INTER>
-5.21779

>  <SCORE.INTER.CONST>
1

>  <SCORE.INTER.POLAR>
0

>  <SCORE.INTER.ROT>
7

>  <SCORE.INTER.SOLV>
11.7618

>  <SCORE.INTER.VDW>
-15.6658

>  <SCORE.INTER.norm>
-0.193252

>  <SCORE.INTRA>
3.68184

>  <SCORE.INTRA.DIHEDRAL>
6.50933

>  <SCORE.INTRA.DIHEDRAL.0>
4.28829

>  <SCORE.INTRA.POLAR>
0

>  <SCORE.INTRA.POLAR.0>
0

>  <SCORE.INTRA.REPUL>
0

>  <SCORE.INTRA.REPUL.0>
0

>  <SCORE.INTRA.SOLV>
1.05418

>  <SCORE.INTRA.SOLV.lig_0>
-48.6018

>  <SCORE.INTRA.VDW>
-0.0999234

>  <SCORE.INTRA.VDW.0>
-2.1506

>  <SCORE.INTRA.norm>
0.136364

>  <SCORE.RESTR>
0.267795

>  <SCORE.RESTR.CAVITY>
0.267795

>  <SCORE.RESTR.norm>
0.00991832

>  <SCORE.SYSTEM>
0

>  <SCORE.SYSTEM.CONST>
0

>  <SCORE.SYSTEM.DIHEDRAL>
0

>  <SCORE.SYSTEM.SOLV>
0

>  <SCORE.SYSTEM.norm>
0

>  <SCORE.heavy>
27

>  <SCORE.norm>
-0.046969

>  <RMSD>
17.431

$$$$
ligand
 OpenBabel11021811483D
libRbt.so/2013.1/901 2013/11/27
 27 29  0  0  0  0  0  0  0  0999 V2000
    1.9329  -18.9719    2.1117 N   0  0  0  0  0  0  0  0  0  0  0  0
    2.5714  -17.6617    2.2510 C   0  0  2  0  0  0  0  0  0  0  0  0
    2.1780  -16.6164    1.2044 C   0  0  0  0  0  0  0  0  0  0  0  0
    2.4343  -16.8369    0.0214 O   0  0  0  0  0  0  0  0  0  0  0  0
    4.0828  -17.7990    2.3264 C   0  0  0  0  0  0  0  0  0  0  0  0
    4.7253  -16.5694    2.9450 C   0  0  0  0  0  0  0  0  0  0  0  0
    4.0061  -16.2192    4.5591 S   0  0  2  0  0  0  0  0  0  0  0  0
    2.6684  -15.1094    4.0716 C   0  0  0  0  0  0  0  0  0  0  0  0
    5.1888  -15.0064    5.1908 C   0  0  0  0  0  0  0  0  0  0  0  0
    4.8093  -14.5581    6.5901 C   0  0  1  0  0  0  0  0  0  0  0  0
    3.4488  -14.1940    6.6430 O   0  0  0  0  0  0  0  0  0  0  0  0
    4.9637  -15.6588    7.6211 C   0  0  1  0  0  0  0  0  0  0  0  0
    6.2439  -15.5552    8.1917 O   0  0  0  0  0  0  0  0  0  0  0  0
    3.8863  -15.3448    8.6392 C   0  0  1  0  0  0  0  0  0  0  0  0
    4.5081  -14.6876    9.7206 O   0  0  0  0  0  0  0  0  0  0  0  0
    2.9019  -14.4111    7.9317 C   0  0  2  0  0  0  0  0  0  0  0  0
    1.6183  -15.5553    1.4932 O   0  0  0  0  0  0  0  0  0  0  0  0
   -2.1004  -14.7723    9.4366 N   0  0  0  0  0  0  0  0  0  0  0  0
   -1.1408  -13.9060    9.9012 C   0  0  0  0  0  0  0  0  0  0  0  0
    0.1317  -13.9664    9.3768 N   0  0  0  0  0  0  0  0  0  0  0  0
    0.4492  -14.8600    8.4133 C   0  0  0  0  0  0  0  0  0  0  0  0
   -0.5128  -15.7318    7.9243 C   0  0  0  0  0  0  0  0  0  0  0  0
   -1.8016  -15.6899    8.4519 C   0  0  0  0  0  0  0  0  0  0  0  0
   -2.7518  -16.5157    8.0130 N   0  0  0  0  0  0  0  0  0  0  0  0
    0.0692  -16.5029    6.9699 N   0  0  0  0  0  0  0  0  0  0  0  0
    1.3606  -16.1189    6.8451 C   0  0  0  0  0  0  0  0  0  0  0  0
    1.6104  -15.0969    7.7275 N   0  0  0  0  0  0  0  0  0  0  0  0
  2  1  1  6  0  0  0
  2  3  1  0  0  0  0
  2  5  1  0  0  0  0
  3  4  1  0  0  0  0
  3 17  1  0  0  0  0
  5  6  1  0  0  0  0
  7  6  1  6  0  0  0
  7  8  1  0  0  0  0
  7  9  1  0  0  0  0
 10  9  1  6  0  0  0
 10 11  1  0  0  0  0
 10 12  1  0  0  0  0
 11 16  1  0  0  0  0
 12 13  1  1  0  0  0
 12 14  1  0  0  0  0
 14 15  1  1  0  0  0
 14 16  1  0  0  0  0
 16 27  1  6  0  0  0
 18 19  2  0  0  0  0
 18 23  1  0  0  0  0
 19 20  1  0  0  0  0
 20 21  2  0  0  0  0
 21 22  1  0  0  0  0
 21 27  1  0  0  0  0
 22 23  2  0  0  0  0
 22 25  1  0  0  0  0
 23 24  1  0  0  0  0
 25 26  2  0  0  0  0
 26 27  1  0  0  0  0
M  END
>  <CHROM.1>
-62.05596466,-159.99983049,54.90168563,-90.80764358,-178.96908012,-49.25048667
-139.63701131,2.29752924,-15.72333484,5.95796182,1.16429733,-0.08903758,-1.88238321

>  <Name>
ligand

>  <RI>
0

>  <Rbt.Current_Directory>
/home/itssahil/PROJECTS/Mol_Feturizer/New_Systems/rnas/3GX5

>  <Rbt.Executable>
rbdock ($Id: //depot/dev/client3/rdock/2013.1/src/exe/rbdock.cxx#4 $)

>  <Rbt.Library>
libRbt.so (2013.1, Build901 2013/11/27)

>  <Rbt.Parameter_File>
/export/apps/rDock/src/rDock_2013.1_src/data/scripts/dock_solv.prm

>  <Rbt.Receptor>
prm/blind_docking_20.prm

>  <SCORE>
-5.73878

>  <SCORE.INTER>
-8.52429

>  <SCORE.INTER.CONST>
1

>  <SCORE.INTER.POLAR>
0

>  <SCORE.INTER.ROT>
7

>  <SCORE.INTER.SOLV>
17.7489

>  <SCORE.INTER.VDW>
-19.8658

>  <SCORE.INTER.norm>
-0.315714

>  <SCORE.INTRA>
2.07568

>  <SCORE.INTRA.DIHEDRAL>
2.40098

>  <SCORE.INTRA.DIHEDRAL.0>
4.28829

>  <SCORE.INTRA.POLAR>
0

>  <SCORE.INTRA.POLAR.0>
0

>  <SCORE.INTRA.REPUL>
0

>  <SCORE.INTRA.REPUL.0>
0

>  <SCORE.INTRA.SOLV>
-0.36079

>  <SCORE.INTRA.SOLV.lig_0>
-48.6018

>  <SCORE.INTRA.VDW>
1.05559

>  <SCORE.INTRA.VDW.0>
-2.1506

>  <SCORE.INTRA.norm>
0.0768771

>  <SCORE.RESTR>
0.709827

>  <SCORE.RESTR.CAVITY>
0.709827

>  <SCORE.RESTR.norm>
0.0262899

>  <SCORE.SYSTEM>
0

>  <SCORE.SYSTEM.CONST>
0

>  <SCORE.SYSTEM.DIHEDRAL>
0

>  <SCORE.SYSTEM.SOLV>
0

>  <SCORE.SYSTEM.norm>
0

>  <SCORE.heavy>
27

>  <SCORE.norm>
-0.212547

>  <RMSD>
17.431

$$$$
ligand
 OpenBabel11021811483D
libRbt.so/2013.1/901 2013/11/27
 27 29  0  0  0  0  0  0  0  0999 V2000
    6.6747  -15.2009    5.1460 N   0  0  0  0  0  0  0  0  0  0  0  0
    5.6102  -15.1435    6.1497 C   0  0  2  0  0  0  0  0  0  0  0  0
    5.9453  -15.7615    7.5093 C   0  0  0  0  0  0  0  0  0  0  0  0
    5.2388  -15.4826    8.4772 O   0  0  0  0  0  0  0  0  0  0  0  0
    4.3166  -15.7243    5.6037 C   0  0  0  0  0  0  0  0  0  0  0  0
    3.7785  -14.8997    4.4470 C   0  0  0  0  0  0  0  0  0  0  0  0
    2.2321  -15.5930    3.8361 S   0  0  2  0  0  0  0  0  0  0  0  0
    1.9149  -14.4787    2.4515 C   0  0  0  0  0  0  0  0  0  0  0  0
    1.0678  -14.9148    5.0415 C   0  0  0  0  0  0  0  0  0  0  0  0
    0.5018  -16.0119    5.9241 C   0  0  1  0  0  0  0  0  0  0  0  0
    0.2129  -15.5146    7.2107 O   0  0  0  0  0  0  0  0  0  0  0  0
   -0.8142  -16.5599    5.4080 C   0  0  1  0  0  0  0  0  0  0  0  0
   -0.5426  -17.6772    4.6000 O   0  0  0  0  0  0  0  0  0  0  0  0
   -1.5487  -16.9654    6.6698 C   0  0  1  0  0  0  0  0  0  0  0  0
   -1.3959  -18.3595    6.8157 O   0  0  0  0  0  0  0  0  0  0  0  0
   -0.8562  -16.2220    7.8139 C   0  0  2  0  0  0  0  0  0  0  0  0
    6.8987  -16.5256    7.6824 O   0  0  0  0  0  0  0  0  0  0  0  0
   -1.2514  -11.4046    9.8276 N   0  0  0  0  0  0  0  0  0  0  0  0
   -0.1247  -12.0289    9.3501 C   0  0  0  0  0  0  0  0  0  0  0  0
   -0.2232  -13.3113    8.8568 N   0  0  0  0  0  0  0  0  0  0  0  0
   -1.4079  -13.9621    8.8327 C   0  0  0  0  0  0  0  0  0  0  0  0
   -2.5569  -13.3396    9.2985 C   0  0  0  0  0  0  0  0  0  0  0  0
   -2.4715  -12.0464    9.8100 C   0  0  0  0  0  0  0  0  0  0  0  0
   -3.5519  -11.4172   10.2731 N   0  0  0  0  0  0  0  0  0  0  0  0
   -3.5911  -14.2071    9.1501 N   0  0  0  0  0  0  0  0  0  0  0  0
   -3.1139  -15.3424    8.5897 C   0  0  0  0  0  0  0  0  0  0  0  0
   -1.7639  -15.2043    8.3800 N   0  0  0  0  0  0  0  0  0  0  0  0
  2  1  1  6  0  0  0
  2  3  1  0  0  0  0
  2  5  1  0  0  0  0
  3  4  1  0  0  0  0
  3 17  1  0  0  0  0
  5  6  1  0  0  0  0
  7  6  1  1  0  0  0
  7  8  1  0  0  0  0
  7  9  1  0  0  0  0
 10  9  1  6  0  0  0
 10 11  1  0  0  0  0
 10 12  1  0  0  0  0
 11 16  1  0  0  0  0
 12 13  1  6  0  0  0
 12 14  1  0  0  0  0
 14 15  1  1  0  0  0
 14 16  1  0  0  0  0
 16 27  1  6  0  0  0
 18 19  2  0  0  0  0
 18 23  1  0  0  0  0
 19 20  1  0  0  0  0
 20 21  2  0  0  0  0
 21 22  1  0  0  0  0
 21 27  1  0  0  0  0
 22 23  2  0  0  0  0
 22 25  1  0  0  0  0
 23 24  1  0  0  0  0
 25 26  2  0  0  0  0
 26 27  1  0  0  0  0
M  END
>  <CHROM.1>
163.39423391,-64.43819235,-179.06833209,-176.96575406,-111.46784427,148.74130590
-28.98491044,0.86177481,-15.03225643,6.93884364,-0.50953818,0.06613528,0.91848130

>  <Name>
ligand

>  <RI>
0

>  <Rbt.Current_Directory>
/home/itssahil/PROJECTS/Mol_Feturizer/New_Systems/rnas/3GX5

>  <Rbt.Executable>
rbdock ($Id: //depot/dev/client3/rdock/2013.1/src/exe/rbdock.cxx#4 $)

>  <Rbt.Library>
libRbt.so (2013.1, Build901 2013/11/27)

>  <Rbt.Parameter_File>
/export/apps/rDock/src/rDock_2013.1_src/data/scripts/dock_solv.prm

>  <Rbt.Receptor>
prm/blind_docking_20.prm

>  <SCORE>
-0.126052

>  <SCORE.INTER>
-2.79618

>  <SCORE.INTER.CONST>
1

>  <SCORE.INTER.POLAR>
0

>  <SCORE.INTER.ROT>
7

>  <SCORE.INTER.SOLV>
11.5662

>  <SCORE.INTER.VDW>
-13.9862

>  <SCORE.INTER.norm>
-0.103562

>  <SCORE.INTRA>
2.37256

>  <SCORE.INTRA.DIHEDRAL>
5.84539

>  <SCORE.INTRA.DIHEDRAL.0>
4.28829

>  <SCORE.INTRA.POLAR>
0

>  <SCORE.INTRA.POLAR.0>
0

>  <SCORE.INTRA.REPUL>
0

>  <SCORE.INTRA.REPUL.0>
0

>  <SCORE.INTRA.SOLV>
-0.529248

>  <SCORE.INTRA.SOLV.lig_0>
-48.6018

>  <SCORE.INTRA.VDW>
-0.28551

>  <SCORE.INTRA.VDW.0>
-2.1506

>  <SCORE.INTRA.norm>
0.0878726

>  <SCORE.RESTR>
0.297568

>  <SCORE.RESTR.CAVITY>
0.297568

>  <SCORE.RESTR.norm>
0.011021

>  <SCORE.SYSTEM>
0

>  <SCORE.SYSTEM.CONST>
0

>  <SCORE.SYSTEM.DIHEDRAL>
0

>  <SCORE.SYSTEM.SOLV>
0

>  <SCORE.SYSTEM.norm>
0

>  <SCORE.heavy>
27

>  <SCORE.norm>
-0.00466858

>  <RMSD>
17.483

$$$$
ligand
 OpenBabel11021811483D
libRbt.so/2013.1/901 2013/11/27
 27 29  0  0  0  0  0  0  0  0999 V2000
    3.2502  -18.6087    2.9118 N   0  0  0  0  0  0  0  0  0  0  0  0
    3.8883  -17.3244    2.6167 C   0  0  2  0  0  0  0  0  0  0  0  0
    3.0546  -16.3431    1.7891 C   0  0  0  0  0  0  0  0  0  0  0  0
    2.2412  -16.7908    0.9819 O   0  0  0  0  0  0  0  0  0  0  0  0
    5.2548  -17.5291    1.9845 C   0  0  0  0  0  0  0  0  0  0  0  0
    6.2830  -17.9765    3.0092 C   0  0  0  0  0  0  0  0  0  0  0  0
    6.7615  -16.6032    4.0723 S   0  0  2  0  0  0  0  0  0  0  0  0
    8.4422  -17.1071    4.4972 C   0  0  0  0  0  0  0  0  0  0  0  0
    5.9141  -17.0600    5.6026 C   0  0  0  0  0  0  0  0  0  0  0  0
    5.0625  -15.9124    6.1133 C   0  0  1  0  0  0  0  0  0  0  0  0
    3.8904  -15.7822    5.3416 O   0  0  0  0  0  0  0  0  0  0  0  0
    4.5781  -16.1277    7.5336 C   0  0  1  0  0  0  0  0  0  0  0  0
    5.4955  -15.5245    8.4109 O   0  0  0  0  0  0  0  0  0  0  0  0
    3.2427  -15.4124    7.5652 C   0  0  1  0  0  0  0  0  0  0  0  0
    3.4526  -14.1564    8.1704 O   0  0  0  0  0  0  0  0  0  0  0  0
    2.8230  -15.2458    6.1032 C   0  0  2  0  0  0  0  0  0  0  0  0
    3.1644  -15.1181    1.8900 O   0  0  0  0  0  0  0  0  0  0  0  0
   -2.0618  -16.4862    7.5238 N   0  0  0  0  0  0  0  0  0  0  0  0
   -1.2330  -15.5464    8.0870 C   0  0  0  0  0  0  0  0  0  0  0  0
    0.0303  -15.3652    7.5682 N   0  0  0  0  0  0  0  0  0  0  0  0
    0.4648  -16.0933    6.5153 C   0  0  0  0  0  0  0  0  0  0  0  0
   -0.3656  -17.0362    5.9272 C   0  0  0  0  0  0  0  0  0  0  0  0
   -1.6425  -17.2382    6.4471 C   0  0  0  0  0  0  0  0  0  0  0  0
   -2.4675  -18.1396    5.9138 N   0  0  0  0  0  0  0  0  0  0  0  0
    0.3131  -17.6067    4.8986 N   0  0  0  0  0  0  0  0  0  0  0  0
    1.5345  -17.0292    4.8257 C   0  0  0  0  0  0  0  0  0  0  0  0
    1.6421  -16.0841    5.8161 N   0  0  0  0  0  0  0  0  0  0  0  0
  2  1  1  6  0  0  0
  2  3  1  0  0  0  0
  2  5  1  0  0  0  0
  3  4  1  0  0  0  0
  3 17  1  0  0  0  0
  5  6  1  0  0  0  0
  7  6  1  6  0  0  0
  7  8  1  0  0  0  0
  7  9  1  0  0  0  0
 10  9  1  6  0  0  0
 10 11  1  0  0  0  0
 10 12  1  0  0  0  0
 11 16  1  0  0  0  0
 12 13  1  1  0  0  0
 12 14  1  0  0  0  0
 14 15  1  6  0  0  0
 14 16  1  0  0  0  0
 16 27  1  1  0  0  0
 18 19  2  0  0  0  0
 18 23  1  0  0  0  0
 19 20  1  0  0  0  0
 20 21  2  0  0  0  0
 21 22  1  0  0  0  0
 21 27  1  0  0  0  0
 22 23  2  0  0  0  0
 22 25  1  0  0  0  0
 23 24  1  0  0  0  0
 25 26  2  0  0  0  0
 26 27  1  0  0  0  0
M  END
>  <CHROM.1>
-29.96768065,-74.58450833,-74.03385334,-151.52472353,-127.64051702,75.24785043
166.69627263,2.98985602,-16.47610008,5.17899566,0.41339208,-0.08231871,-1.87742487

>  <Name>
ligand

>  <RI>
0

>  <Rbt.Current_Directory>
/home/itssahil/PROJECTS/Mol_Feturizer/New_Systems/rnas/3GX5

>  <Rbt.Executable>
rbdock ($Id: //depot/dev/client3/rdock/2013.1/src/exe/rbdock.cxx#4 $)

>  <Rbt.Library>
libRbt.so (2013.1, Build901 2013/11/27)

>  <Rbt.Parameter_File>
/export/apps/rDock/src/rDock_2013.1_src/data/scripts/dock_solv.prm

>  <Rbt.Receptor>
prm/blind_docking_20.prm

>  <SCORE>
-5.56176

>  <SCORE.INTER>
-8.44366

>  <SCORE.INTER.CONST>
1

>  <SCORE.INTER.POLAR>
0

>  <SCORE.INTER.ROT>
7

>  <SCORE.INTER.SOLV>
7.84532

>  <SCORE.INTER.VDW>
-16.5109

>  <SCORE.INTER.norm>
-0.312728

>  <SCORE.INTRA>
2.87383

>  <SCORE.INTRA.DIHEDRAL>
8.74697

>  <SCORE.INTRA.DIHEDRAL.0>
4.28829

>  <SCORE.INTRA.POLAR>
0

>  <SCORE.INTRA.POLAR.0>
0

>  <SCORE.INTRA.REPUL>
0

>  <SCORE.INTRA.REPUL.0>
0

>  <SCORE.INTRA.SOLV>
1.41637

>  <SCORE.INTRA.SOLV.lig_0>
-48.6018

>  <SCORE.INTRA.VDW>
-2.20784

>  <SCORE.INTRA.VDW.0>
-2.1506

>  <SCORE.INTRA.norm>
0.106438

>  <SCORE.RESTR>
0.00807089

>  <SCORE.RESTR.CAVITY>
0.00807089

>  <SCORE.RESTR.norm>
0.000298922

>  <SCORE.SYSTEM>
0

>  <SCORE.SYSTEM.CONST>
0

>  <SCORE.SYSTEM.DIHEDRAL>
0

>  <SCORE.SYSTEM.SOLV>
0

>  <SCORE.SYSTEM.norm>
0

>  <SCORE.heavy>
27

>  <SCORE.norm>
-0.205991

>  <RMSD>
17.509

$$$$
ligand
 OpenBabel11021811483D
libRbt.so/2013.1/901 2013/11/27
 27 29  0  0  0  0  0  0  0  0999 V2000
    6.1645  -13.7772    4.4494 N   0  0  0  0  0  0  0  0  0  0  0  0
    6.5907  -14.6671    5.5311 C   0  0  2  0  0  0  0  0  0  0  0  0
    7.3954  -15.8964    5.1018 C   0  0  0  0  0  0  0  0  0  0  0  0
    8.0342  -15.8490    4.0514 O   0  0  0  0  0  0  0  0  0  0  0  0
    5.4096  -15.0773    6.3946 C   0  0  0  0  0  0  0  0  0  0  0  0
    4.3106  -15.7223    5.5679 C   0  0  0  0  0  0  0  0  0  0  0  0
    3.1821  -16.6499    6.6222 S   0  0  2  0  0  0  0  0  0  0  0  0
    4.1883  -18.1132    6.9466 C   0  0  0  0  0  0  0  0  0  0  0  0
    2.0549  -17.3282    5.3821 C   0  0  0  0  0  0  0  0  0  0  0  0
    0.6941  -17.6179    5.9881 C   0  0  1  0  0  0  0  0  0  0  0  0
    0.4785  -16.8191    7.1290 O   0  0  0  0  0  0  0  0  0  0  0  0
   -0.4492  -17.2835    5.0503 C   0  0  1  0  0  0  0  0  0  0  0  0
   -0.7864  -18.4431    4.3315 O   0  0  0  0  0  0  0  0  0  0  0  0
   -1.5692  -16.8781    5.9870 C   0  0  1  0  0  0  0  0  0  0  0  0
   -2.4290  -17.9877    6.1197 O   0  0  0  0  0  0  0  0  0  0  0  0
   -0.8988  -16.5496    7.3227 C   0  0  2  0  0  0  0  0  0  0  0  0
    7.4293  -16.9396    5.7600 O   0  0  0  0  0  0  0  0  0  0  0  0
   -3.8939  -12.7217    9.2707 N   0  0  0  0  0  0  0  0  0  0  0  0
   -4.1741  -14.0654    9.2144 C   0  0  0  0  0  0  0  0  0  0  0  0
   -3.2510  -14.9230    8.6574 N   0  0  0  0  0  0  0  0  0  0  0  0
   -2.0764  -14.4650    8.1695 C   0  0  0  0  0  0  0  0  0  0  0  0
   -1.7734  -13.1126    8.2319 C   0  0  0  0  0  0  0  0  0  0  0  0
   -2.7012  -12.2313    8.7831 C   0  0  0  0  0  0  0  0  0  0  0  0
   -2.4496  -10.9239    8.8550 N   0  0  0  0  0  0  0  0  0  0  0  0
   -0.5430  -12.9348    7.6855 N   0  0  0  0  0  0  0  0  0  0  0  0
   -0.0714  -14.1438    7.3025 C   0  0  0  0  0  0  0  0  0  0  0  0
   -1.0065  -15.1037    7.6018 N   0  0  0  0  0  0  0  0  0  0  0  0
  2  1  1  6  0  0  0
  2  3  1  0  0  0  0
  2  5  1  0  0  0  0
  3  4  1  0  0  0  0
  3 17  1  0  0  0  0
  5  6  1  0  0  0  0
  7  6  1  6  0  0  0
  7  8  1  0  0  0  0
  7  9  1  0  0  0  0
 10  9  1  6  0  0  0
 10 11  1  0  0  0  0
 10 12  1  0  0  0  0
 11 16  1  0  0  0  0
 12 13  1  1  0  0  0
 12 14  1  0  0  0  0
 14 15  1  1  0  0  0
 14 16  1  0  0  0  0
 16 27  1  6  0  0  0
 18 19  2  0  0  0  0
 18 23  1  0  0  0  0
 19 20  1  0  0  0  0
 20 21  2  0  0  0  0
 21 22  1  0  0  0  0
 21 27  1  0  0  0  0
 22 23  2  0  0  0  0
 22 25  1  0  0  0  0
 23 24  1  0  0  0  0
 25 26  2  0  0  0  0
 26 27  1  0  0  0  0
M  END
>  <CHROM.1>
25.61920381,55.96076173,162.24836837,-76.30434632,-154.44100534,24.07467989
-162.58241807,1.22968835,-15.55462211,6.66291986,-0.30599723,0.20877682,0.39507230

>  <Name>
ligand

>  <RI>
0

>  <Rbt.Current_Directory>
/home/itssahil/PROJECTS/Mol_Feturizer/New_Systems/rnas/3GX5

>  <Rbt.Executable>
rbdock ($Id: //depot/dev/client3/rdock/2013.1/src/exe/rbdock.cxx#4 $)

>  <Rbt.Library>
libRbt.so (2013.1, Build901 2013/11/27)

>  <Rbt.Parameter_File>
/export/apps/rDock/src/rDock_2013.1_src/data/scripts/dock_solv.prm

>  <Rbt.Receptor>
prm/blind_docking_20.prm

>  <SCORE>
0.35112

>  <SCORE.INTER>
-3.53883

>  <SCORE.INTER.CONST>
1

>  <SCORE.INTER.POLAR>
0

>  <SCORE.INTER.ROT>
7

>  <SCORE.INTER.SOLV>
17.2456

>  <SCORE.INTER.VDW>
-16.3744

>  <SCORE.INTER.norm>
-0.131068

>  <SCORE.INTRA>
3.85699

>  <SCORE.INTRA.DIHEDRAL>
6.50541

>  <SCORE.INTRA.DIHEDRAL.0>
4.28829

>  <SCORE.INTRA.POLAR>
0

>  <SCORE.INTRA.POLAR.0>
0

>  <SCORE.INTRA.REPUL>
0

>  <SCORE.INTRA.REPUL.0>
0

>  <SCORE.INTRA.SOLV>
-0.504609

>  <SCORE.INTRA.SOLV.lig_0>
-48.6018

>  <SCORE.INTRA.VDW>
0.856585

>  <SCORE.INTRA.VDW.0>
-2.1506

>  <SCORE.INTRA.norm>
0.142851

>  <SCORE.RESTR>
0.0329577

>  <SCORE.RESTR.CAVITY>
0.0329577

>  <SCORE.RESTR.norm>
0.00122066

>  <SCORE.SYSTEM>
0

>  <SCORE.SYSTEM.CONST>
0

>  <SCORE.SYSTEM.DIHEDRAL>
0

>  <SCORE.SYSTEM.SOLV>
0

>  <SCORE.SYSTEM.norm>
0

>  <SCORE.heavy>
27

>  <SCORE.norm>
0.0130044

>  <RMSD>
17.583

$$$$
ligand
 OpenBabel11021811483D
libRbt.so/2013.1/901 2013/11/27
 27 29  0  0  0  0  0  0  0  0999 V2000
    3.6954  -13.5838    7.6073 N   0  0  0  0  0  0  0  0  0  0  0  0
    4.1924  -14.9433    7.3870 C   0  0  2  0  0  0  0  0  0  0  0  0
    5.6825  -15.0606    7.0577 C   0  0  0  0  0  0  0  0  0  0  0  0
    6.1945  -14.2189    6.3207 O   0  0  0  0  0  0  0  0  0  0  0  0
    3.3567  -15.6648    6.3430 C   0  0  0  0  0  0  0  0  0  0  0  0
    3.3927  -14.9468    5.0049 C   0  0  0  0  0  0  0  0  0  0  0  0
    2.1945  -15.6625    3.8659 S   0  0  2  0  0  0  0  0  0  0  0  0
    2.2254  -14.4193    2.5572 C   0  0  0  0  0  0  0  0  0  0  0  0
    0.6482  -15.2024    4.6820 C   0  0  0  0  0  0  0  0  0  0  0  0
    0.2264  -16.2644    5.6807 C   0  0  1  0  0  0  0  0  0  0  0  0
    0.0372  -15.6982    6.9573 O   0  0  0  0  0  0  0  0  0  0  0  0
   -1.1032  -16.9035    5.3312 C   0  0  1  0  0  0  0  0  0  0  0  0
   -0.8536  -18.0575    4.5690 O   0  0  0  0  0  0  0  0  0  0  0  0
   -1.6916  -17.2590    6.6816 C   0  0  1  0  0  0  0  0  0  0  0  0
   -1.4544  -18.6323    6.8954 O   0  0  0  0  0  0  0  0  0  0  0  0
   -0.9315  -16.4124    7.7048 C   0  0  2  0  0  0  0  0  0  0  0  0
    6.3969  -15.9672    7.4943 O   0  0  0  0  0  0  0  0  0  0  0  0
   -1.3325  -11.5591    9.6292 N   0  0  0  0  0  0  0  0  0  0  0  0
   -0.2182  -12.1693    9.1064 C   0  0  0  0  0  0  0  0  0  0  0  0
   -0.3126  -13.4648    8.6477 N   0  0  0  0  0  0  0  0  0  0  0  0
   -1.4814  -14.1421    8.7010 C   0  0  0  0  0  0  0  0  0  0  0  0
   -2.6184  -13.5345    9.2134 C   0  0  0  0  0  0  0  0  0  0  0  0
   -2.5365  -12.2281    9.6908 C   0  0  0  0  0  0  0  0  0  0  0  0
   -3.6054  -11.6122   10.1966 N   0  0  0  0  0  0  0  0  0  0  0  0
   -3.6385  -14.4279    9.1395 N   0  0  0  0  0  0  0  0  0  0  0  0
   -3.1652  -15.5651    8.5799 C   0  0  0  0  0  0  0  0  0  0  0  0
   -1.8317  -15.4021    8.2956 N   0  0  0  0  0  0  0  0  0  0  0  0
  2  1  1  6  0  0  0
  2  3  1  0  0  0  0
  2  5  1  0  0  0  0
  3  4  1  0  0  0  0
  3 17  1  0  0  0  0
  5  6  1  0  0  0  0
  7  6  1  1  0  0  0
  7  8  1  0  0  0  0
  7  9  1  0  0  0  0
 10  9  1  6  0  0  0
 10 11  1  0  0  0  0
 10 12  1  0  0  0  0
 11 16  1  0  0  0  0
 12 13  1  6  0  0  0
 12 14  1  0  0  0  0
 14 15  1  1  0  0  0
 14 16  1  0  0  0  0
 16 27  1  6  0  0  0
 18 19  2  0  0  0  0
 18 23  1  0  0  0  0
 19 20  1  0  0  0  0
 20 21  2  0  0  0  0
 21 22  1  0  0  0  0
 21 27  1  0  0  0  0
 22 23  2  0  0  0  0
 22 25  1  0  0  0  0
 23 24  1  0  0  0  0
 25 26  2  0  0  0  0
 26 27  1  0  0  0  0
M  END
>  <CHROM.1>
-39.09494356,60.33476771,-170.87165435,168.63124492,-88.86354565,124.90352773
-32.71537514,0.59231916,-15.01628572,6.93741826,-0.45478377,0.20416740,0.78719910

>  <Name>
ligand

>  <RI>
0

>  <Rbt.Current_Directory>
/home/itssahil/PROJECTS/Mol_Feturizer/New_Systems/rnas/3GX5

>  <Rbt.Executable>
rbdock ($Id: //depot/dev/client3/rdock/2013.1/src/exe/rbdock.cxx#4 $)

>  <Rbt.Library>
libRbt.so (2013.1, Build901 2013/11/27)

>  <Rbt.Parameter_File>
/export/apps/rDock/src/rDock_2013.1_src/data/scripts/dock_solv.prm

>  <Rbt.Receptor>
prm/blind_docking_20.prm

>  <SCORE>
-2.88285

>  <SCORE.INTER>
-6.01755

>  <SCORE.INTER.CONST>
1

>  <SCORE.INTER.POLAR>
0

>  <SCORE.INTER.ROT>
7

>  <SCORE.INTER.SOLV>
9.44886

>  <SCORE.INTER.VDW>
-15.428

>  <SCORE.INTER.norm>
-0.222872

>  <SCORE.INTRA>
2.50426

>  <SCORE.INTRA.DIHEDRAL>
5.63025

>  <SCORE.INTRA.DIHEDRAL.0>
4.28829

>  <SCORE.INTRA.POLAR>
0

>  <SCORE.INTRA.POLAR.0>
0

>  <SCORE.INTRA.REPUL>
0

>  <SCORE.INTRA.REPUL.0>
0

>  <SCORE.INTRA.SOLV>
-0.217229

>  <SCORE.INTRA.SOLV.lig_0>
-48.6018

>  <SCORE.INTRA.VDW>
-0.202253

>  <SCORE.INTRA.VDW.0>
-2.1506

>  <SCORE.INTRA.norm>
0.0927504

>  <SCORE.RESTR>
0.630442

>  <SCORE.RESTR.CAVITY>
0.630442

>  <SCORE.RESTR.norm>
0.0233497

>  <SCORE.SYSTEM>
0

>  <SCORE.SYSTEM.CONST>
0

>  <SCORE.SYSTEM.DIHEDRAL>
0

>  <SCORE.SYSTEM.SOLV>
0

>  <SCORE.SYSTEM.norm>
0

>  <SCORE.heavy>
27

>  <SCORE.norm>
-0.106772

>  <RMSD>
17.618

$$$$
ligand
 OpenBabel11021811483D
libRbt.so/2013.1/901 2013/11/27
 27 29  0  0  0  0  0  0  0  0999 V2000
    3.2062  -16.6849    1.4227 N   0  0  0  0  0  0  0  0  0  0  0  0
    4.4299  -17.1969    2.0426 C   0  0  2  0  0  0  0  0  0  0  0  0
    5.4306  -17.8570    1.0908 C   0  0  0  0  0  0  0  0  0  0  0  0
    6.4433  -18.3736    1.5610 O   0  0  0  0  0  0  0  0  0  0  0  0
    4.1050  -18.1236    3.2021 C   0  0  0  0  0  0  0  0  0  0  0  0
    3.2877  -17.4170    4.2698 C   0  0  0  0  0  0  0  0  0  0  0  0
    4.3010  -16.2243    5.1619 S   0  0  2  0  0  0  0  0  0  0  0  0
    4.6791  -17.1820    6.6448 C   0  0  0  0  0  0  0  0  0  0  0  0
    3.0201  -15.1345    5.8255 C   0  0  0  0  0  0  0  0  0  0  0  0
    1.8548  -15.9387    6.3719 C   0  0  1  0  0  0  0  0  0  0  0  0
    1.4553  -15.4426    7.6290 O   0  0  0  0  0  0  0  0  0  0  0  0
    0.6181  -15.8465    5.4999 C   0  0  1  0  0  0  0  0  0  0  0  0
    0.6305  -16.9240    4.5977 O   0  0  0  0  0  0  0  0  0  0  0  0
   -0.5232  -15.9764    6.4882 C   0  0  1  0  0  0  0  0  0  0  0  0
   -0.9777  -17.3099    6.4329 O   0  0  0  0  0  0  0  0  0  0  0  0
    0.0756  -15.6649    7.8615 C   0  0  2  0  0  0  0  0  0  0  0  0
    5.2713  -17.8906   -0.1324 O   0  0  0  0  0  0  0  0  0  0  0  0
   -1.1727  -12.8939   12.1255 N   0  0  0  0  0  0  0  0  0  0  0  0
   -0.6090  -14.1454   12.0686 C   0  0  0  0  0  0  0  0  0  0  0  0
   -0.3546  -14.7141   10.8399 N   0  0  0  0  0  0  0  0  0  0  0  0
   -0.6472  -14.0611    9.6930 C   0  0  0  0  0  0  0  0  0  0  0  0
   -1.2038  -12.7910    9.7345 C   0  0  0  0  0  0  0  0  0  0  0  0
   -1.4766  -12.2066   10.9696 C   0  0  0  0  0  0  0  0  0  0  0  0
   -2.0172  -10.9906   11.0508 N   0  0  0  0  0  0  0  0  0  0  0  0
   -1.3840  -12.3722    8.4553 N   0  0  0  0  0  0  0  0  0  0  0  0
   -0.9380  -13.3433    7.6254 C   0  0  0  0  0  0  0  0  0  0  0  0
   -0.4716  -14.3939    8.3765 N   0  0  0  0  0  0  0  0  0  0  0  0
  2  1  1  6  0  0  0
  2  3  1  0  0  0  0
  2  5  1  0  0  0  0
  3  4  1  0  0  0  0
  3 17  1  0  0  0  0
  5  6  1  0  0  0  0
  7  6  1  6  0  0  0
  7  8  1  0  0  0  0
  7  9  1  0  0  0  0
 10  9  1  6  0  0  0
 10 11  1  0  0  0  0
 10 12  1  0  0  0  0
 11 16  1  0  0  0  0
 12 13  1  6  0  0  0
 12 14  1  0  0  0  0
 14 15  1  1  0  0  0
 14 16  1  0  0  0  0
 16 27  1  6  0  0  0
 18 19  2  0  0  0  0
 18 23  1  0  0  0  0
 19 20  1  0  0  0  0
 20 21  2  0  0  0  0
 21 22  1  0  0  0  0
 21 27  1  0  0  0  0
 22 23  2  0  0  0  0
 22 25  1  0  0  0  0
 23 24  1  0  0  0  0
 25 26  2  0  0  0  0
 26 27  1  0  0  0  0
M  END
>  <CHROM.1>
-175.96411489,-59.07142849,-71.49526394,-99.78659166,43.20569513,134.67990553
-95.71170920,1.58680276,-15.56702053,6.37380205,0.98339152,0.24069429,-1.90928247

>  <Name>
ligand

>  <RI>
0

>  <Rbt.Current_Directory>
/home/itssahil/PROJECTS/Mol_Feturizer/New_Systems/rnas/3GX5

>  <Rbt.Executable>
rbdock ($Id: //depot/dev/client3/rdock/2013.1/src/exe/rbdock.cxx#4 $)

>  <Rbt.Library>
libRbt.so (2013.1, Build901 2013/11/27)

>  <Rbt.Parameter_File>
/export/apps/rDock/src/rDock_2013.1_src/data/scripts/dock_solv.prm

>  <Rbt.Receptor>
prm/blind_docking_20.prm

>  <SCORE>
-2.55802

>  <SCORE.INTER>
-8.1303

>  <SCORE.INTER.CONST>
1

>  <SCORE.INTER.POLAR>
0

>  <SCORE.INTER.ROT>
7

>  <SCORE.INTER.SOLV>
9.18344

>  <SCORE.INTER.VDW>
-16.748

>  <SCORE.INTER.norm>
-0.301122

>  <SCORE.INTRA>
5.52778

>  <SCORE.INTRA.DIHEDRAL>
6.59737

>  <SCORE.INTRA.DIHEDRAL.0>
4.28829

>  <SCORE.INTRA.POLAR>
0

>  <SCORE.INTRA.POLAR.0>
0

>  <SCORE.INTRA.REPUL>
0

>  <SCORE.INTRA.REPUL.0>
0

>  <SCORE.INTRA.SOLV>
0.590985

>  <SCORE.INTRA.SOLV.lig_0>
-48.6018

>  <SCORE.INTRA.VDW>
1.9336

>  <SCORE.INTRA.VDW.0>
-2.1506

>  <SCORE.INTRA.norm>
0.204733

>  <SCORE.RESTR>
0.0445034

>  <SCORE.RESTR.CAVITY>
0.0445034

>  <SCORE.RESTR.norm>
0.00164828

>  <SCORE.SYSTEM>
0

>  <SCORE.SYSTEM.CONST>
0

>  <SCORE.SYSTEM.DIHEDRAL>
0

>  <SCORE.SYSTEM.SOLV>
0

>  <SCORE.SYSTEM.norm>
0

>  <SCORE.heavy>
27

>  <SCORE.norm>
-0.0947413

>  <RMSD>
17.644

$$$$
ligand
 OpenBabel11021811483D
libRbt.so/2013.1/901 2013/11/27
 27 29  0  0  0  0  0  0  0  0999 V2000
    4.8287  -16.3272    1.7983 N   0  0  0  0  0  0  0  0  0  0  0  0
    3.6706  -17.1909    1.5600 C   0  0  2  0  0  0  0  0  0  0  0  0
    2.3683  -16.4714    1.2008 C   0  0  0  0  0  0  0  0  0  0  0  0
    2.0440  -15.4756    1.8465 O   0  0  0  0  0  0  0  0  0  0  0  0
    3.4518  -18.1404    2.7260 C   0  0  0  0  0  0  0  0  0  0  0  0
    4.7620  -18.5065    3.4017 C   0  0  0  0  0  0  0  0  0  0  0  0
    5.3049  -17.1835    4.4972 S   0  0  2  0  0  0  0  0  0  0  0  0
    6.4950  -18.0855    5.5116 C   0  0  0  0  0  0  0  0  0  0  0  0
    3.9139  -17.1188    5.6503 C   0  0  0  0  0  0  0  0  0  0  0  0
    3.9072  -15.8095    6.4176 C   0  0  1  0  0  0  0  0  0  0  0  0
    2.6281  -15.2189    6.3806 O   0  0  0  0  0  0  0  0  0  0  0  0
    4.2158  -15.9910    7.8908 C   0  0  1  0  0  0  0  0  0  0  0  0
    5.5980  -15.8196    8.0784 O   0  0  0  0  0  0  0  0  0  0  0  0
    3.4333  -14.8774    8.5568 C   0  0  1  0  0  0  0  0  0  0  0  0
    4.3384  -13.8306    8.8271 O   0  0  0  0  0  0  0  0  0  0  0  0
    2.3834  -14.4353    7.5352 C   0  0  2  0  0  0  0  0  0  0  0  0
    1.6218  -16.8482    0.2932 O   0  0  0  0  0  0  0  0  0  0  0  0
   -1.9977  -17.1105    6.5023 N   0  0  0  0  0  0  0  0  0  0  0  0
   -0.8511  -17.0471    5.7483 C   0  0  0  0  0  0  0  0  0  0  0  0
    0.2042  -16.2802    6.1907 N   0  0  0  0  0  0  0  0  0  0  0  0
    0.1307  -15.5935    7.3529 C   0  0  0  0  0  0  0  0  0  0  0  0
   -1.0153  -15.6589    8.1320 C   0  0  0  0  0  0  0  0  0  0  0  0
   -2.0951  -16.4221    7.6928 C   0  0  0  0  0  0  0  0  0  0  0  0
   -3.2160  -16.5046    8.4100 N   0  0  0  0  0  0  0  0  0  0  0  0
   -0.8153  -14.8908    9.2339 N   0  0  0  0  0  0  0  0  0  0  0  0
    0.4299  -14.3663    9.1638 C   0  0  0  0  0  0  0  0  0  0  0  0
    1.0323  -14.7977    8.0077 N   0  0  0  0  0  0  0  0  0  0  0  0
  2  1  1  1  0  0  0
  2  3  1  0  0  0  0
  2  5  1  0  0  0  0
  3  4  1  0  0  0  0
  3 17  1  0  0  0  0
  5  6  1  0  0  0  0
  7  6  1  6  0  0  0
  7  8  1  0  0  0  0
  7  9  1  0  0  0  0
 10  9  1  6  0  0  0
 10 11  1  0  0  0  0
 10 12  1  0  0  0  0
 11 16  1  0  0  0  0
 12 13  1  6  0  0  0
 12 14  1  0  0  0  0
 14 15  1  6  0  0  0
 14 16  1  0  0  0  0
 16 27  1  1  0  0  0
 18 19  2  0  0  0  0
 18 23  1  0  0  0  0
 19 20  1  0  0  0  0
 20 21  2  0  0  0  0
 21 22  1  0  0  0  0
 21 27  1  0  0  0  0
 22 23  2  0  0  0  0
 22 25  1  0  0  0  0
 23 24  1  0  0  0  0
 25 26  2  0  0  0  0
 26 27  1  0  0  0  0
M  END
>  <CHROM.1>
-44.49120434,-31.05413124,79.02323758,162.31289103,-162.23104926,130.75951841
-8.12964287,2.34362594,-16.19631716,5.76199372,0.87775287,0.00614697,-1.85586503

>  <Name>
ligand

>  <RI>
0

>  <Rbt.Current_Directory>
/home/itssahil/PROJECTS/Mol_Feturizer/New_Systems/rnas/3GX5

>  <Rbt.Executable>
rbdock ($Id: //depot/dev/client3/rdock/2013.1/src/exe/rbdock.cxx#4 $)

>  <Rbt.Library>
libRbt.so (2013.1, Build901 2013/11/27)

>  <Rbt.Parameter_File>
/export/apps/rDock/src/rDock_2013.1_src/data/scripts/dock_solv.prm

>  <Rbt.Receptor>
prm/blind_docking_20.prm

>  <SCORE>
-1.04422

>  <SCORE.INTER>
-7.9793

>  <SCORE.INTER.CONST>
1

>  <SCORE.INTER.POLAR>
0

>  <SCORE.INTER.ROT>
7

>  <SCORE.INTER.SOLV>
14.3578

>  <SCORE.INTER.VDW>
-18.3721

>  <SCORE.INTER.norm>
-0.29553

>  <SCORE.INTRA>
6.41784

>  <SCORE.INTRA.DIHEDRAL>
9.64418

>  <SCORE.INTRA.DIHEDRAL.0>
4.28829

>  <SCORE.INTRA.POLAR>
0

>  <SCORE.INTRA.POLAR.0>
0

>  <SCORE.INTRA.REPUL>
0

>  <SCORE.INTRA.REPUL.0>
0

>  <SCORE.INTRA.SOLV>
1.79176

>  <SCORE.INTRA.SOLV.lig_0>
-48.6018

>  <SCORE.INTRA.VDW>
0.69987

>  <SCORE.INTRA.VDW.0>
-2.1506

>  <SCORE.INTRA.norm>
0.237698

>  <SCORE.RESTR>
0.517242

>  <SCORE.RESTR.CAVITY>
0.517242

>  <SCORE.RESTR.norm>
0.0191571

>  <SCORE.SYSTEM>
0

>  <SCORE.SYSTEM.CONST>
0

>  <SCORE.SYSTEM.DIHEDRAL>
0

>  <SCORE.SYSTEM.SOLV>
0

>  <SCORE.SYSTEM.norm>
0

>  <SCORE.heavy>
27

>  <SCORE.norm>
-0.0386748

>  <RMSD>
17.651

$$$$
ligand
 OpenBabel11021811483D
libRbt.so/2013.1/901 2013/11/27
 27 29  0  0  0  0  0  0  0  0999 V2000
    5.7777  -18.5855    1.5318 N   0  0  0  0  0  0  0  0  0  0  0  0
    4.3706  -18.3165    1.8340 C   0  0  2  0  0  0  0  0  0  0  0  0
    3.8698  -16.9158    1.4732 C   0  0  0  0  0  0  0  0  0  0  0  0
    2.8699  -16.8085    0.7644 O   0  0  0  0  0  0  0  0  0  0  0  0
    4.0551  -18.6388    3.2850 C   0  0  0  0  0  0  0  0  0  0  0  0
    2.5893  -18.4004    3.6043 C   0  0  0  0  0  0  0  0  0  0  0  0
    2.4064  -17.6438    5.2289 S   0  0  2  0  0  0  0  0  0  0  0  0
    0.7395  -16.9682    5.0736 C   0  0  0  0  0  0  0  0  0  0  0  0
    3.3677  -16.1302    4.9977 C   0  0  0  0  0  0  0  0  0  0  0  0
    3.4377  -15.3312    6.2860 C   0  0  1  0  0  0  0  0  0  0  0  0
    2.2831  -14.5383    6.4419 O   0  0  0  0  0  0  0  0  0  0  0  0
    3.4824  -16.2105    7.5202 C   0  0  1  0  0  0  0  0  0  0  0  0
    4.8283  -16.4282    7.8608 O   0  0  0  0  0  0  0  0  0  0  0  0
    2.7813  -15.3778    8.5744 C   0  0  1  0  0  0  0  0  0  0  0  0
    3.7797  -14.7723    9.3646 O   0  0  0  0  0  0  0  0  0  0  0  0
    1.9816  -14.3214    7.8090 C   0  0  2  0  0  0  0  0  0  0  0  0
    4.4277  -15.8842    1.8570 O   0  0  0  0  0  0  0  0  0  0  0  0
   -2.0218  -14.6912   11.1638 N   0  0  0  0  0  0  0  0  0  0  0  0
   -0.7117  -14.3879   11.4448 C   0  0  0  0  0  0  0  0  0  0  0  0
    0.2038  -14.3395   10.4166 N   0  0  0  0  0  0  0  0  0  0  0  0
   -0.1660  -14.5822    9.1391 C   0  0  0  0  0  0  0  0  0  0  0  0
   -1.4880  -14.8760    8.8380 C   0  0  0  0  0  0  0  0  0  0  0  0
   -2.4237  -14.9388    9.8684 C   0  0  0  0  0  0  0  0  0  0  0  0
   -3.7021  -15.2247    9.6202 N   0  0  0  0  0  0  0  0  0  0  0  0
   -1.5786  -15.0640    7.4961 N   0  0  0  0  0  0  0  0  0  0  0  0
   -0.3509  -14.8776    6.9588 C   0  0  0  0  0  0  0  0  0  0  0  0
    0.5346  -14.5713    7.9627 N   0  0  0  0  0  0  0  0  0  0  0  0
  2  1  1  1  0  0  0
  2  3  1  0  0  0  0
  2  5  1  0  0  0  0
  3  4  1  0  0  0  0
  3 17  1  0  0  0  0
  5  6  1  0  0  0  0
  7  6  1  6  0  0  0
  7  8  1  0  0  0  0
  7  9  1  0  0  0  0
 10  9  1  6  0  0  0
 10 11  1  0  0  0  0
 10 12  1  0  0  0  0
 11 16  1  0  0  0  0
 12 13  1  1  0  0  0
 12 14  1  0  0  0  0
 14 15  1  1  0  0  0
 14 16  1  0  0  0  0
 16 27  1  6  0  0  0
 18 19  2  0  0  0  0
 18 23  1  0  0  0  0
 19 20  1  0  0  0  0
 20 21  2  0  0  0  0
 21 22  1  0  0  0  0
 21 27  1  0  0  0  0
 22 23  2  0  0  0  0
 22 25  1  0  0  0  0
 23 24  1  0  0  0  0
 25 26  2  0  0  0  0
 26 27  1  0  0  0  0
M  END
>  <CHROM.1>
126.46155157,-178.45439371,-139.67501157,160.86430868,-176.66610577,-83.13965691
174.39521352,1.79941696,-15.98572252,6.39480980,-0.99860911,-0.03265600,1.22331278

>  <Name>
ligand

>  <RI>
0

>  <Rbt.Current_Directory>
/home/itssahil/PROJECTS/Mol_Feturizer/New_Systems/rnas/3GX5

>  <Rbt.Executable>
rbdock ($Id: //depot/dev/client3/rdock/2013.1/src/exe/rbdock.cxx#4 $)

>  <Rbt.Library>
libRbt.so (2013.1, Build901 2013/11/27)

>  <Rbt.Parameter_File>
/export/apps/rDock/src/rDock_2013.1_src/data/scripts/dock_solv.prm

>  <Rbt.Receptor>
prm/blind_docking_20.prm

>  <SCORE>
-6.54872

>  <SCORE.INTER>
-9.97462

>  <SCORE.INTER.CONST>
1

>  <SCORE.INTER.POLAR>
0

>  <SCORE.INTER.ROT>
7

>  <SCORE.INTER.SOLV>
9.99489

>  <SCORE.INTER.VDW>
-18.248

>  <SCORE.INTER.norm>
-0.36943

>  <SCORE.INTRA>
3.30456

>  <SCORE.INTRA.DIHEDRAL>
5.76482

>  <SCORE.INTRA.DIHEDRAL.0>
4.28829

>  <SCORE.INTRA.POLAR>
0

>  <SCORE.INTRA.POLAR.0>
0

>  <SCORE.INTRA.REPUL>
0

>  <SCORE.INTRA.REPUL.0>
0

>  <SCORE.INTRA.SOLV>
-1.00918

>  <SCORE.INTRA.SOLV.lig_0>
-48.6018

>  <SCORE.INTRA.VDW>
0.926734

>  <SCORE.INTRA.VDW.0>
-2.1506

>  <SCORE.INTRA.norm>
0.122391

>  <SCORE.RESTR>
0.121339

>  <SCORE.RESTR.CAVITY>
0.121339

>  <SCORE.RESTR.norm>
0.00449405

>  <SCORE.SYSTEM>
0

>  <SCORE.SYSTEM.CONST>
0

>  <SCORE.SYSTEM.DIHEDRAL>
0

>  <SCORE.SYSTEM.SOLV>
0

>  <SCORE.SYSTEM.norm>
0

>  <SCORE.heavy>
27

>  <SCORE.norm>
-0.242545

>  <RMSD>
17.729

$$$$
ligand
 OpenBabel11021811483D
libRbt.so/2013.1/901 2013/11/27
 27 29  0  0  0  0  0  0  0  0999 V2000
    4.9889  -17.1935    1.7249 N   0  0  0  0  0  0  0  0  0  0  0  0
    3.7154  -16.6980    2.2508 C   0  0  2  0  0  0  0  0  0  0  0  0
    2.4703  -17.0834    1.4482 C   0  0  0  0  0  0  0  0  0  0  0  0
    1.7979  -18.0433    1.8224 O   0  0  0  0  0  0  0  0  0  0  0  0
    3.7656  -15.1951    2.4692 C   0  0  0  0  0  0  0  0  0  0  0  0
    4.2674  -14.8494    3.8606 C   0  0  0  0  0  0  0  0  0  0  0  0
    2.9424  -15.0022    5.0715 S   0  0  2  0  0  0  0  0  0  0  0  0
    3.8355  -14.5450    6.5722 C   0  0  0  0  0  0  0  0  0  0  0  0
    2.8953  -16.7970    5.2838 C   0  0  0  0  0  0  0  0  0  0  0  0
    1.6248  -17.2249    5.9949 C   0  0  1  0  0  0  0  0  0  0  0  0
    1.4206  -16.4515    7.1552 O   0  0  0  0  0  0  0  0  0  0  0  0
    0.3814  -17.0114    5.1543 C   0  0  1  0  0  0  0  0  0  0  0  0
    0.1086  -18.2003    4.4564 O   0  0  0  0  0  0  0  0  0  0  0  0
   -0.6954  -16.7227    6.1806 C   0  0  1  0  0  0  0  0  0  0  0  0
   -1.4228  -17.9149    6.3738 O   0  0  0  0  0  0  0  0  0  0  0  0
    0.0430  -16.3253    7.4606 C   0  0  2  0  0  0  0  0  0  0  0  0
    2.1107  -16.4771    0.4353 O   0  0  0  0  0  0  0  0  0  0  0  0
   -0.9114  -12.7730   11.1874 N   0  0  0  0  0  0  0  0  0  0  0  0
   -0.7145  -14.1239   11.3410 C   0  0  0  0  0  0  0  0  0  0  0  0
   -0.4760  -14.9005   10.2284 N   0  0  0  0  0  0  0  0  0  0  0  0
   -0.4300  -14.3555    8.9921 C   0  0  0  0  0  0  0  0  0  0  0  0
   -0.6132  -12.9908    8.8226 C   0  0  0  0  0  0  0  0  0  0  0  0
   -0.8655  -12.1937    9.9371 C   0  0  0  0  0  0  0  0  0  0  0  0
   -1.0534  -10.8794    9.8145 N   0  0  0  0  0  0  0  0  0  0  0  0
   -0.5084  -12.7171    7.4966 N   0  0  0  0  0  0  0  0  0  0  0  0
   -0.2491  -13.8741    6.8449 C   0  0  0  0  0  0  0  0  0  0  0  0
   -0.1902  -14.8980    7.7580 N   0  0  0  0  0  0  0  0  0  0  0  0
  2  1  1  6  0  0  0
  2  3  1  0  0  0  0
  2  5  1  0  0  0  0
  3  4  1  0  0  0  0
  3 17  1  0  0  0  0
  5  6  1  0  0  0  0
  7  6  1  6  0  0  0
  7  8  1  0  0  0  0
  7  9  1  0  0  0  0
 10  9  1  6  0  0  0
 10 11  1  0  0  0  0
 10 12  1  0  0  0  0
 11 16  1  0  0  0  0
 12 13  1  1  0  0  0
 12 14  1  0  0  0  0
 14 15  1  1  0  0  0
 14 16  1  0  0  0  0
 16 27  1  6  0  0  0
 18 19  2  0  0  0  0
 18 23  1  0  0  0  0
 19 20  1  0  0  0  0
 20 21  2  0  0  0  0
 21 22  1  0  0  0  0
 21 27  1  0  0  0  0
 22 23  2  0  0  0  0
 22 25  1  0  0  0  0
 23 24  1  0  0  0  0
 25 26  2  0  0  0  0
 26 27  1  0  0  0  0
M  END
>  <CHROM.1>
98.12819048,-89.15436196,-80.63618299,179.80412111,-165.58725718,-49.30913778
-107.49038432,1.16964062,-15.44009625,6.00614737,-0.99658462,0.68526032,0.74516348

>  <Name>
ligand

>  <RI>
0

>  <Rbt.Current_Directory>
/home/itssahil/PROJECTS/Mol_Feturizer/New_Systems/rnas/3GX5

>  <Rbt.Executable>
rbdock ($Id: //depot/dev/client3/rdock/2013.1/src/exe/rbdock.cxx#4 $)

>  <Rbt.Library>
libRbt.so (2013.1, Build901 2013/11/27)

>  <Rbt.Parameter_File>
/export/apps/rDock/src/rDock_2013.1_src/data/scripts/dock_solv.prm

>  <Rbt.Receptor>
prm/blind_docking_20.prm

>  <SCORE>
-6.77985

>  <SCORE.INTER>
-8.24499

>  <SCORE.INTER.CONST>
1

>  <SCORE.INTER.POLAR>
0

>  <SCORE.INTER.ROT>
7

>  <SCORE.INTER.SOLV>
11.9667

>  <SCORE.INTER.VDW>
-17.7522

>  <SCORE.INTER.norm>
-0.30537

>  <SCORE.INTRA>
1.21151

>  <SCORE.INTRA.DIHEDRAL>
5.34445

>  <SCORE.INTRA.DIHEDRAL.0>
4.28829

>  <SCORE.INTRA.POLAR>
0

>  <SCORE.INTRA.POLAR.0>
0

>  <SCORE.INTRA.REPUL>
0

>  <SCORE.INTRA.REPUL.0>
0

>  <SCORE.INTRA.SOLV>
0.0322704

>  <SCORE.INTRA.SOLV.lig_0>
-48.6018

>  <SCORE.INTRA.VDW>
-1.47685

>  <SCORE.INTRA.VDW.0>
-2.1506

>  <SCORE.INTRA.norm>
0.0448708

>  <SCORE.RESTR>
0.253629

>  <SCORE.RESTR.CAVITY>
0.253629

>  <SCORE.RESTR.norm>
0.00939368

>  <SCORE.SYSTEM>
0

>  <SCORE.SYSTEM.CONST>
0

>  <SCORE.SYSTEM.DIHEDRAL>
0

>  <SCORE.SYSTEM.SOLV>
0

>  <SCORE.SYSTEM.norm>
0

>  <SCORE.heavy>
27

>  <SCORE.norm>
-0.251105

>  <RMSD>
17.746

$$$$
ligand
 OpenBabel11021811483D
libRbt.so/2013.1/901 2013/11/27
 27 29  0  0  0  0  0  0  0  0999 V2000
    5.9416  -15.2846    6.6346 N   0  0  0  0  0  0  0  0  0  0  0  0
    4.5182  -15.2323    6.9739 C   0  0  2  0  0  0  0  0  0  0  0  0
    4.1539  -15.7012    8.3846 C   0  0  0  0  0  0  0  0  0  0  0  0
    4.0117  -16.9059    8.5902 O   0  0  0  0  0  0  0  0  0  0  0  0
    3.6849  -15.9651    5.9359 C   0  0  0  0  0  0  0  0  0  0  0  0
    3.6313  -15.2030    4.6231 C   0  0  0  0  0  0  0  0  0  0  0  0
    2.4820  -15.9867    3.4785 S   0  0  2  0  0  0  0  0  0  0  0  0
    2.6523  -14.8836    2.0595 C   0  0  0  0  0  0  0  0  0  0  0  0
    0.9059  -15.3919    4.1350 C   0  0  0  0  0  0  0  0  0  0  0  0
    0.4221  -16.2785    5.2676 C   0  0  1  0  0  0  0  0  0  0  0  0
    0.7595  -15.7179    6.5158 O   0  0  0  0  0  0  0  0  0  0  0  0
   -1.0867  -16.4244    5.2952 C   0  0  1  0  0  0  0  0  0  0  0  0
   -1.4343  -17.5733    4.5644 O   0  0  0  0  0  0  0  0  0  0  0  0
   -1.3991  -16.5999    6.7675 C   0  0  1  0  0  0  0  0  0  0  0  0
   -1.5847  -17.9787    6.9967 O   0  0  0  0  0  0  0  0  0  0  0  0
   -0.1695  -16.0865    7.5199 C   0  0  2  0  0  0  0  0  0  0  0  0
    3.9900  -14.9237    9.3288 O   0  0  0  0  0  0  0  0  0  0  0  0
   -3.9976  -13.1769    9.5930 N   0  0  0  0  0  0  0  0  0  0  0  0
   -4.1103  -14.3898    8.9580 C   0  0  0  0  0  0  0  0  0  0  0  0
   -2.9764  -15.0047    8.4744 N   0  0  0  0  0  0  0  0  0  0  0  0
   -1.7581  -14.4366    8.6169 C   0  0  0  0  0  0  0  0  0  0  0  0
   -1.6267  -13.2187    9.2682 C   0  0  0  0  0  0  0  0  0  0  0  0
   -2.7655  -12.5794    9.7537 C   0  0  0  0  0  0  0  0  0  0  0  0
   -2.6811  -11.4050   10.3793 N   0  0  0  0  0  0  0  0  0  0  0  0
   -0.3092  -12.8897    9.2765 N   0  0  0  0  0  0  0  0  0  0  0  0
    0.3781  -13.8802    8.6623 C   0  0  0  0  0  0  0  0  0  0  0  0
   -0.5042  -14.8499    8.2539 N   0  0  0  0  0  0  0  0  0  0  0  0
  2  1  1  6  0  0  0
  2  3  1  0  0  0  0
  2  5  1  0  0  0  0
  3  4  1  0  0  0  0
  3 17  1  0  0  0  0
  5  6  1  0  0  0  0
  7  6  1  1  0  0  0
  7  8  1  0  0  0  0
  7  9  1  0  0  0  0
 10  9  1  6  0  0  0
 10 11  1  0  0  0  0
 10 12  1  0  0  0  0
 11 16  1  0  0  0  0
 12 13  1  6  0  0  0
 12 14  1  0  0  0  0
 14 15  1  6  0  0  0
 14 16  1  0  0  0  0
 16 27  1  6  0  0  0
 18 19  2  0  0  0  0
 18 23  1  0  0  0  0
 19 20  1  0  0  0  0
 20 21  2  0  0  0  0
 21 22  1  0  0  0  0
 21 27  1  0  0  0  0
 22 23  2  0  0  0  0
 22 25  1  0  0  0  0
 23 24  1  0  0  0  0
 25 26  2  0  0  0  0
 26 27  1  0  0  0  0
M  END
>  <CHROM.1>
-83.24774294,-71.22322010,-173.18400743,-179.62837005,-84.89693515,97.76076561
134.55679138,0.57427932,-15.20865871,6.96783090,-0.63302951,-0.01845163,1.11509632

>  <Name>
ligand

>  <RI>
0

>  <Rbt.Current_Directory>
/home/itssahil/PROJECTS/Mol_Feturizer/New_Systems/rnas/3GX5

>  <Rbt.Executable>
rbdock ($Id: //depot/dev/client3/rdock/2013.1/src/exe/rbdock.cxx#4 $)

>  <Rbt.Library>
libRbt.so (2013.1, Build901 2013/11/27)

>  <Rbt.Parameter_File>
/export/apps/rDock/src/rDock_2013.1_src/data/scripts/dock_solv.prm

>  <Rbt.Receptor>
prm/blind_docking_20.prm

>  <SCORE>
-6.32804

>  <SCORE.INTER>
-8.03699

>  <SCORE.INTER.CONST>
1

>  <SCORE.INTER.POLAR>
0

>  <SCORE.INTER.ROT>
7

>  <SCORE.INTER.SOLV>
10.4463

>  <SCORE.INTER.VDW>
-17.1068

>  <SCORE.INTER.norm>
-0.297666

>  <SCORE.INTRA>
1.69862

>  <SCORE.INTRA.DIHEDRAL>
4.53115

>  <SCORE.INTRA.DIHEDRAL.0>
4.28829

>  <SCORE.INTRA.POLAR>
0

>  <SCORE.INTRA.POLAR.0>
0

>  <SCORE.INTRA.REPUL>
0

>  <SCORE.INTRA.REPUL.0>
0

>  <SCORE.INTRA.SOLV>
-0.485604

>  <SCORE.INTRA.SOLV.lig_0>
-48.6018

>  <SCORE.INTRA.VDW>
-0.324159

>  <SCORE.INTRA.VDW.0>
-2.1506

>  <SCORE.INTRA.norm>
0.0629117

>  <SCORE.RESTR>
0.0103311

>  <SCORE.RESTR.CAVITY>
0.0103311

>  <SCORE.RESTR.norm>
0.000382634

>  <SCORE.SYSTEM>
0

>  <SCORE.SYSTEM.CONST>
0

>  <SCORE.SYSTEM.DIHEDRAL>
0

>  <SCORE.SYSTEM.SOLV>
0

>  <SCORE.SYSTEM.norm>
0

>  <SCORE.heavy>
27

>  <SCORE.norm>
-0.234372

>  <RMSD>
17.764

$$$$
ligand
 OpenBabel11021811483D
libRbt.so/2013.1/901 2013/11/27
 27 29  0  0  0  0  0  0  0  0999 V2000
    4.8177  -18.1566    6.0016 N   0  0  0  0  0  0  0  0  0  0  0  0
    5.4547  -17.1733    5.1234 C   0  0  2  0  0  0  0  0  0  0  0  0
    6.6019  -16.3727    5.7444 C   0  0  0  0  0  0  0  0  0  0  0  0
    6.7623  -16.4156    6.9635 O   0  0  0  0  0  0  0  0  0  0  0  0
    4.4221  -16.2407    4.5128 C   0  0  0  0  0  0  0  0  0  0  0  0
    3.4400  -16.9942    3.6325 C   0  0  0  0  0  0  0  0  0  0  0  0
    2.1490  -15.8915    3.0304 S   0  0  2  0  0  0  0  0  0  0  0  0
    3.1588  -14.6704    2.1652 C   0  0  0  0  0  0  0  0  0  0  0  0
    1.7790  -14.9634    4.5371 C   0  0  0  0  0  0  0  0  0  0  0  0
    1.2147  -15.8760    5.6103 C   0  0  1  0  0  0  0  0  0  0  0  0
    1.1059  -15.1913    6.8374 O   0  0  0  0  0  0  0  0  0  0  0  0
   -0.1905  -16.3512    5.2973 C   0  0  1  0  0  0  0  0  0  0  0  0
   -0.1028  -17.5844    4.6293 O   0  0  0  0  0  0  0  0  0  0  0  0
   -0.8220  -16.5159    6.6649 C   0  0  1  0  0  0  0  0  0  0  0  0
   -0.7766  -17.8879    6.9866 O   0  0  0  0  0  0  0  0  0  0  0  0
    0.0480  -15.7049    7.6275 C   0  0  2  0  0  0  0  0  0  0  0  0
    7.3738  -15.6785    5.0774 O   0  0  0  0  0  0  0  0  0  0  0  0
   -3.6020  -14.0126   10.9789 N   0  0  0  0  0  0  0  0  0  0  0  0
   -3.1243  -15.2917   10.8279 C   0  0  0  0  0  0  0  0  0  0  0  0
   -2.1551  -15.5413    9.8813 N   0  0  0  0  0  0  0  0  0  0  0  0
   -1.6662  -14.5500    9.1030 C   0  0  0  0  0  0  0  0  0  0  0  0
   -2.1287  -13.2507    9.2534 C   0  0  0  0  0  0  0  0  0  0  0  0
   -3.1163  -12.9843   10.1995 C   0  0  0  0  0  0  0  0  0  0  0  0
   -3.5912  -11.7501   10.3692 N   0  0  0  0  0  0  0  0  0  0  0  0
   -1.4687  -12.4669    8.3622 N   0  0  0  0  0  0  0  0  0  0  0  0
   -0.5992  -13.2449    7.6772 C   0  0  0  0  0  0  0  0  0  0  0  0
   -0.7038  -14.5373    8.1291 N   0  0  0  0  0  0  0  0  0  0  0  0
  2  1  1  1  0  0  0
  2  3  1  0  0  0  0
  2  5  1  0  0  0  0
  3  4  1  0  0  0  0
  3 17  1  0  0  0  0
  5  6  1  0  0  0  0
  7  6  1  1  0  0  0
  7  8  1  0  0  0  0
  7  9  1  0  0  0  0
 10  9  1  6  0  0  0
 10 11  1  0  0  0  0
 10 12  1  0  0  0  0
 11 16  1  0  0  0  0
 12 13  1  1  0  0  0
 12 14  1  0  0  0  0
 14 15  1  1  0  0  0
 14 16  1  0  0  0  0
 16 27  1  6  0  0  0
 18 19  2  0  0  0  0
 18 23  1  0  0  0  0
 19 20  1  0  0  0  0
 20 21  2  0  0  0  0
 21 22  1  0  0  0  0
 21 27  1  0  0  0  0
 22 23  2  0  0  0  0
 22 25  1  0  0  0  0
 23 24  1  0  0  0  0
 25 26  2  0  0  0  0
 26 27  1  0  0  0  0
M  END
>  <CHROM.1>
-12.80612545,-62.70007879,175.35736001,58.54741599,-63.96984621,171.69021781
-168.46921429,1.05889499,-15.45489611,6.60134203,-0.64671846,-0.11259736
1.26352811

>  <Name>
ligand

>  <RI>
0

>  <Rbt.Current_Directory>
/home/itssahil/PROJECTS/Mol_Feturizer/New_Systems/rnas/3GX5

>  <Rbt.Executable>
rbdock ($Id: //depot/dev/client3/rdock/2013.1/src/exe/rbdock.cxx#4 $)

>  <Rbt.Library>
libRbt.so (2013.1, Build901 2013/11/27)

>  <Rbt.Parameter_File>
/export/apps/rDock/src/rDock_2013.1_src/data/scripts/dock_solv.prm

>  <Rbt.Receptor>
prm/blind_docking_20.prm

>  <SCORE>
-1.77855

>  <SCORE.INTER>
-3.4196

>  <SCORE.INTER.CONST>
1

>  <SCORE.INTER.POLAR>
0

>  <SCORE.INTER.ROT>
7

>  <SCORE.INTER.SOLV>
5.6447

>  <SCORE.INTER.VDW>
-12.428

>  <SCORE.INTER.norm>
-0.126652

>  <SCORE.INTRA>
1.63901

>  <SCORE.INTRA.DIHEDRAL>
-0.287392

>  <SCORE.INTRA.DIHEDRAL.0>
4.28829

>  <SCORE.INTRA.POLAR>
0

>  <SCORE.INTRA.POLAR.0>
0

>  <SCORE.INTRA.REPUL>
0

>  <SCORE.INTRA.REPUL.0>
0

>  <SCORE.INTRA.SOLV>
-0.048093

>  <SCORE.INTRA.SOLV.lig_0>
-48.6018

>  <SCORE.INTRA.VDW>
1.80676

>  <SCORE.INTRA.VDW.0>
-2.1506

>  <SCORE.INTRA.norm>
0.0607042

>  <SCORE.RESTR>
0.00203666

>  <SCORE.RESTR.CAVITY>
0.00203666

>  <SCORE.RESTR.norm>
7.5432e-05

>  <SCORE.SYSTEM>
0

>  <SCORE.SYSTEM.CONST>
0

>  <SCORE.SYSTEM.DIHEDRAL>
0

>  <SCORE.SYSTEM.SOLV>
0

>  <SCORE.SYSTEM.norm>
0

>  <SCORE.heavy>
27

>  <SCORE.norm>
-0.0658722

>  <RMSD>
17.765

$$$$
ligand
 OpenBabel11021811483D
libRbt.so/2013.1/901 2013/11/27
 27 29  0  0  0  0  0  0  0  0999 V2000
    3.2433  -18.3616    3.4407 N   0  0  0  0  0  0  0  0  0  0  0  0
    3.7477  -16.9871    3.4549 C   0  0  2  0  0  0  0  0  0  0  0  0
    4.1763  -16.4229    2.0981 C   0  0  0  0  0  0  0  0  0  0  0  0
    3.9787  -15.2316    1.8628 O   0  0  0  0  0  0  0  0  0  0  0  0
    4.8621  -16.8276    4.4754 C   0  0  0  0  0  0  0  0  0  0  0  0
    4.3139  -16.5113    5.8563 C   0  0  0  0  0  0  0  0  0  0  0  0
    3.7435  -14.8045    5.9391 S   0  0  2  0  0  0  0  0  0  0  0  0
    5.1135  -14.0605    6.8494 C   0  0  0  0  0  0  0  0  0  0  0  0
    2.5279  -14.9276    7.2718 C   0  0  0  0  0  0  0  0  0  0  0  0
    1.3251  -15.7427    6.8338 C   0  0  1  0  0  0  0  0  0  0  0  0
    0.4285  -15.9203    7.9065 O   0  0  0  0  0  0  0  0  0  0  0  0
    0.5146  -15.0578    5.7511 C   0  0  1  0  0  0  0  0  0  0  0  0
    0.9753  -15.5068    4.5016 O   0  0  0  0  0  0  0  0  0  0  0  0
   -0.9002  -15.5329    6.0130 C   0  0  1  0  0  0  0  0  0  0  0  0
   -1.1687  -16.5764    5.1036 O   0  0  0  0  0  0  0  0  0  0  0  0
   -0.9067  -16.0534    7.4519 C   0  0  2  0  0  0  0  0  0  0  0  0
    4.7082  -17.1113    1.2229 O   0  0  0  0  0  0  0  0  0  0  0  0
   -1.9316  -11.1192    8.8736 N   0  0  0  0  0  0  0  0  0  0  0  0
   -1.0242  -11.5561    7.9393 C   0  0  0  0  0  0  0  0  0  0  0  0
   -0.8972  -12.9076    7.7045 N   0  0  0  0  0  0  0  0  0  0  0  0
   -1.6511  -13.8076    8.3747 C   0  0  0  0  0  0  0  0  0  0  0  0
   -2.5815  -13.3808    9.3111 C   0  0  0  0  0  0  0  0  0  0  0  0
   -2.7143  -12.0177    9.5672 C   0  0  0  0  0  0  0  0  0  0  0  0
   -3.5924  -11.5687   10.4644 N   0  0  0  0  0  0  0  0  0  0  0  0
   -3.1970  -14.4796    9.8189 N   0  0  0  0  0  0  0  0  0  0  0  0
   -2.6829  -15.5724    9.2089 C   0  0  0  0  0  0  0  0  0  0  0  0
   -1.7287  -15.1729    8.3058 N   0  0  0  0  0  0  0  0  0  0  0  0
  2  1  1  6  0  0  0
  2  3  1  0  0  0  0
  2  5  1  0  0  0  0
  3  4  1  0  0  0  0
  3 17  1  0  0  0  0
  5  6  1  0  0  0  0
  7  6  1  1  0  0  0
  7  8  1  0  0  0  0
  7  9  1  0  0  0  0
 10  9  1  1  0  0  0
 10 11  1  0  0  0  0
 10 12  1  0  0  0  0
 11 16  1  0  0  0  0
 12 13  1  6  0  0  0
 12 14  1  0  0  0  0
 14 15  1  6  0  0  0
 14 16  1  0  0  0  0
 16 27  1  1  0  0  0
 18 19  2  0  0  0  0
 18 23  1  0  0  0  0
 19 20  1  0  0  0  0
 20 21  2  0  0  0  0
 21 22  1  0  0  0  0
 21 27  1  0  0  0  0
 22 23  2  0  0  0  0
 22 25  1  0  0  0  0
 23 24  1  0  0  0  0
 25 26  2  0  0  0  0
 26 27  1  0  0  0  0
M  END
>  <CHROM.1>
144.50648489,-86.59670436,-74.54206006,-103.11456516,-68.52413612,175.57032988
64.65410851,0.92661413,-14.97800036,6.38699220,0.73120859,-0.30789557,-2.41689404

>  <Name>
ligand

>  <RI>
0

>  <Rbt.Current_Directory>
/home/itssahil/PROJECTS/Mol_Feturizer/New_Systems/rnas/3GX5

>  <Rbt.Executable>
rbdock ($Id: //depot/dev/client3/rdock/2013.1/src/exe/rbdock.cxx#4 $)

>  <Rbt.Library>
libRbt.so (2013.1, Build901 2013/11/27)

>  <Rbt.Parameter_File>
/export/apps/rDock/src/rDock_2013.1_src/data/scripts/dock_solv.prm

>  <Rbt.Receptor>
prm/blind_docking_20.prm

>  <SCORE>
-4.82682

>  <SCORE.INTER>
-5.53597

>  <SCORE.INTER.CONST>
1

>  <SCORE.INTER.POLAR>
0

>  <SCORE.INTER.ROT>
7

>  <SCORE.INTER.SOLV>
7.07207

>  <SCORE.INTER.VDW>
-14.3147

>  <SCORE.INTER.norm>
-0.205036

>  <SCORE.INTRA>
0.701855

>  <SCORE.INTRA.DIHEDRAL>
4.84566

>  <SCORE.INTRA.DIHEDRAL.0>
4.28829

>  <SCORE.INTRA.POLAR>
0

>  <SCORE.INTRA.POLAR.0>
0

>  <SCORE.INTRA.REPUL>
0

>  <SCORE.INTRA.REPUL.0>
0

>  <SCORE.INTRA.SOLV>
0.338317

>  <SCORE.INTRA.SOLV.lig_0>
-48.6018

>  <SCORE.INTRA.VDW>
-1.89013

>  <SCORE.INTRA.VDW.0>
-2.1506

>  <SCORE.INTRA.norm>
0.0259946

>  <SCORE.RESTR>
0.00728989

>  <SCORE.RESTR.CAVITY>
0.00728989

>  <SCORE.RESTR.norm>
0.000269996

>  <SCORE.SYSTEM>
0

>  <SCORE.SYSTEM.CONST>
0

>  <SCORE.SYSTEM.DIHEDRAL>
0

>  <SCORE.SYSTEM.SOLV>
0

>  <SCORE.SYSTEM.norm>
0

>  <SCORE.heavy>
27

>  <SCORE.norm>
-0.178771

>  <RMSD>
17.766

$$$$
ligand
 OpenBabel11021811483D
libRbt.so/2013.1/901 2013/11/27
 27 29  0  0  0  0  0  0  0  0999 V2000
    5.0652  -13.9566    6.0605 N   0  0  0  0  0  0  0  0  0  0  0  0
    4.4313  -15.2332    5.7256 C   0  0  2  0  0  0  0  0  0  0  0  0
    4.7026  -16.3845    6.6971 C   0  0  0  0  0  0  0  0  0  0  0  0
    3.7936  -17.1748    6.9477 O   0  0  0  0  0  0  0  0  0  0  0  0
    4.7624  -15.6472    4.3016 C   0  0  0  0  0  0  0  0  0  0  0  0
    3.9694  -16.8713    3.8771 C   0  0  0  0  0  0  0  0  0  0  0  0
    2.3818  -16.3895    3.1752 S   0  0  2  0  0  0  0  0  0  0  0  0
    2.9260  -15.1204    2.0122 C   0  0  0  0  0  0  0  0  0  0  0  0
    1.7440  -15.3334    4.4968 C   0  0  0  0  0  0  0  0  0  0  0  0
    1.2088  -16.1678    5.6459 C   0  0  1  0  0  0  0  0  0  0  0  0
    1.1286  -15.3977    6.8234 O   0  0  0  0  0  0  0  0  0  0  0  0
   -0.2024  -16.6653    5.4025 C   0  0  1  0  0  0  0  0  0  0  0  0
   -0.1281  -17.9429    4.8218 O   0  0  0  0  0  0  0  0  0  0  0  0
   -0.7995  -16.7328    6.7936 C   0  0  1  0  0  0  0  0  0  0  0  0
   -0.7426  -18.0784    7.2108 O   0  0  0  0  0  0  0  0  0  0  0  0
    0.0920  -15.8546    7.6742 C   0  0  2  0  0  0  0  0  0  0  0  0
    5.7937  -16.5549    7.2477 O   0  0  0  0  0  0  0  0  0  0  0  0
   -3.5615  -13.9542   10.9082 N   0  0  0  0  0  0  0  0  0  0  0  0
   -3.0969  -15.2444   10.8262 C   0  0  0  0  0  0  0  0  0  0  0  0
   -2.1243  -15.5524    9.9006 N   0  0  0  0  0  0  0  0  0  0  0  0
   -1.6192  -14.6075    9.0763 C   0  0  0  0  0  0  0  0  0  0  0  0
   -2.0684  -13.2974    9.1567 C   0  0  0  0  0  0  0  0  0  0  0  0
   -3.0592  -12.9723   10.0808 C   0  0  0  0  0  0  0  0  0  0  0  0
   -3.5216  -11.7261   10.1838 N   0  0  0  0  0  0  0  0  0  0  0  0
   -1.3938  -12.5672    8.2315 N   0  0  0  0  0  0  0  0  0  0  0  0
   -0.5283  -13.3885    7.5934 C   0  0  0  0  0  0  0  0  0  0  0  0
   -0.6503  -14.6549    8.1099 N   0  0  0  0  0  0  0  0  0  0  0  0
  2  1  1  1  0  0  0
  2  3  1  0  0  0  0
  2  5  1  0  0  0  0
  3  4  1  0  0  0  0
  3 17  1  0  0  0  0
  5  6  1  0  0  0  0
  7  6  1  1  0  0  0
  7  8  1  0  0  0  0
  7  9  1  0  0  0  0
 10  9  1  6  0  0  0
 10 11  1  0  0  0  0
 10 12  1  0  0  0  0
 11 16  1  0  0  0  0
 12 13  1  1  0  0  0
 12 14  1  0  0  0  0
 14 15  1  1  0  0  0
 14 16  1  0  0  0  0
 16 27  1  6  0  0  0
 18 19  2  0  0  0  0
 18 23  1  0  0  0  0
 19 20  1  0  0  0  0
 20 21  2  0  0  0  0
 21 22  1  0  0  0  0
 21 27  1  0  0  0  0
 22 23  2  0  0  0  0
 22 25  1  0  0  0  0
 23 24  1  0  0  0  0
 25 26  2  0  0  0  0
 26 27  1  0  0  0  0
M  END
>  <CHROM.1>
142.25728400,-172.52423432,88.04368124,48.94782091,-77.65608221,160.54330993
-170.73990748,0.84957490,-15.42712908,6.74999744,-0.70808217,0.16063253,0.97408133

>  <Name>
ligand

>  <RI>
0

>  <Rbt.Current_Directory>
/home/itssahil/PROJECTS/Mol_Feturizer/New_Systems/rnas/3GX5

>  <Rbt.Executable>
rbdock ($Id: //depot/dev/client3/rdock/2013.1/src/exe/rbdock.cxx#4 $)

>  <Rbt.Library>
libRbt.so (2013.1, Build901 2013/11/27)

>  <Rbt.Parameter_File>
/export/apps/rDock/src/rDock_2013.1_src/data/scripts/dock_solv.prm

>  <Rbt.Receptor>
prm/blind_docking_20.prm

>  <SCORE>
-0.324855

>  <SCORE.INTER>
-3.45947

>  <SCORE.INTER.CONST>
1

>  <SCORE.INTER.POLAR>
0

>  <SCORE.INTER.ROT>
7

>  <SCORE.INTER.SOLV>
6.91518

>  <SCORE.INTER.VDW>
-12.878

>  <SCORE.INTER.norm>
-0.128129

>  <SCORE.INTRA>
3.13462

>  <SCORE.INTRA.DIHEDRAL>
3.24891

>  <SCORE.INTRA.DIHEDRAL.0>
4.28829

>  <SCORE.INTRA.POLAR>
0

>  <SCORE.INTRA.POLAR.0>
0

>  <SCORE.INTRA.REPUL>
0

>  <SCORE.INTRA.REPUL.0>
0

>  <SCORE.INTRA.SOLV>
-0.106395

>  <SCORE.INTRA.SOLV.lig_0>
-48.6018

>  <SCORE.INTRA.VDW>
1.56336

>  <SCORE.INTRA.VDW.0>
-2.1506

>  <SCORE.INTRA.norm>
0.116097

>  <SCORE.RESTR>
0

>  <SCORE.RESTR.CAVITY>
0

>  <SCORE.RESTR.norm>
0

>  <SCORE.SYSTEM>
0

>  <SCORE.SYSTEM.CONST>
0

>  <SCORE.SYSTEM.DIHEDRAL>
0

>  <SCORE.SYSTEM.SOLV>
0

>  <SCORE.SYSTEM.norm>
0

>  <SCORE.heavy>
27

>  <SCORE.norm>
-0.0120317

>  <RMSD>
17.768

$$$$
ligand
 OpenBabel11021811483D
libRbt.so/2013.1/901 2013/11/27
 27 29  0  0  0  0  0  0  0  0999 V2000
    6.8857  -17.5177    5.8940 N   0  0  0  0  0  0  0  0  0  0  0  0
    6.2412  -16.6187    4.9348 C   0  0  2  0  0  0  0  0  0  0  0  0
    6.0992  -15.1617    5.3820 C   0  0  0  0  0  0  0  0  0  0  0  0
    5.9093  -14.9237    6.5740 O   0  0  0  0  0  0  0  0  0  0  0  0
    4.8990  -17.1730    4.4876 C   0  0  0  0  0  0  0  0  0  0  0  0
    4.4188  -16.5094    3.2083 C   0  0  0  0  0  0  0  0  0  0  0  0
    2.6871  -16.8989    2.9003 S   0  0  2  0  0  0  0  0  0  0  0  0
    2.4058  -15.9182    1.4110 C   0  0  0  0  0  0  0  0  0  0  0  0
    1.8870  -15.8308    4.1200 C   0  0  0  0  0  0  0  0  0  0  0  0
    1.3329  -16.6465    5.2735 C   0  0  1  0  0  0  0  0  0  0  0  0
    1.3222  -15.8856    6.4597 O   0  0  0  0  0  0  0  0  0  0  0  0
   -0.1089  -17.0629    5.0585 C   0  0  1  0  0  0  0  0  0  0  0  0
   -0.1185  -18.3365    4.4644 O   0  0  0  0  0  0  0  0  0  0  0  0
   -0.6769  -17.1122    6.4624 C   0  0  1  0  0  0  0  0  0  0  0  0
   -0.6850  -18.4632    6.8657 O   0  0  0  0  0  0  0  0  0  0  0  0
    0.2816  -16.2937    7.3301 C   0  0  2  0  0  0  0  0  0  0  0  0
    6.1609  -14.2103    4.5986 O   0  0  0  0  0  0  0  0  0  0  0  0
   -4.0910  -14.2100    9.3192 N   0  0  0  0  0  0  0  0  0  0  0  0
   -3.8430  -15.5292    9.0273 C   0  0  0  0  0  0  0  0  0  0  0  0
   -2.6197  -15.8845    8.5030 N   0  0  0  0  0  0  0  0  0  0  0  0
   -1.6613  -14.9587    8.2746 C   0  0  0  0  0  0  0  0  0  0  0  0
   -1.8921  -13.6246    8.5773 C   0  0  0  0  0  0  0  0  0  0  0  0
   -3.1282  -13.2482    9.0985 C   0  0  0  0  0  0  0  0  0  0  0  0
   -3.3904  -11.9752    9.3960 N   0  0  0  0  0  0  0  0  0  0  0  0
   -0.7723  -12.9248    8.2601 N   0  0  0  0  0  0  0  0  0  0  0  0
    0.1494  -13.7940    7.7851 C   0  0  0  0  0  0  0  0  0  0  0  0
   -0.3831  -15.0597    7.7942 N   0  0  0  0  0  0  0  0  0  0  0  0
  2  1  1  1  0  0  0
  2  3  1  0  0  0  0
  2  5  1  0  0  0  0
  3  4  1  0  0  0  0
  3 17  1  0  0  0  0
  5  6  1  0  0  0  0
  7  6  1  1  0  0  0
  7  8  1  0  0  0  0
  7  9  1  0  0  0  0
 10  9  1  6  0  0  0
 10 11  1  0  0  0  0
 10 12  1  0  0  0  0
 11 16  1  0  0  0  0
 12 13  1  1  0  0  0
 12 14  1  0  0  0  0
 14 15  1  1  0  0  0
 14 16  1  0  0  0  0
 16 27  1  6  0  0  0
 18 19  2  0  0  0  0
 18 23  1  0  0  0  0
 19 20  1  0  0  0  0
 20 21  2  0  0  0  0
 21 22  1  0  0  0  0
 21 27  1  0  0  0  0
 22 23  2  0  0  0  0
 22 25  1  0  0  0  0
 23 24  1  0  0  0  0
 25 26  2  0  0  0  0
 26 27  1  0  0  0  0
M  END
>  <CHROM.1>
-33.69301283,-162.36072638,-167.21308675,177.03838518,-107.23915884,150.97154872
157.18853953,1.17929977,-15.72379211,6.11868410,-0.53077269,0.21684283,0.81045087

>  <Name>
ligand

>  <RI>
0

>  <Rbt.Current_Directory>
/home/itssahil/PROJECTS/Mol_Feturizer/New_Systems/rnas/3GX5

>  <Rbt.Executable>
rbdock ($Id: //depot/dev/client3/rdock/2013.1/src/exe/rbdock.cxx#4 $)

>  <Rbt.Library>
libRbt.so (2013.1, Build901 2013/11/27)

>  <Rbt.Parameter_File>
/export/apps/rDock/src/rDock_2013.1_src/data/scripts/dock_solv.prm

>  <Rbt.Receptor>
prm/blind_docking_20.prm

>  <SCORE>
-4.18211

>  <SCORE.INTER>
-6.5774

>  <SCORE.INTER.CONST>
1

>  <SCORE.INTER.POLAR>
0

>  <SCORE.INTER.ROT>
7

>  <SCORE.INTER.SOLV>
8.41799

>  <SCORE.INTER.VDW>
-15.4576

>  <SCORE.INTER.norm>
-0.243607

>  <SCORE.INTRA>
2.08684

>  <SCORE.INTRA.DIHEDRAL>
6.42583

>  <SCORE.INTRA.DIHEDRAL.0>
4.28829

>  <SCORE.INTRA.POLAR>
0

>  <SCORE.INTRA.POLAR.0>
0

>  <SCORE.INTRA.REPUL>
0

>  <SCORE.INTRA.REPUL.0>
0

>  <SCORE.INTRA.SOLV>
-1.15563

>  <SCORE.INTRA.SOLV.lig_0>
-48.6018

>  <SCORE.INTRA.VDW>
-0.548264

>  <SCORE.INTRA.VDW.0>
-2.1506

>  <SCORE.INTRA.norm>
0.0772903

>  <SCORE.RESTR>
0.308448

>  <SCORE.RESTR.CAVITY>
0.308448

>  <SCORE.RESTR.norm>
0.011424

>  <SCORE.SYSTEM>
0

>  <SCORE.SYSTEM.CONST>
0

>  <SCORE.SYSTEM.DIHEDRAL>
0

>  <SCORE.SYSTEM.SOLV>
0

>  <SCORE.SYSTEM.norm>
0

>  <SCORE.heavy>
27

>  <SCORE.norm>
-0.154893

>  <RMSD>
17.834

$$$$
ligand
 OpenBabel11021811483D
libRbt.so/2013.1/901 2013/11/27
 27 29  0  0  0  0  0  0  0  0999 V2000
    5.6622  -18.2031    2.5983 N   0  0  0  0  0  0  0  0  0  0  0  0
    4.5496  -17.9680    3.5206 C   0  0  2  0  0  0  0  0  0  0  0  0
    3.1769  -17.7779    2.8707 C   0  0  0  0  0  0  0  0  0  0  0  0
    2.2211  -18.4183    3.3067 O   0  0  0  0  0  0  0  0  0  0  0  0
    4.8584  -16.8163    4.4624 C   0  0  0  0  0  0  0  0  0  0  0  0
    3.9119  -16.7968    5.6503 C   0  0  0  0  0  0  0  0  0  0  0  0
    3.9295  -15.1837    6.4520 S   0  0  2  0  0  0  0  0  0  0  0  0
    5.3174  -15.4118    7.5837 C   0  0  0  0  0  0  0  0  0  0  0  0
    2.5581  -15.3781    7.6140 C   0  0  0  0  0  0  0  0  0  0  0  0
    1.3334  -15.9411    6.9167 C   0  0  1  0  0  0  0  0  0  0  0  0
    0.2863  -16.1428    7.8382 O   0  0  0  0  0  0  0  0  0  0  0  0
    0.7659  -14.9977    5.8745 C   0  0  1  0  0  0  0  0  0  0  0  0
    1.3306  -15.3217    4.6290 O   0  0  0  0  0  0  0  0  0  0  0  0
   -0.7190  -15.2991    5.8944 C   0  0  1  0  0  0  0  0  0  0  0  0
   -0.9901  -16.1504    4.8037 O   0  0  0  0  0  0  0  0  0  0  0  0
   -0.9822  -16.0167    7.2200 C   0  0  2  0  0  0  0  0  0  0  0  0
    2.9839  -17.0130    1.9218 O   0  0  0  0  0  0  0  0  0  0  0  0
   -1.8804  -11.1442    8.9144 N   0  0  0  0  0  0  0  0  0  0  0  0
   -0.9647  -11.5552    7.9763 C   0  0  0  0  0  0  0  0  0  0  0  0
   -0.8762  -12.8937    7.6630 N   0  0  0  0  0  0  0  0  0  0  0  0
   -1.6756  -13.8060    8.2599 C   0  0  0  0  0  0  0  0  0  0  0  0
   -2.6146  -13.4044    9.1988 C   0  0  0  0  0  0  0  0  0  0  0  0
   -2.7091  -12.0553    9.5340 C   0  0  0  0  0  0  0  0  0  0  0  0
   -3.5942  -11.6311   10.4364 N   0  0  0  0  0  0  0  0  0  0  0  0
   -3.2781  -14.5100    9.6249 N   0  0  0  0  0  0  0  0  0  0  0  0
   -2.7850  -15.5813    8.9616 C   0  0  0  0  0  0  0  0  0  0  0  0
   -1.7960  -15.1613    8.1066 N   0  0  0  0  0  0  0  0  0  0  0  0
  2  1  1  6  0  0  0
  2  3  1  0  0  0  0
  2  5  1  0  0  0  0
  3  4  1  0  0  0  0
  3 17  1  0  0  0  0
  5  6  1  0  0  0  0
  7  6  1  6  0  0  0
  7  8  1  0  0  0  0
  7  9  1  0  0  0  0
 10  9  1  1  0  0  0
 10 11  1  0  0  0  0
 10 12  1  0  0  0  0
 11 16  1  0  0  0  0
 12 13  1  6  0  0  0
 12 14  1  0  0  0  0
 14 15  1  6  0  0  0
 14 16  1  0  0  0  0
 16 27  1  1  0  0  0
 18 19  2  0  0  0  0
 18 23  1  0  0  0  0
 19 20  1  0  0  0  0
 20 21  2  0  0  0  0
 21 22  1  0  0  0  0
 21 27  1  0  0  0  0
 22 23  2  0  0  0  0
 22 25  1  0  0  0  0
 23 24  1  0  0  0  0
 25 26  2  0  0  0  0
 26 27  1  0  0  0  0
M  END
>  <CHROM.1>
131.29030904,-164.45208877,-161.84348173,-86.78673506,-48.42060171,177.54147239
74.45648273,0.89884236,-15.26757406,6.50108649,0.79072303,-0.01281412,-2.26244626

>  <Name>
ligand

>  <RI>
0

>  <Rbt.Current_Directory>
/home/itssahil/PROJECTS/Mol_Feturizer/New_Systems/rnas/3GX5

>  <Rbt.Executable>
rbdock ($Id: //depot/dev/client3/rdock/2013.1/src/exe/rbdock.cxx#4 $)

>  <Rbt.Library>
libRbt.so (2013.1, Build901 2013/11/27)

>  <Rbt.Parameter_File>
/export/apps/rDock/src/rDock_2013.1_src/data/scripts/dock_solv.prm

>  <Rbt.Receptor>
prm/blind_docking_20.prm

>  <SCORE>
-4.78405

>  <SCORE.INTER>
-5.13034

>  <SCORE.INTER.CONST>
1

>  <SCORE.INTER.POLAR>
0

>  <SCORE.INTER.ROT>
7

>  <SCORE.INTER.SOLV>
8.29748

>  <SCORE.INTER.VDW>
-14.4527

>  <SCORE.INTER.norm>
-0.190013

>  <SCORE.INTRA>
0.331582

>  <SCORE.INTRA.DIHEDRAL>
3.04168

>  <SCORE.INTRA.DIHEDRAL.0>
4.28829

>  <SCORE.INTRA.POLAR>
0

>  <SCORE.INTRA.POLAR.0>
0

>  <SCORE.INTRA.REPUL>
0

>  <SCORE.INTRA.REPUL.0>
0

>  <SCORE.INTRA.SOLV>
-0.708746

>  <SCORE.INTRA.SOLV.lig_0>
-48.6018

>  <SCORE.INTRA.VDW>
-0.834887

>  <SCORE.INTRA.VDW.0>
-2.1506

>  <SCORE.INTRA.norm>
0.0122808

>  <SCORE.RESTR>
0.0147019

>  <SCORE.RESTR.CAVITY>
0.0147019

>  <SCORE.RESTR.norm>
0.000544515

>  <SCORE.SYSTEM>
0

>  <SCORE.SYSTEM.CONST>
0

>  <SCORE.SYSTEM.DIHEDRAL>
0

>  <SCORE.SYSTEM.SOLV>
0

>  <SCORE.SYSTEM.norm>
0

>  <SCORE.heavy>
27

>  <SCORE.norm>
-0.177187

>  <RMSD>
17.889

$$$$
ligand
 OpenBabel11021811483D
libRbt.so/2013.1/901 2013/11/27
 27 29  0  0  0  0  0  0  0  0999 V2000
    5.6665  -16.4582    3.8897 N   0  0  0  0  0  0  0  0  0  0  0  0
    4.7544  -17.5029    3.4203 C   0  0  2  0  0  0  0  0  0  0  0  0
    4.5658  -17.5876    1.9037 C   0  0  0  0  0  0  0  0  0  0  0  0
    5.2426  -18.3936    1.2665 O   0  0  0  0  0  0  0  0  0  0  0  0
    3.4096  -17.4053    4.1208 C   0  0  0  0  0  0  0  0  0  0  0  0
    3.5574  -17.5017    5.6295 C   0  0  0  0  0  0  0  0  0  0  0  0
    4.1449  -15.9417    6.3127 S   0  0  2  0  0  0  0  0  0  0  0  0
    3.9481  -16.2781    8.0754 C   0  0  0  0  0  0  0  0  0  0  0  0
    2.6949  -14.8964    6.0417 C   0  0  0  0  0  0  0  0  0  0  0  0
    1.4141  -15.6752    6.2784 C   0  0  1  0  0  0  0  0  0  0  0  0
    1.0911  -15.6947    7.6500 O   0  0  0  0  0  0  0  0  0  0  0  0
    0.2124  -15.0490    5.5987 C   0  0  1  0  0  0  0  0  0  0  0  0
    0.0593  -15.6425    4.3340 O   0  0  0  0  0  0  0  0  0  0  0  0
   -0.9405  -15.4101    6.5133 C   0  0  1  0  0  0  0  0  0  0  0  0
   -1.5999  -16.5176    5.9417 O   0  0  0  0  0  0  0  0  0  0  0  0
   -0.3077  -15.7894    7.8538 C   0  0  2  0  0  0  0  0  0  0  0  0
    3.7669  -16.8782    1.2862 O   0  0  0  0  0  0  0  0  0  0  0  0
   -3.8323  -12.2683    9.4655 N   0  0  0  0  0  0  0  0  0  0  0  0
   -3.9081  -13.0979    8.3731 C   0  0  0  0  0  0  0  0  0  0  0  0
   -2.8685  -13.9628    8.1109 N   0  0  0  0  0  0  0  0  0  0  0  0
   -1.7796  -14.0101    8.9107 C   0  0  0  0  0  0  0  0  0  0  0  0
   -1.6949  -13.1885   10.0253 C   0  0  0  0  0  0  0  0  0  0  0  0
   -2.7337  -12.3009   10.2979 C   0  0  0  0  0  0  0  0  0  0  0  0
   -2.6863  -11.4905   11.3556 N   0  0  0  0  0  0  0  0  0  0  0  0
   -0.5147  -13.4467   10.6455 N   0  0  0  0  0  0  0  0  0  0  0  0
    0.1238  -14.4177    9.9527 C   0  0  0  0  0  0  0  0  0  0  0  0
   -0.6498  -14.7830    8.8786 N   0  0  0  0  0  0  0  0  0  0  0  0
  2  1  1  6  0  0  0
  2  3  1  0  0  0  0
  2  5  1  0  0  0  0
  3  4  1  0  0  0  0
  3 17  1  0  0  0  0
  5  6  1  0  0  0  0
  7  6  1  6  0  0  0
  7  8  1  0  0  0  0
  7  9  1  0  0  0  0
 10  9  1  1  0  0  0
 10 11  1  0  0  0  0
 10 12  1  0  0  0  0
 11 16  1  0  0  0  0
 12 13  1  6  0  0  0
 12 14  1  0  0  0  0
 14 15  1  6  0  0  0
 14 16  1  0  0  0  0
 16 27  1  1  0  0  0
 18 19  2  0  0  0  0
 18 23  1  0  0  0  0
 19 20  1  0  0  0  0
 20 21  2  0  0  0  0
 21 22  1  0  0  0  0
 21 27  1  0  0  0  0
 22 23  2  0  0  0  0
 22 25  1  0  0  0  0
 23 24  1  0  0  0  0
 25 26  2  0  0  0  0
 26 27  1  0  0  0  0
M  END
>  <CHROM.1>
95.95008523,-57.60446731,77.51438354,170.92132337,37.82364740,83.71408397
142.44434690,1.01939473,-15.34143964,6.62556749,-0.81041687,-0.23446801,1.22105363

>  <Name>
ligand

>  <RI>
0

>  <Rbt.Current_Directory>
/home/itssahil/PROJECTS/Mol_Feturizer/New_Systems/rnas/3GX5

>  <Rbt.Executable>
rbdock ($Id: //depot/dev/client3/rdock/2013.1/src/exe/rbdock.cxx#4 $)

>  <Rbt.Library>
libRbt.so (2013.1, Build901 2013/11/27)

>  <Rbt.Parameter_File>
/export/apps/rDock/src/rDock_2013.1_src/data/scripts/dock_solv.prm

>  <Rbt.Receptor>
prm/blind_docking_20.prm

>  <SCORE>
-0.840801

>  <SCORE.INTER>
-5.04961

>  <SCORE.INTER.CONST>
1

>  <SCORE.INTER.POLAR>
0

>  <SCORE.INTER.ROT>
7

>  <SCORE.INTER.SOLV>
8.86168

>  <SCORE.INTER.VDW>
-14.587

>  <SCORE.INTER.norm>
-0.187022

>  <SCORE.INTRA>
3.93363

>  <SCORE.INTRA.DIHEDRAL>
2.59266

>  <SCORE.INTRA.DIHEDRAL.0>
4.28829

>  <SCORE.INTRA.POLAR>
0

>  <SCORE.INTRA.POLAR.0>
0

>  <SCORE.INTRA.REPUL>
0

>  <SCORE.INTRA.REPUL.0>
0

>  <SCORE.INTRA.SOLV>
1.7075

>  <SCORE.INTRA.SOLV.lig_0>
-48.6018

>  <SCORE.INTRA.VDW>
1.78355

>  <SCORE.INTRA.VDW.0>
-2.1506

>  <SCORE.INTRA.norm>
0.14569

>  <SCORE.RESTR>
0.275174

>  <SCORE.RESTR.CAVITY>
0.275174

>  <SCORE.RESTR.norm>
0.0101916

>  <SCORE.SYSTEM>
0

>  <SCORE.SYSTEM.CONST>
0

>  <SCORE.SYSTEM.DIHEDRAL>
0

>  <SCORE.SYSTEM.SOLV>
0

>  <SCORE.SYSTEM.norm>
0

>  <SCORE.heavy>
27

>  <SCORE.norm>
-0.0311408

>  <RMSD>
17.930

$$$$
ligand
 OpenBabel11021811483D
libRbt.so/2013.1/901 2013/11/27
 27 29  0  0  0  0  0  0  0  0999 V2000
    5.0498  -18.5445    1.7279 N   0  0  0  0  0  0  0  0  0  0  0  0
    4.1021  -18.2208    2.7960 C   0  0  2  0  0  0  0  0  0  0  0  0
    2.6772  -17.8934    2.3431 C   0  0  0  0  0  0  0  0  0  0  0  0
    1.7379  -18.4974    2.8594 O   0  0  0  0  0  0  0  0  0  0  0  0
    4.6453  -17.1174    3.6885 C   0  0  0  0  0  0  0  0  0  0  0  0
    3.9066  -17.0569    5.0144 C   0  0  0  0  0  0  0  0  0  0  0  0
    4.1203  -15.4448    5.7892 S   0  0  2  0  0  0  0  0  0  0  0  0
    5.7690  -15.6526    6.4946 C   0  0  0  0  0  0  0  0  0  0  0  0
    3.1242  -15.6620    7.2823 C   0  0  0  0  0  0  0  0  0  0  0  0
    1.6775  -15.9552    6.9301 C   0  0  1  0  0  0  0  0  0  0  0  0
    0.8339  -15.6769    8.0243 O   0  0  0  0  0  0  0  0  0  0  0  0
    1.1603  -15.0850    5.8015 C   0  0  1  0  0  0  0  0  0  0  0  0
    1.3464  -15.7731    4.5904 O   0  0  0  0  0  0  0  0  0  0  0  0
   -0.3132  -14.9305    6.1196 C   0  0  1  0  0  0  0  0  0  0  0  0
   -1.0168  -15.8427    5.3068 O   0  0  0  0  0  0  0  0  0  0  0  0
   -0.4622  -15.2957    7.5981 C   0  0  2  0  0  0  0  0  0  0  0  0
    2.4253  -17.0520    1.4762 O   0  0  0  0  0  0  0  0  0  0  0  0
   -4.3729  -12.3701    9.4864 N   0  0  0  0  0  0  0  0  0  0  0  0
   -4.4645  -13.5315    8.7584 C   0  0  0  0  0  0  0  0  0  0  0  0
   -3.3104  -14.1607    8.3462 N   0  0  0  0  0  0  0  0  0  0  0  0
   -2.0930  -13.6565    8.6483 C   0  0  0  0  0  0  0  0  0  0  0  0
   -1.9843  -12.4921    9.3945 C   0  0  0  0  0  0  0  0  0  0  0  0
   -3.1426  -11.8385    9.8100 C   0  0  0  0  0  0  0  0  0  0  0  0
   -3.0796  -10.7137   10.5230 N   0  0  0  0  0  0  0  0  0  0  0  0
   -0.6634  -12.2216    9.5561 N   0  0  0  0  0  0  0  0  0  0  0  0
    0.0463  -13.1971    8.9434 C   0  0  0  0  0  0  0  0  0  0  0  0
   -0.8246  -14.0981    8.3820 N   0  0  0  0  0  0  0  0  0  0  0  0
  2  1  1  6  0  0  0
  2  3  1  0  0  0  0
  2  5  1  0  0  0  0
  3  4  1  0  0  0  0
  3 17  1  0  0  0  0
  5  6  1  0  0  0  0
  7  6  1  6  0  0  0
  7  8  1  0  0  0  0
  7  9  1  0  0  0  0
 10  9  1  1  0  0  0
 10 11  1  0  0  0  0
 10 12  1  0  0  0  0
 11 16  1  0  0  0  0
 12 13  1  6  0  0  0
 12 14  1  0  0  0  0
 14 15  1  6  0  0  0
 14 16  1  0  0  0  0
 16 27  1  1  0  0  0
 18 19  2  0  0  0  0
 18 23  1  0  0  0  0
 19 20  1  0  0  0  0
 20 21  2  0  0  0  0
 21 22  1  0  0  0  0
 21 27  1  0  0  0  0
 22 23  2  0  0  0  0
 22 25  1  0  0  0  0
 23 24  1  0  0  0  0
 25 26  2  0  0  0  0
 26 27  1  0  0  0  0
M  END
>  <CHROM.1>
127.69522050,-162.63479933,-159.51634593,-79.43140111,-60.60083782,-159.99137778
-156.39880436,0.86993375,-15.19595106,6.38422331,0.84782849,0.08758129,-2.16340136

>  <Name>
ligand

>  <RI>
0

>  <Rbt.Current_Directory>
/home/itssahil/PROJECTS/Mol_Feturizer/New_Systems/rnas/3GX5

>  <Rbt.Executable>
rbdock ($Id: //depot/dev/client3/rdock/2013.1/src/exe/rbdock.cxx#4 $)

>  <Rbt.Library>
libRbt.so (2013.1, Build901 2013/11/27)

>  <Rbt.Parameter_File>
/export/apps/rDock/src/rDock_2013.1_src/data/scripts/dock_solv.prm

>  <Rbt.Receptor>
prm/blind_docking_20.prm

>  <SCORE>
-4.02178

>  <SCORE.INTER>
-5.546

>  <SCORE.INTER.CONST>
1

>  <SCORE.INTER.POLAR>
0

>  <SCORE.INTER.ROT>
7

>  <SCORE.INTER.SOLV>
9.16686

>  <SCORE.INTER.VDW>
-15.0196

>  <SCORE.INTER.norm>
-0.205407

>  <SCORE.INTRA>
1.52378

>  <SCORE.INTRA.DIHEDRAL>
3.33597

>  <SCORE.INTRA.DIHEDRAL.0>
4.28829

>  <SCORE.INTRA.POLAR>
0

>  <SCORE.INTRA.POLAR.0>
0

>  <SCORE.INTRA.REPUL>
0

>  <SCORE.INTRA.REPUL.0>
0

>  <SCORE.INTRA.SOLV>
-0.614621

>  <SCORE.INTRA.SOLV.lig_0>
-48.6018

>  <SCORE.INTRA.VDW>
0.163106

>  <SCORE.INTRA.VDW.0>
-2.1506

>  <SCORE.INTRA.norm>
0.0564363

>  <SCORE.RESTR>
0.000433678

>  <SCORE.RESTR.CAVITY>
0.000433678

>  <SCORE.RESTR.norm>
1.60622e-05

>  <SCORE.SYSTEM>
0

>  <SCORE.SYSTEM.CONST>
0

>  <SCORE.SYSTEM.DIHEDRAL>
0

>  <SCORE.SYSTEM.SOLV>
0

>  <SCORE.SYSTEM.norm>
0

>  <SCORE.heavy>
27

>  <SCORE.norm>
-0.148955

>  <RMSD>
18.020

$$$$
ligand
 OpenBabel11021811483D
libRbt.so/2013.1/901 2013/11/27
 27 29  0  0  0  0  0  0  0  0999 V2000
    2.9015  -16.8055    0.8188 N   0  0  0  0  0  0  0  0  0  0  0  0
    4.1025  -17.1166    1.5964 C   0  0  2  0  0  0  0  0  0  0  0  0
    5.2482  -17.7670    0.8172 C   0  0  0  0  0  0  0  0  0  0  0  0
    6.1677  -18.2921    1.4437 O   0  0  0  0  0  0  0  0  0  0  0  0
    3.7562  -17.9416    2.8244 C   0  0  0  0  0  0  0  0  0  0  0  0
    4.8157  -17.8072    3.9046 C   0  0  0  0  0  0  0  0  0  0  0  0
    4.7892  -16.1542    4.6202 S   0  0  2  0  0  0  0  0  0  0  0  0
    6.3938  -16.1453    5.4472 C   0  0  0  0  0  0  0  0  0  0  0  0
    3.7156  -16.4304    6.0484 C   0  0  0  0  0  0  0  0  0  0  0  0
    2.2548  -16.4216    5.6374 C   0  0  1  0  0  0  0  0  0  0  0  0
    1.4255  -16.6851    6.7460 O   0  0  0  0  0  0  0  0  0  0  0  0
    1.7999  -15.0728    5.1158 C   0  0  1  0  0  0  0  0  0  0  0  0
    1.9474  -15.0653    3.7182 O   0  0  0  0  0  0  0  0  0  0  0  0
    0.3379  -15.0149    5.5098 C   0  0  1  0  0  0  0  0  0  0  0  0
   -0.4189  -15.3501    4.3684 O   0  0  0  0  0  0  0  0  0  0  0  0
    0.1585  -16.0668    6.6065 C   0  0  2  0  0  0  0  0  0  0  0  0
    5.2961  -17.7847   -0.4158 O   0  0  0  0  0  0  0  0  0  0  0  0
   -3.5164  -14.8898   10.1460 N   0  0  0  0  0  0  0  0  0  0  0  0
   -3.6646  -15.6060    8.9831 C   0  0  0  0  0  0  0  0  0  0  0  0
   -2.5687  -15.8108    8.1741 N   0  0  0  0  0  0  0  0  0  0  0  0
   -1.3529  -15.3223    8.5068 C   0  0  0  0  0  0  0  0  0  0  0  0
   -1.1847  -14.6092    9.6848 C   0  0  0  0  0  0  0  0  0  0  0  0
   -2.2858  -14.3848   10.5085 C   0  0  0  0  0  0  0  0  0  0  0  0
   -2.1659  -13.6985   11.6453 N   0  0  0  0  0  0  0  0  0  0  0  0
    0.1219  -14.2496    9.7722 N   0  0  0  0  0  0  0  0  0  0  0  0
    0.7681  -14.7361    8.6875 C   0  0  0  0  0  0  0  0  0  0  0  0
   -0.1301  -15.4096    7.8968 N   0  0  0  0  0  0  0  0  0  0  0  0
  2  1  1  6  0  0  0
  2  3  1  0  0  0  0
  2  5  1  0  0  0  0
  3  4  1  0  0  0  0
  3 17  1  0  0  0  0
  5  6  1  0  0  0  0
  7  6  1  6  0  0  0
  7  8  1  0  0  0  0
  7  9  1  0  0  0  0
 10  9  1  1  0  0  0
 10 11  1  0  0  0  0
 10 12  1  0  0  0  0
 11 16  1  0  0  0  0
 12 13  1  6  0  0  0
 12 14  1  0  0  0  0
 14 15  1  6  0  0  0
 14 16  1  0  0  0  0
 16 27  1  1  0  0  0
 18 19  2  0  0  0  0
 18 23  1  0  0  0  0
 19 20  1  0  0  0  0
 20 21  2  0  0  0  0
 21 22  1  0  0  0  0
 21 27  1  0  0  0  0
 22 23  2  0  0  0  0
 22 25  1  0  0  0  0
 23 24  1  0  0  0  0
 25 26  2  0  0  0  0
 26 27  1  0  0  0  0
M  END
>  <CHROM.1>
-165.70917745,-157.00800418,69.55786641,-163.84252476,-80.40070222,177.88896998
-142.72627643,1.69230777,-15.99412868,5.70470451,0.85463165,0.08958152,-1.81644340

>  <Name>
ligand

>  <RI>
0

>  <Rbt.Current_Directory>
/home/itssahil/PROJECTS/Mol_Feturizer/New_Systems/rnas/3GX5

>  <Rbt.Executable>
rbdock ($Id: //depot/dev/client3/rdock/2013.1/src/exe/rbdock.cxx#4 $)

>  <Rbt.Library>
libRbt.so (2013.1, Build901 2013/11/27)

>  <Rbt.Parameter_File>
/export/apps/rDock/src/rDock_2013.1_src/data/scripts/dock_solv.prm

>  <Rbt.Receptor>
prm/blind_docking_20.prm

>  <SCORE>
-5.85496

>  <SCORE.INTER>
-7.09992

>  <SCORE.INTER.CONST>
1

>  <SCORE.INTER.POLAR>
0

>  <SCORE.INTER.ROT>
7

>  <SCORE.INTER.SOLV>
10.9522

>  <SCORE.INTER.VDW>
-16.6507

>  <SCORE.INTER.norm>
-0.26296

>  <SCORE.INTRA>
1.22992

>  <SCORE.INTRA.DIHEDRAL>
3.06049

>  <SCORE.INTRA.DIHEDRAL.0>
4.28829

>  <SCORE.INTRA.POLAR>
0

>  <SCORE.INTRA.POLAR.0>
0

>  <SCORE.INTRA.REPUL>
0

>  <SCORE.INTRA.REPUL.0>
0

>  <SCORE.INTRA.SOLV>
0.124217

>  <SCORE.INTRA.SOLV.lig_0>
-48.6018

>  <SCORE.INTRA.VDW>
-0.362431

>  <SCORE.INTRA.VDW.0>
-2.1506

>  <SCORE.INTRA.norm>
0.0455527

>  <SCORE.RESTR>
0.0150418

>  <SCORE.RESTR.CAVITY>
0.0150418

>  <SCORE.RESTR.norm>
0.000557105

>  <SCORE.SYSTEM>
0

>  <SCORE.SYSTEM.CONST>
0

>  <SCORE.SYSTEM.DIHEDRAL>
0

>  <SCORE.SYSTEM.SOLV>
0

>  <SCORE.SYSTEM.norm>
0

>  <SCORE.heavy>
27

>  <SCORE.norm>
-0.21685

>  <RMSD>
18.063

$$$$
