@<TRIPOS>MOLECULE
3GX5_rdock.pdb
 2029 2275 0 0 0
SMALL
GASTEIGER

@<TRIPOS>ATOM
      1  P         -3.5260   -8.2150    7.1530 P.3     1  G1          0.1280
      2  C5'       -5.2240  -10.2180    6.8830 C.3     1  G1          0.1795
      3  O5'       -4.8290   -8.8920    6.5060 O.3     1  G1         -0.3259
      4  C4'       -6.0480  -10.9550    5.8240 C.3     1  G1          0.1772
      5  O4'       -6.7100  -10.0320    4.9090 O.3     1  G1         -0.3307
      6  C3'       -5.2850  -11.9040    4.9050 C.3     1  G1          0.1860
      7  O3'       -5.1510  -13.1730    5.5130 O.3     1  G1         -0.3112
      8  C2'       -6.2250  -11.9930    3.7100 C.3     1  G1          0.2309
      9  O2'       -7.3400  -12.8150    3.9900 O.3     1  G1         -0.2156
     10  C1'       -6.6670  -10.5420    3.5850 C.3     1  G1          0.2408
     11  N1        -4.5720   -9.5270   -0.9560 N.ar    1  G1         -0.1709
     12  C2        -5.4550  -10.5250   -0.6170 C.ar    1  G1          0.2606
     13  N2        -5.8290  -11.3530   -1.6040 N.pl3   1  G1         -0.0859
     14  N3        -5.9420  -10.7010    0.6050 N.ar    1  G1         -0.1918
     15  C4        -5.4590   -9.7800    1.4730 C.ar    1  G1          0.1723
     16  C5        -4.5770   -8.7480    1.2270 C.ar    1  G1          0.1748
     17  C6        -4.0650   -8.5680   -0.0780 C.ar    1  G1          0.3023
     18  O6        -3.2680   -7.6980   -0.4700 O.2     1  G1         -0.2633
     19  N7        -4.3220   -8.0170    2.3770 N.ar    1  G1         -0.2173
     20  C8        -5.0470   -8.6160    3.2790 C.ar    1  G1          0.1817
     21  N9        -5.7640   -9.6920    2.8100 N.ar    1  G1         -0.2693
     22  OP1       -3.9570   -7.2660    8.2030 O.3     1  G1         -0.1955
     23  OP2       -2.6980   -7.7060    6.0390 O.co2   1  G1         -0.7863
     24  P         -3.8140  -14.0320    5.2980 P.3     2  G2          0.2141
     25  C5'       -4.5850  -15.6080    3.3410 C.3     2  G2          0.1812
     26  O5'       -3.8900  -14.4300    3.7410 O.3     2  G2         -0.3114
     27  C4'       -4.5350  -15.8310    1.8400 C.3     2  G2          0.1773
     28  O4'       -4.9620  -14.6160    1.1780 O.3     2  G2         -0.3307
     29  C3'       -3.1700  -16.1200    1.2330 C.3     2  G2          0.1860
     30  O3'       -2.8240  -17.4970    1.3360 O.3     2  G2         -0.3112
     31  C2'       -3.4390  -15.7210   -0.2120 C.3     2  G2          0.2309
     32  O2'       -4.2770  -16.6450   -0.8720 O.3     2  G2         -0.2156
     33  C1'       -4.2120  -14.4280   -0.0050 C.3     2  G2          0.2408
     34  N1        -1.0110  -11.1750   -2.2430 N.ar    2  G2         -0.1709
     35  C2        -1.6580  -12.2740   -2.7710 C.ar    2  G2          0.2606
     36  N2        -1.4290  -12.5510   -4.0620 N.pl3   2  G2         -0.0859
     37  N3        -2.4770  -13.0570   -2.0840 N.ar    2  G2         -0.1918
     38  C4        -2.6000  -12.6410   -0.7980 C.ar    2  G2          0.1723
     39  C5        -2.0000  -11.5610   -0.1780 C.ar    2  G2          0.1748
     40  C6        -1.1280  -10.7310   -0.9240 C.ar    2  G2          0.3023
     41  O6        -0.5060   -9.7270   -0.5430 O.2     2  G2         -0.2633
     42  N7        -2.3870  -11.4840    1.1500 N.ar    2  G2         -0.2173
     43  C8        -3.2010  -12.4960    1.3040 C.ar    2  G2          0.1817
     44  N9        -3.3770  -13.2430    0.1660 N.ar    2  G2         -0.2693
     45  OP1       -3.9690  -15.2730    6.0910 O.3     2  G2         -0.4373
     46  OP2       -2.6360  -13.1540    5.5160 O.co2   2  G2         -0.5172
     47  P         -1.2720  -17.8900    1.3840 P.3     3  C3          0.2141
     48  C5'       -1.2790  -18.5320   -1.1650 C.3     3  C3          0.1812
     49  O5'       -0.8390  -17.6720   -0.1310 O.3     3  C3         -0.3114
     50  C4'       -0.5220  -18.0950   -2.3950 C.3     3  C3          0.1773
     51  O4'       -0.8730  -16.7130   -2.6440 O.3     3  C3         -0.3307
     52  C3'        0.9910  -18.0470   -2.2050 C.3     3  C3          0.1860
     53  O3'        1.5910  -19.3180   -2.4300 O.3     3  C3         -0.3112
     54  C2'        1.3810  -17.0720   -3.2990 C.3     3  C3          0.2309
     55  O2'        1.3090  -17.6720   -4.5720 O.3     3  C3         -0.2156
     56  C1'        0.2550  -16.0520   -3.1930 C.3     3  C3          0.2420
     57  N1         0.6420  -14.8770   -2.3690 N.ar    3  C3         -0.2535
     58  C2         1.3960  -13.8610   -2.9600 C.ar    3  C3          0.3532
     59  O2         1.7160  -13.9680   -4.1460 O.2     3  C3         -0.2443
     60  N3         1.7560  -12.7850   -2.2220 N.ar    3  C3         -0.1739
     61  C4         1.3900  -12.7130   -0.9420 C.ar    3  C3          0.1759
     62  N4         1.7710  -11.6360   -0.2450 N.pl3   3  C3         -0.1070
     63  C5         0.6230  -13.7430   -0.3190 C.ar    3  C3          0.0566
     64  C6         0.2710  -14.7990   -1.0600 C.ar    3  C3          0.0850
     65  OP1       -1.1580  -19.3270    1.7030 O.2     3  C3         -0.5172
     66  OP2       -0.5350  -16.8890    2.1890 O.co2   3  C3         -0.4373
     67  P          2.9730  -19.6840   -1.6990 P.3     4  U4          0.2141
     68  C5'        4.2680  -19.0130   -3.8130 C.3     4  U4          0.1812
     69  O5'        4.0420  -18.7550   -2.4370 O.3     4  U4         -0.3114
     70  C4'        5.2700  -18.0530   -4.4230 C.3     4  U4          0.1773
     71  O4'        4.7420  -16.7060   -4.4440 O.3     4  U4         -0.3307
     72  C3'        6.5710  -17.9110   -3.6640 C.3     4  U4          0.1860
     73  O3'        7.4350  -18.9870   -3.9680 O.3     4  U4         -0.3112
     74  C2'        7.0950  -16.5900   -4.2180 C.3     4  U4          0.2309
     75  O2'        7.6730  -16.7170   -5.5030 O.3     4  U4         -0.2156
     76  C1'        5.8040  -15.7890   -4.2940 C.3     4  U4          0.2420
     77  N1         5.5240  -15.0270   -3.0670 N.ar    4  U4         -0.2534
     78  C2         6.1430  -13.8210   -2.8890 C.ar    4  U4          0.3546
     79  O2         6.9200  -13.3640   -3.7020 O.2     4  U4         -0.2443
     80  N3         5.8200  -13.1730   -1.7300 N.ar    4  U4         -0.1530
     81  C4         4.9470  -13.6070   -0.7520 C.ar    4  U4          0.2846
     82  O4         4.7530  -12.9120    0.2380 O.2     4  U4         -0.2650
     83  C5         4.3330  -14.8800   -1.0110 C.ar    4  U4          0.0814
     84  C6         4.6400  -15.5300   -2.1380 C.ar    4  U4          0.0870
     85  OP1        3.3120  -21.0780   -2.0570 O.2     4  U4         -0.5172
     86  OP2        2.8550  -19.2870   -0.2800 O.co2   4  U4         -0.4373
     87  P          8.4180  -19.5010   -2.8260 P.3     5  U5          0.2141
     88  C5'       10.3250  -17.9040   -3.6020 C.3     5  U5          0.1812
     89  O5'        9.3840  -18.2520   -2.6030 O.3     5  U5         -0.3114
     90  C4'       11.0090  -16.5930   -3.2570 C.3     5  U5          0.1773
     91  O4'        9.9990  -15.5650   -3.0880 O.3     5  U5         -0.3307
     92  C3'       11.7830  -16.5500   -1.9450 C.3     5  U5          0.1860
     93  O3'       13.0780  -17.1160   -2.1100 O.3     5  U5         -0.3112
     94  C2'       11.8240  -15.0400   -1.7160 C.3     5  U5          0.2309
     95  O2'       12.6260  -14.3460   -2.6420 O.3     5  U5         -0.2156
     96  C1'       10.4030  -14.6610   -2.0740 C.3     5  U5          0.2420
     97  N1         9.4220  -14.6930   -0.9580 N.ar    5  U5         -0.2534
     98  C2         9.3180  -13.5760   -0.1650 C.ar    5  U5          0.3546
     99  O2        10.0090  -12.5860   -0.3260 O.2     5  U5         -0.2443
    100  N3         8.3820  -13.6650    0.8280 N.ar    5  U5         -0.1530
    101  C4         7.5590  -14.7450    1.0910 C.ar    5  U5          0.2846
    102  O4         6.7610  -14.6820    2.0250 O.2     5  U5         -0.2650
    103  C5         7.7270  -15.8780    0.2140 C.ar    5  U5          0.0814
    104  C6         8.6330  -15.8080   -0.7630 C.ar    5  U5          0.0870
    105  OP1        9.2320  -20.5890   -3.4020 O.2     5  U5         -0.5172
    106  OP2        7.6090  -19.7310   -1.6060 O.co2   5  U5         -0.4373
    107  P         13.9180  -17.7270   -0.8820 P.3     6  A6          0.2141
    108  C5'       15.4540  -15.6320   -0.7270 C.3     6  A6          0.1812
    109  O5'       14.4080  -16.4020   -0.1420 O.3     6  A6         -0.3114
    110  C4'       15.7990  -14.4120    0.1140 C.3     6  A6          0.1773
    111  O4'       14.6570  -13.5310    0.1050 O.3     6  A6         -0.3307
    112  C3'       16.0660  -14.6480    1.5960 C.3     6  A6          0.1860
    113  O3'       17.4270  -15.0070    1.8040 O.3     6  A6         -0.3112
    114  C2'       15.7760  -13.2610    2.1520 C.3     6  A6          0.2309
    115  O2'       16.8100  -12.3380    1.8710 O.3     6  A6         -0.2156
    116  C1'       14.5450  -12.8700    1.3450 C.3     6  A6          0.2408
    117  N1        10.6370  -11.4860    4.3470 N.ar    6  A6         -0.2040
    118  C2        11.7280  -10.8220    3.9440 C.ar    6  A6          0.2016
    119  N3        12.7150  -11.2450    3.1580 N.ar    6  A6         -0.2048
    120  C4        12.4920  -12.5090    2.7660 C.ar    6  A6          0.1692
    121  C5        11.4200  -13.3120    3.0960 C.ar    6  A6          0.1518
    122  C6        10.4440  -12.7570    3.9370 C.ar    6  A6          0.1919
    123  N6         9.3470  -13.4140    4.3390 N.pl3   6  A6         -0.1054
    124  N7        11.5350  -14.5540    2.5010 N.ar    6  A6         -0.2193
    125  C8        12.6650  -14.4820    1.8350 C.ar    6  A6          0.1816
    126  N9        13.2900  -13.2740    1.9520 N.ar    6  A6         -0.2693
    127  OP1       15.1050  -18.3920   -1.4660 O.2     6  A6         -0.5172
    128  OP2       13.0380  -18.5090    0.0130 O.co2   6  A6         -0.4373
    129  P         17.8610  -15.9730    3.0140 P.3     7  U7          0.2141
    130  C5'       18.2880  -13.7340    4.2970 C.3     7  U7          0.1812
    131  O5'       17.6660  -15.0180    4.2860 O.3     7  U7         -0.3114
    132  C4'       17.9840  -12.9540    5.5670 C.3     7  U7          0.1773
    133  O4'       16.7390  -12.2320    5.4190 O.3     7  U7         -0.3307
    134  C3'       17.8050  -13.7790    6.8350 C.3     7  U7          0.1860
    135  O3'       19.0500  -14.0430    7.4470 O.3     7  U7         -0.3112
    136  C2'       16.9830  -12.8230    7.6900 C.3     7  U7          0.2309
    137  O2'       17.7410  -11.7780    8.2830 O.3     7  U7         -0.2156
    138  C1'       16.0270  -12.2820    6.6390 C.3     7  U7          0.2420
    139  N1        14.8470  -13.1520    6.4450 N.ar    7  U7         -0.2534
    140  C2        13.7270  -12.9050    7.1990 C.ar    7  U7          0.3546
    141  O2        13.6800  -12.0030    8.0170 O.2     7  U7         -0.2443
    142  N3        12.6670  -13.7470    6.9580 N.ar    7  U7         -0.1530
    143  C4        12.6120  -14.7950    6.0550 C.ar    7  U7          0.2846
    144  O4        11.5830  -15.4710    5.9510 O.2     7  U7         -0.2650
    145  C5        13.8300  -14.9920    5.3100 C.ar    7  U7          0.0814
    146  C6        14.8770  -14.1810    5.5280 C.ar    7  U7          0.0870
    147  OP1       19.3120  -16.2230    2.8440 O.2     7  U7         -0.5172
    148  OP2       16.9120  -17.1150    3.0990 O.co2   7  U7         -0.4373
    149  P         19.2800  -15.2950    8.4300 P.3     8  C8          0.2141
    150  C5'       18.7210  -13.7330   10.4470 C.3     8  C8          0.1812
    151  O5'       18.4250  -14.9290    9.7340 O.3     8  C8         -0.3114
    152  C4'       17.6910  -13.4530   11.5230 C.3     8  C8          0.1773
    153  O4'       16.4420  -13.0940   10.8910 O.3     8  C8         -0.3307
    154  C3'       17.3290  -14.6230   12.4160 C.3     8  C8          0.1860
    155  O3'       18.2590  -14.7260   13.4840 O.3     8  C8         -0.3112
    156  C2'       16.0000  -14.1170   12.9440 C.3     8  C8          0.2309
    157  O2'       16.2070  -13.0360   13.8250 O.3     8  C8         -0.2156
    158  C1'       15.3620  -13.5650   11.6770 C.3     8  C8          0.2420
    159  N1        14.5130  -14.5330   10.9010 N.ar    8  C8         -0.2535
    160  C2        13.1650  -14.6290   11.2250 C.ar    8  C8          0.3532
    161  O2        12.7410  -13.9140   12.1300 O.2     8  C8         -0.2443
    162  N3        12.3670  -15.4860   10.5440 N.ar    8  C8         -0.1739
    163  C4        12.8810  -16.2330    9.5670 C.ar    8  C8          0.1759
    164  N4        12.0560  -17.0590    8.9190 N.pl3   8  C8         -0.1070
    165  C5        14.2580  -16.1600    9.2130 C.ar    8  C8          0.0566
    166  C6        15.0300  -15.3040    9.8980 C.ar    8  C8          0.0850
    167  OP1       20.7240  -15.2380    8.7480 O.3     8  C8         -0.4373
    168  OP2       18.7010  -16.5300    7.8520 O.co2   8  C8         -0.5172
    169  P         18.8070  -16.1610   13.9380 P.3     9  A9          0.2141
    170  C5'       19.1070  -15.7900   16.5010 C.3     9  A9          0.1812
    171  O5'       19.6840  -15.7640   15.2110 O.3     9  A9         -0.3114
    172  C4'       20.0720  -15.1050   17.4380 C.3     9  A9          0.1773
    173  O4'       21.1700  -15.9980   17.7380 O.3     9  A9         -0.3307
    174  C3'       20.6640  -13.8630   16.7880 C.3     9  A9          0.1860
    175  O3'       20.6590  -12.7270   17.7030 O.3     9  A9         -0.3112
    176  C2'       22.0110  -14.3470   16.2290 C.3     9  A9          0.2309
    177  O2'       23.0630  -13.4020   16.3010 O.3     9  A9         -0.2156
    178  C1'       22.3450  -15.5850   17.0650 C.3     9  A9          0.2408
    179  N1        25.2820  -19.8580   16.9110 N.ar    9  A9         -0.2040
    180  C2        24.9830  -19.0150   17.9100 C.ar    9  A9          0.2016
    181  N3        24.2130  -17.9220   17.8890 N.ar    9  A9         -0.2048
    182  C4        23.7070  -17.7090   16.6590 C.ar    9  A9          0.1692
    183  C5        23.9260  -18.4870   15.5310 C.ar    9  A9          0.1518
    184  C6        24.7620  -19.6200   15.6830 C.ar    9  A9          0.1919
    185  N6        25.0620  -20.4590   14.6810 N.pl3   9  A9         -0.1054
    186  N7        23.2460  -17.9640   14.4400 N.ar    9  A9         -0.2193
    187  C8        22.6390  -16.9030   14.9210 C.ar    9  A9          0.1816
    188  N9        22.8710  -16.6860   16.2530 N.ar    9  A9         -0.2693
    189  OP1       19.7260  -16.6370   12.8780 O.2     9  A9         -0.5172
    190  OP2       17.6770  -17.0120   14.3860 O.co2   9  A9         -0.4373
    191  P         21.7240  -12.5240   18.8740 P.3    10  A10         0.2141
    192  C5'       24.0680  -11.3800   18.6390 C.3    10  A10         0.1812
    193  O5'       22.6880  -11.4000   18.2740 O.3    10  A10        -0.3114
    194  C4'       24.7910  -10.2180   17.9800 C.3    10  A10         0.1773
    195  O4'       24.7110  -10.3100   16.5330 O.3    10  A10        -0.3307
    196  C3'       24.2170   -8.8570   18.3010 C.3    10  A10         0.1860
    197  O3'       24.7960   -8.3990   19.4950 O.3    10  A10        -0.3112
    198  C2'       24.6990   -8.0440   17.1070 C.3    10  A10         0.2309
    199  O2'       26.0760   -7.7260   17.1650 O.3    10  A10        -0.2156
    200  C1'       24.4780   -9.0350   15.9760 C.3    10  A10         0.2408
    201  N1        21.2040   -6.5960   12.8220 N.ar   10  A10        -0.2040
    202  C2        22.4760   -6.3470   13.1550 C.ar   10  A10         0.2016
    203  N3        23.2670   -7.0230   13.9870 N.ar   10  A10        -0.2048
    204  C4        22.6310   -8.0800   14.5140 C.ar   10  A10         0.1692
    205  C5        21.3290   -8.4660   14.2670 C.ar   10  A10         0.1518
    206  C6        20.5920   -7.6680   13.3680 C.ar   10  A10         0.1919
    207  N6        19.3240   -7.9250   13.0360 N.pl3  10  A10        -0.1054
    208  N7        21.0060   -9.6080   14.9860 N.ar   10  A10        -0.2193
    209  C8        22.1100   -9.8860   15.6420 C.ar   10  A10         0.1816
    210  N9        23.1330   -9.0050   15.4040 N.ar   10  A10        -0.2693
    211  OP1       22.4900  -13.7770   18.9820 O.2    10  A10        -0.5172
    212  OP2       21.0370  -11.9830   20.0650 O.co2  10  A10        -0.4373
    213  P         23.8680   -7.6510   20.5650 P.3    11  G11         0.2141
    214  C5'       24.7720   -5.5980   19.1890 C.3    11  G11         0.1812
    215  O5'       23.6900   -6.1980   19.9150 O.3    11  G11        -0.3114
    216  C4'       24.3170   -4.3250   18.4910 C.3    11  G11         0.1773
    217  O4'       23.7000   -4.6690   17.2270 O.3    11  G11        -0.3307
    218  C3'       23.2400   -3.5580   19.2480 C.3    11  G11         0.1860
    219  O3'       23.8200   -2.6350   20.1790 O.3    11  G11        -0.3112
    220  C2'       22.4730   -2.8660   18.1220 C.3    11  G11         0.2309
    221  O2'       23.1210   -1.6980   17.6570 O.3    11  G11        -0.2156
    222  C1'       22.5260   -3.9040   17.0110 C.3    11  G11         0.2408
    223  N1        18.1220   -5.2300   14.7290 N.ar   11  G11        -0.1709
    224  C2        18.9100   -4.1290   14.5110 C.ar   11  G11         0.2606
    225  N2        18.4740   -3.2860   13.5710 N.pl3  11  G11        -0.0859
    226  N3        20.0400   -3.8700   15.1620 N.ar   11  G11        -0.1918
    227  C4        20.3310   -4.8260   16.0810 C.ar   11  G11         0.1723
    228  C5        19.6070   -5.9610   16.3690 C.ar   11  G11         0.1748
    229  C6        18.4020   -6.2210   15.6610 C.ar   11  G11         0.3023
    230  O6        17.6310   -7.1810   15.7820 O.2    11  G11        -0.2633
    231  N7        20.2280   -6.6960   17.3670 N.ar   11  G11        -0.2173
    232  C8        21.2910   -6.0020   17.6550 C.ar   11  G11         0.1817
    233  N9        21.4210   -4.8540   16.9260 N.ar   11  G11        -0.2693
    234  OP1       24.6520   -7.4950   21.8090 O.3    11  G11        -0.4373
    235  OP2       22.5620   -8.3430   20.6060 O.co2  11  G11        -0.5172
    236  P         23.2420   -2.6120   21.6750 P.3    12  A12         0.2141
    237  C5'       22.6630   -0.1100   21.1420 C.3    12  A12         0.1812
    238  O5'       22.2280   -1.3750   21.6300 O.3    12  A12        -0.3114
    239  C4'       21.4910    0.6580   20.5600 C.3    12  A12         0.1773
    240  O4'       21.0660    0.0260   19.3260 O.3    12  A12        -0.3307
    241  C3'       20.2430    0.6720   21.4330 C.3    12  A12         0.1860
    242  O3'       20.3160    1.7340   22.3750 O.3    12  A12        -0.3112
    243  C2'       19.1330    0.8910   20.4110 C.3    12  A12         0.2309
    244  O2'       18.9850    2.2410   20.0160 O.3    12  A12        -0.2156
    245  C1'       19.6550    0.0730   19.2360 C.3    12  A12         0.2408
    246  N1        16.7390   -3.3280   16.7770 N.ar   12  A12        -0.2040
    247  C2        17.1080   -2.0800   16.4730 C.ar   12  A12         0.2016
    248  N3        17.8820   -1.2480   17.1660 N.ar   12  A12        -0.2048
    249  C4        18.2930   -1.8280   18.3030 C.ar   12  A12         0.1692
    250  C5        17.9990   -3.1000   18.7560 C.ar   12  A12         0.1518
    251  C6        17.1700   -3.8850   17.9310 C.ar   12  A12         0.1919
    252  N6        16.7990   -5.1360   18.2270 N.pl3  12  A12        -0.1054
    253  N7        18.6100   -3.3420   19.9770 N.ar   12  A12        -0.2193
    254  C8        19.2480   -2.2270   20.2320 C.ar   12  A12         0.1816
    255  N9        19.1010   -1.2740   19.2610 N.ar   12  A12        -0.2693
    256  OP1       24.3590   -2.2570   22.5860 O.3    12  A12        -0.4373
    257  OP2       22.4590   -3.8570   21.8790 O.co2  12  A12        -0.5172
    258  P         20.1430    1.3710   23.9180 P.3    13  G13         0.2141
    259  C5'       20.8920    3.8100   24.5520 C.3    13  G13         0.1812
    260  O5'       19.9160    2.7840   24.6270 O.3    13  G13        -0.3114
    261  C4'       20.4730    4.9610   25.4460 C.3    13  G13         0.1773
    262  O4'       19.2500    5.5550   24.9420 O.3    13  G13        -0.3307
    263  C3'       20.1210    4.5710   26.8740 C.3    13  G13         0.1860
    264  O3'       20.2340    5.7170   27.6820 O.3    13  G13        -0.3112
    265  C2'       18.6580    4.1740   26.7600 C.3    13  G13         0.2309
    266  O2'       17.9910    4.2290   28.0070 O.3    13  G13        -0.2156
    267  C1'       18.1840    5.2950   25.8430 C.3    13  G13         0.2408
    268  N1        14.3710    7.1800   23.1390 N.ar   13  G13        -0.1709
    269  C2        15.3760    7.8320   23.8210 C.ar   13  G13         0.2606
    270  N2        15.3740    9.1710   23.7830 N.pl3  13  G13        -0.0859
    271  N3        16.3300    7.2140   24.5000 N.ar   13  G13        -0.1918
    272  C4        16.1850    5.8690   24.4390 C.ar   13  G13         0.1723
    273  C5        15.2250    5.1240   23.7940 C.ar   13  G13         0.1748
    274  C6        14.2150    5.7960   23.0710 C.ar   13  G13         0.3023
    275  O6        13.2780    5.3010   22.4310 O.2    13  G13        -0.2633
    276  N7        15.4450    3.7660   23.9860 N.ar   13  G13        -0.2173
    277  C8        16.5150    3.7180   24.7290 C.ar   13  G13         0.1817
    278  N9        17.0120    4.9610   25.0450 N.ar   13  G13        -0.2693
    279  OP1       21.4420    0.8260   24.3710 O.3    13  G13        -0.4373
    280  OP2       18.8960    0.5770   24.0580 O.co2  13  G13        -0.5172
    281  P         21.4810    5.8520   28.6680 P.3    14  A14         0.2141
    282  C5'       19.8300    7.1590   30.1930 C.3    14  A14         0.1812
    283  O5'       20.7430    6.0780   30.0690 O.3    14  A14        -0.3114
    284  C4'       18.8120    6.9000   31.2860 C.3    14  A14         0.1773
    285  O4'       19.4610    6.3430   32.4510 O.3    14  A14        -0.3307
    286  C3'       18.0720    8.1460   31.7540 C.3    14  A14         0.1860
    287  O3'       16.6830    7.8750   31.8230 O.3    14  A14        -0.3112
    288  C2'       18.6470    8.4760   33.1330 C.3    14  A14         0.2309
    289  O2'       17.6470    8.5410   34.1330 O.3    14  A14        -0.2156
    290  C1'       19.6370    7.3480   33.4270 C.3    14  A14         0.2408
    291  N1        23.0570   10.4680   31.1640 N.ar   14  A14        -0.2040
    292  C2        21.7470   10.2820   30.9590 C.ar   14  A14         0.2016
    293  N3        20.9140    9.4520   31.5850 N.ar   14  A14        -0.2048
    294  C4        21.5580    8.7460   32.5320 C.ar   14  A14         0.1692
    295  C5        22.8990    8.8270   32.8590 C.ar   14  A14         0.1518
    296  C6        23.6780    9.7450   32.1220 C.ar   14  A14         0.1919
    297  N6        24.9870    9.9330   32.3240 N.pl3  14  A14        -0.1054
    298  N7        23.2070    7.9470   33.8870 N.ar   14  A14        -0.2193
    299  C8        22.0640    7.3610   34.1580 C.ar   14  A14         0.1816
    300  N9        21.0270    7.7940   33.3770 N.ar   14  A14        -0.2693
    301  OP1       22.2060    7.0950   28.3160 O.2    14  A14        -0.5172
    302  OP2       22.1950    4.5550   28.6950 O.co2  14  A14        -0.4373
    303  P         15.8730    7.5960   30.4760 P.3    15  G15         0.2141
    304  C5'       16.3370   10.1660   30.2380 C.3    15  G15         0.1812
    305  O5'       15.4580    9.0720   30.0150 O.3    15  G15        -0.3114
    306  C4'       15.7710   11.4380   29.6300 C.3    15  G15         0.1773
    307  O4'       16.0460   11.4740   28.2020 O.3    15  G15        -0.3307
    308  C3'       14.2610   11.5980   29.7430 C.3    15  G15         0.1860
    309  O3'       13.8990   12.2050   30.9790 O.3    15  G15        -0.3112
    310  C2'       13.9830   12.5020   28.5460 C.3    15  G15         0.2309
    311  O2'       14.3910   13.8400   28.7580 O.3    15  G15        -0.2156
    312  C1'       14.8660   11.8240   27.5050 C.3    15  G15         0.2408
    313  N1        11.3060    9.8260   24.4580 N.ar   15  G15        -0.1709
    314  C2        11.6160   11.1430   24.6920 C.ar   15  G15         0.2606
    315  N2        10.8900   12.0530   24.0330 N.pl3  15  G15        -0.0859
    316  N3        12.5740   11.5470   25.5120 N.ar   15  G15        -0.1918
    317  C4        13.2120   10.5070   26.0930 C.ar   15  G15         0.1723
    318  C5        12.9780    9.1610   25.9280 C.ar   15  G15         0.1748
    319  C6        11.9510    8.7420   25.0490 C.ar   15  G15         0.3023
    320  O6        11.5990    7.5850   24.7750 O.2    15  G15        -0.2633
    321  N7        13.8500    8.4110   26.7090 N.ar   15  G15        -0.2173
    322  C8        14.5810    9.3050   27.3180 C.ar   15  G15         0.1817
    323  N9        14.2530   10.6010   26.9900 N.ar   15  G15        -0.2693
    324  OP1       14.6510    6.8470   30.8470 O.3    15  G15        -0.4373
    325  OP2       16.8020    7.0370   29.4690 O.co2  15  G15        -0.5172
    326  P         12.3660   12.2270   31.4530 P.3    16  G16         0.2141
    327  C5'       10.3870   13.8120   30.8540 C.3    16  G16         0.1812
    328  O5'       11.7660   13.5010   30.6840 O.3    16  G16        -0.3114
    329  C4'        9.8060   14.5110   29.6400 C.3    16  G16         0.1773
    330  O4'       10.5310   14.1210   28.4440 O.3    16  G16        -0.3307
    331  C3'        8.3580   14.1460   29.3400 C.3    16  G16         0.1860
    332  O3'        7.4540   14.9550   30.0800 O.3    16  G16        -0.3112
    333  C2'        8.2790   14.3950   27.8390 C.3    16  G16         0.2309
    334  O2'        8.2390   15.7690   27.5070 O.3    16  G16        -0.2156
    335  C1'        9.6080   13.7750   27.4260 C.3    16  G16         0.2408
    336  N1         7.3210    9.7550   25.2750 N.ar   16  G16        -0.1709
    337  C2         7.0730   11.0960   25.0920 C.ar   16  G16         0.2606
    338  N2         6.0970   11.4130   24.2270 N.pl3  16  G16        -0.0859
    339  N3         7.7350   12.0630   25.7100 N.ar   16  G16        -0.1918
    340  C4         8.6850   11.5720   26.5420 C.ar   16  G16         0.1723
    341  C5         9.0050   10.2570   26.7900 C.ar   16  G16         0.1748
    342  C6         8.2910    9.2340   26.1260 C.ar   16  G16         0.3023
    343  O6         8.4430    8.0070   26.2280 O.2    16  G16        -0.2633
    344  N7        10.0360   10.1660   27.7100 N.ar   16  G16        -0.2173
    345  C8        10.3190   11.4040   27.9980 C.ar   16  G16         0.1817
    346  N9         9.5420   12.3160   27.3240 N.ar   16  G16        -0.2693
    347  OP1       12.3420   12.5060   32.9050 O.3    16  G16        -0.4373
    348  OP2       11.7090   11.0040   30.9440 O.co2  16  G16        -0.5172
    349  P          6.7620   14.3360   31.3850 P.3    17  U17         0.2141
    350  C5'        4.3600   14.6340   30.4240 C.3    17  U17         0.1812
    351  O5'        5.3880   13.7440   30.8140 O.3    17  U17        -0.3114
    352  C4'        3.7440   14.2400   29.0930 C.3    17  U17         0.1773
    353  O4'        4.7320   13.6760   28.1920 O.3    17  U17        -0.3307
    354  C3'        2.6920   13.1440   29.1410 C.3    17  U17         0.1860
    355  O3'        1.4810   13.6130   29.7100 O.3    17  U17        -0.3112
    356  C2'        2.5870   12.8570   27.6490 C.3    17  U17         0.2309
    357  O2'        1.9820   13.8990   26.9120 O.3    17  U17        -0.2156
    358  C1'        4.0770   12.7580   27.3270 C.3    17  U17         0.2420
    359  N1         4.5800   11.3730   27.5760 N.ar   17  U17        -0.2534
    360  C2         4.0260   10.3290   26.8650 C.ar   17  U17         0.3546
    361  O2         3.1500   10.4820   26.0300 O.2    17  U17        -0.2443
    362  N3         4.5370    9.0900   27.1600 N.ar   17  U17        -0.1530
    363  C4         5.5240    8.7910   28.0810 C.ar   17  U17         0.2846
    364  O4         5.8800    7.6250   28.2390 O.2    17  U17        -0.2650
    365  C5         6.0490    9.9310   28.7870 C.ar   17  U17         0.0814
    366  C6         5.5660   11.1520   28.5160 C.ar   17  U17         0.0870
    367  OP1        6.4220   15.4490   32.2960 O.3    17  U17        -0.4373
    368  OP2        7.6230   13.2300   31.8640 O.co2  17  U17        -0.5172
    369  P          1.1420   13.2170   31.2250 P.3    18  G18         0.2141
    370  C5'       -0.5680   11.6160   30.1020 C.3    18  G18         0.1812
    371  O5'        0.5170   11.7560   31.0170 O.3    18  G18        -0.3114
    372  C4'       -0.6020   10.2510   29.4360 C.3    18  G18         0.1773
    373  O4'        0.6880    9.9360   28.8540 O.3    18  G18        -0.3307
    374  C3'       -0.8960    9.0810   30.3600 C.3    18  G18         0.1860
    375  O3'       -2.2920    8.9610   30.5080 O.3    18  G18        -0.3112
    376  C2'       -0.3330    7.9180   29.5630 C.3    18  G18         0.2309
    377  O2'       -1.2050    7.5540   28.5100 O.3    18  G18        -0.2156
    378  C1'        0.9390    8.5490   29.0020 C.3    18  G18         0.2408
    379  N1         4.6630    5.4070   30.4780 N.ar   18  G18        -0.1709
    380  C2         3.6170    5.1750   29.6180 C.ar   18  G18         0.2606
    381  N2         3.5580    3.9450   29.0850 N.pl3  18  G18        -0.0859
    382  N3         2.6960    6.0810   29.3070 N.ar   18  G18        -0.1918
    383  C4         2.9130    7.2570   29.9390 C.ar   18  G18         0.1723
    384  C5         3.9260    7.5850   30.8120 C.ar   18  G18         0.1748
    385  C6         4.9010    6.6090   31.1340 C.ar   18  G18         0.3023
    386  O6         5.8770    6.7030   31.8900 O.2    18  G18        -0.2633
    387  N7         3.7910    8.9000   31.2440 N.ar   18  G18        -0.2173
    388  C8         2.7230    9.3340   30.6330 C.ar   18  G18         0.1817
    389  N9         2.1340    8.3860   29.8280 N.ar   18  G18        -0.2693
    390  OP1        0.0600   14.1070   31.7080 O.2    18  G18        -0.5172
    391  OP2        2.4150   13.1330   31.9820 O.co2  18  G18        -0.4373
    392  P         -3.0140    9.7110   31.7190 P.3    19  G19         0.2141
    393  C5'       -3.9240    7.6730   33.0710 C.3    19  G19         0.1812
    394  O5'       -4.1690    8.6740   32.0920 O.3    19  G19        -0.3114
    395  C4'       -3.6060    6.3090   32.4810 C.3    19  G19         0.1773
    396  O4'       -2.1860    6.2350   32.1900 O.3    19  G19        -0.3307
    397  C3'       -3.8380    5.1970   33.4940 C.3    19  G19         0.1860
    398  O3'       -3.8370    3.8970   32.9050 O.3    19  G19        -0.3112
    399  C2'       -2.6130    5.4420   34.3580 C.3    19  G19         0.2309
    400  O2'       -2.3510    4.3730   35.2370 O.3    19  G19        -0.2156
    401  C1'       -1.5530    5.5660   33.2660 C.3    19  G19         0.2408
    402  N1         3.5140    5.6500   33.6080 N.ar   19  G19        -0.1709
    403  C2         2.6850    4.6890   33.0760 C.ar   19  G19         0.2606
    404  N2         3.2680    3.5990   32.5670 N.pl3  19  G19        -0.0859
    405  N3         1.3650    4.7800   33.0390 N.ar   19  G19        -0.1918
    406  C4         0.9290    5.9360   33.5900 C.ar   19  G19         0.1723
    407  C5         1.6700    6.9550   34.1440 C.ar   19  G19         0.1748
    408  C6         3.0800    6.8450   34.1750 C.ar   19  G19         0.3023
    409  O6         3.9010    7.6530   34.6290 O.2    19  G19        -0.2633
    410  N7         0.8380    7.9690   34.5990 N.ar   19  G19        -0.2173
    411  C8        -0.3650    7.5500   34.3160 C.ar   19  G19         0.1817
    412  N9        -0.3860    6.3230   33.7010 N.ar   19  G19        -0.2693
    413  OP1       -3.6570   10.9360   31.1940 O.2    19  G19        -0.5172
    414  OP2       -2.0530    9.8000   32.8470 O.co2  19  G19        -0.4373
    415  P         -4.7670    2.7710   33.5640 P.3    20  A20         0.2141
    416  C5'       -4.4370    0.5700   32.2000 C.3    20  A20         0.1812
    417  O5'       -4.0140    1.3890   33.2910 O.3    20  A20        -0.3114
    418  C4'       -3.8070   -0.8090   32.2940 C.3    20  A20         0.1773
    419  O4'       -2.3650   -0.6610   32.2180 O.3    20  A20        -0.3307
    420  C3'       -4.1210   -1.5520   33.5910 C.3    20  A20         0.1860
    421  O3'       -4.3760   -2.9440   33.3890 O.3    20  A20        -0.3112
    422  C2'       -2.8650   -1.3560   34.4280 C.3    20  A20         0.2309
    423  O2'       -2.6170   -2.4880   35.2410 O.3    20  A20        -0.2156
    424  C1'       -1.7610   -1.1910   33.3800 C.3    20  A20         0.2408
    425  N1         3.2510   -0.8050   34.4190 N.ar   20  A20        -0.2040
    426  C2         2.5120   -1.7880   33.9080 C.ar   20  A20         0.2016
    427  N3         1.2060   -1.8110   33.6600 N.ar   20  A20        -0.2048
    428  C4         0.6360   -0.6500   33.9990 C.ar   20  A20         0.1692
    429  C5         1.2620    0.4570   34.5330 C.ar   20  A20         0.1518
    430  C6         2.6530    0.3510   34.7490 C.ar   20  A20         0.1919
    431  N6         3.4190    1.3210   35.2530 N.pl3  20  A20        -0.1054
    432  N7         0.3440    1.4740   34.7480 N.ar   20  A20        -0.2193
    433  C8        -0.7970    0.9610   34.3480 C.ar   20  A20         0.1816
    434  N9        -0.6910   -0.3200   33.8760 N.ar   20  A20        -0.2693
    435  OP1       -6.0170    2.7130   32.7790 O.2    20  A20        -0.5172
    436  OP2       -4.8160    3.0340   35.0170 O.co2  20  A20        -0.4373
    437  P         -5.5760   -3.4240   32.4490 P.3    21  G21         0.2141
    438  C5'       -4.3660   -4.0240   30.2410 C.3    21  G21         0.1812
    439  O5'       -5.0310   -3.0330   31.0000 O.3    21  G21        -0.3114
    440  C4'       -2.9400   -3.6210   29.9210 C.3    21  G21         0.1773
    441  O4'       -2.1430   -3.4580   31.1270 O.3    21  G21        -0.3307
    442  C3'       -2.1730   -4.6550   29.1190 C.3    21  G21         0.1860
    443  O3'       -2.5470   -4.6000   27.7570 O.3    21  G21        -0.3112
    444  C2'       -0.7530   -4.1580   29.3520 C.3    21  G21         0.2309
    445  O2'       -0.4520   -2.9990   28.6000 O.3    21  G21        -0.2156
    446  C1'       -0.8110   -3.8710   30.8550 C.3    21  G21         0.2408
    447  N1         2.8080   -7.2090   32.0850 N.ar   21  G21        -0.1709
    448  C2         2.8950   -6.0530   31.3480 C.ar   21  G21         0.2606
    449  N2         4.1050   -5.7500   30.8680 N.pl3  21  G21        -0.0859
    450  N3         1.8700   -5.2490   31.0970 N.ar   21  G21        -0.1918
    451  C4         0.7240   -5.7100   31.6560 C.ar   21  G21         0.1723
    452  C5         0.5330   -6.8480   32.4060 C.ar   21  G21         0.1748
    453  C6         1.6380   -7.6950   32.6690 C.ar   21  G21         0.3023
    454  O6         1.6650   -8.7520   33.3190 O.2    21  G21        -0.2633
    455  N7        -0.7960   -6.9600   32.7910 N.ar   21  G21        -0.2173
    456  C8        -1.3740   -5.9080   32.2770 C.ar   21  G21         0.1817
    457  N9        -0.5080   -5.1000   31.5810 N.ar   21  G21        -0.2693
    458  OP1       -6.7530   -2.5830   32.7520 O.3    21  G21        -0.4373
    459  OP2       -5.6880   -4.8990   32.5260 O.co2  21  G21        -0.5172
    460  P         -2.2910   -5.8670   26.8180 P.3    22  G22         0.2141
    461  C5'        0.0710   -4.8600   26.2750 C.3    22  G22         0.1812
    462  O5'       -0.6960   -5.9470   26.7690 O.3    22  G22        -0.3114
    463  C4'        1.5270   -5.2780   26.1730 C.3    22  G22         0.1773
    464  O4'        2.0880   -5.4120   27.5070 O.3    22  G22        -0.3307
    465  C3'        1.7630   -6.6500   25.5510 C.3    22  G22         0.1860
    466  O3'        1.7640   -6.6310   24.1380 O.3    22  G22        -0.3112
    467  C2'        3.1580   -6.9620   26.0750 C.3    22  G22         0.2309
    468  O2'        4.1750   -6.2560   25.3950 O.3    22  G22        -0.2156
    469  C1'        3.0090   -6.4900   27.5170 C.3    22  G22         0.2408
    470  N1         4.2570  -10.6740   30.0990 N.ar   22  G22        -0.1709
    471  C2         5.0520   -9.8100   29.3760 C.ar   22  G22         0.2606
    472  N2         6.3630  -10.0800   29.3140 N.pl3  22  G22        -0.0859
    473  N3         4.5990   -8.7430   28.7430 N.ar   22  G22        -0.1918
    474  C4         3.2630   -8.5970   28.8920 C.ar   22  G22         0.1723
    475  C5         2.3850   -9.3940   29.5900 C.ar   22  G22         0.1748
    476  C6         2.8790  -10.5390   30.2650 C.ar   22  G22         0.3023
    477  O6         2.2430  -11.3680   30.9370 O.2    22  G22        -0.2633
    478  N7         1.0920   -8.8930   29.4890 N.ar   22  G22        -0.2173
    479  C8         1.2170   -7.8270   28.7480 C.ar   22  G22         0.1817
    480  N9         2.5090   -7.5800   28.3560 N.ar   22  G22        -0.2693
    481  OP1       -2.7750   -5.5160   25.4600 O.2    22  G22        -0.5172
    482  OP2       -2.7890   -7.0790   27.5140 O.co2  22  G22        -0.4373
    483  P          1.8110   -8.0470   23.4000 P.3    23  G23         0.2141
    484  C5'        4.3520   -8.3910   23.1520 C.3    23  G23         0.1812
    485  O5'        3.1870   -8.6720   23.9030 O.3    23  G23        -0.3114
    486  C4'        5.4910   -9.3140   23.5400 C.3    23  G23         0.1773
    487  O4'        5.5680   -9.3870   24.9870 O.3    23  G23        -0.3307
    488  C3'        5.3440  -10.7740   23.1390 C.3    23  G23         0.1860
    489  O3'        5.6600  -10.9910   21.7750 O.3    23  G23        -0.3112
    490  C2'        6.3950  -11.3940   24.0540 C.3    23  G23         0.2309
    491  O2'        7.7100  -11.0960   23.6440 O.3    23  G23        -0.2156
    492  C1'        6.0790  -10.6580   25.3510 C.3    23  G23         0.2408
    493  N1         5.4420  -14.3360   28.7250 N.ar   23  G23        -0.1709
    494  C2         6.6020  -13.8640   28.1520 C.ar   23  G23         0.2606
    495  N2         7.7600  -14.4430   28.5110 N.pl3  23  G23        -0.0859
    496  N3         6.6230  -12.8770   27.2740 N.ar   23  G23        -0.1918
    497  C4         5.3820  -12.4040   27.0180 C.ar   23  G23         0.1723
    498  C5         4.1750  -12.8050   27.5310 C.ar   23  G23         0.1748
    499  C6         4.1560  -13.8530   28.4690 C.ar   23  G23         0.3023
    500  O6         3.1680  -14.3380   29.0370 O.2    23  G23        -0.2633
    501  N7         3.1310  -12.0580   26.9990 N.ar   23  G23        -0.2173
    502  C8         3.7290  -11.2280   26.1820 C.ar   23  G23         0.1817
    503  N9         5.0950  -11.3840   26.1480 N.ar   23  G23        -0.2693
    504  OP1        1.9950   -7.7790   21.9540 O.2    23  G23        -0.5172
    505  OP2        0.6770   -8.8770   23.8780 O.co2  23  G23        -0.4373
    506  P          5.4060  -12.4460   21.1630 P.3    24  A24         0.2141
    507  C5'        3.0220  -11.4250   20.7910 C.3    24  A24         0.1812
    508  O5'        4.1070  -12.1900   20.2760 O.3    24  A24        -0.3114
    509  C4'        1.7900  -11.6700   19.9360 C.3    24  A24         0.1773
    510  O4'        2.2140  -11.9600   18.5810 O.3    24  A24        -0.3307
    511  C3'        0.9780  -12.8870   20.3440 C.3    24  A24         0.1860
    512  O3'       -0.0160  -12.4890   21.2680 O.3    24  A24        -0.3112
    513  C2'        0.3560  -13.3220   19.0260 C.3    24  A24         0.2309
    514  O2'       -0.7350  -12.4830   18.7000 O.3    24  A24        -0.2156
    515  C1'        1.4830  -13.0500   18.0440 C.3    24  A24         0.2408
    516  N1         2.2870  -17.7390   15.9440 N.ar   24  A24        -0.2040
    517  C2         1.1910  -16.9780   16.0460 C.ar   24  A24         0.2016
    518  N3         1.0360  -15.7720   16.6040 N.ar   24  A24        -0.2048
    519  C4         2.1930  -15.3270   17.1120 C.ar   24  A24         0.1692
    520  C5         3.4040  -15.9930   17.0860 C.ar   24  A24         0.1518
    521  C6         3.4380  -17.2620   16.4680 C.ar   24  A24         0.1919
    522  N6         4.5520  -18.0020   16.3770 N.pl3  24  A24        -0.1054
    523  N7         4.3850  -15.2380   17.7040 N.ar   24  A24        -0.2193
    524  C8         3.7540  -14.1480   18.0810 C.ar   24  A24         0.1816
    525  N9         2.4250  -14.1360   17.7670 N.ar   24  A24        -0.2693
    526  OP1        5.0210  -13.3580   22.2610 O.3    24  A24        -0.4373
    527  OP2        6.5410  -12.8160   20.2900 O.co2  24  A24        -0.5172
    528  P         -0.2520  -13.4040   22.5510 P.3    25  C25         0.2141
    529  C5'       -1.9150  -14.8630   21.1490 C.3    25  C25         0.1812
    530  O5'       -0.6960  -14.7910   21.8850 O.3    25  C25        -0.3114
    531  C4'       -2.1240  -16.2520   20.5710 C.3    25  C25         0.1773
    532  O4'       -1.1580  -16.5030   19.5290 O.3    25  C25        -0.3307
    533  C3'       -1.8960  -17.4150   21.5230 C.3    25  C25         0.1860
    534  O3'       -3.0360  -17.6330   22.3260 O.3    25  C25        -0.3112
    535  C2'       -1.6940  -18.5780   20.5600 C.3    25  C25         0.2309
    536  O2'       -2.9200  -19.0900   20.0650 O.3    25  C25        -0.2156
    537  C1'       -0.9130  -17.8950   19.4480 C.3    25  C25         0.2420
    538  N1         0.5450  -18.0450   19.5340 N.ar   25  C25        -0.2535
    539  C2         1.1610  -19.1500   18.9450 C.ar   25  C25         0.3532
    540  O2         0.4550  -19.9960   18.3790 O.2    25  C25        -0.2443
    541  N3         2.5100  -19.2600   19.0140 N.ar   25  C25        -0.1739
    542  C4         3.2200  -18.3100   19.6260 C.ar   25  C25         0.1759
    543  N4         4.5500  -18.4530   19.6740 N.pl3  25  C25        -0.1070
    544  C5         2.6040  -17.1750   20.2230 C.ar   25  C25         0.0566
    545  C6         1.2760  -17.0800   20.1520 C.ar   25  C25         0.0850
    546  OP1       -1.4130  -12.8540   23.2850 O.3    25  C25        -0.4373
    547  OP2        1.0490  -13.5920   23.2390 O.co2  25  C25        -0.5172
    548  P         -2.8030  -18.1510   23.8170 P.3    26  U26         0.2141
    549  C5'       -3.1540  -20.5720   22.9820 C.3    26  U26         0.1812
    550  O5'       -2.2700  -19.6420   23.5810 O.3    26  U26        -0.3114
    551  C4'       -2.7010  -21.9930   23.2340 C.3    26  U26         0.1773
    552  O4'       -1.7020  -22.3560   22.2510 O.3    26  U26        -0.3307
    553  C3'       -2.0470  -22.2180   24.5920 C.3    26  U26         0.1860
    554  O3'       -3.0470  -22.4990   25.5780 O.3    26  U26        -0.3112
    555  C2'       -1.1360  -23.4080   24.2860 C.3    26  U26         0.2309
    556  O2'       -1.8170  -24.6480   24.2150 O.3    26  U26        -0.2156
    557  C1'       -0.6440  -23.0520   22.8870 C.3    26  U26         0.2420
    558  N1         0.5590  -22.1790   22.8190 N.ar   26  U26        -0.2534
    559  C2         1.7750  -22.7460   22.5020 C.ar   26  U26         0.3546
    560  O2         1.9200  -23.9390   22.2910 O.2    26  U26        -0.2443
    561  N3         2.8250  -21.8600   22.4410 N.ar   26  U26        -0.1530
    562  C4         2.7780  -20.4940   22.6580 C.ar   26  U26         0.2846
    563  O4         3.8080  -19.8360   22.5680 O.2    26  U26        -0.2650
    564  C5         1.4740  -19.9740   22.9830 C.ar   26  U26         0.0814
    565  C6         0.4360  -20.8190   23.0450 C.ar   26  U26         0.0870
    566  OP1       -4.1340  -18.2170   24.4580 O.3    26  U26        -0.4373
    567  OP2       -1.7210  -17.3490   24.4340 O.co2  26  U26        -0.5172
    568  P         -2.8230  -22.1410   27.1250 P.3    27  G27         0.2141
    569  C5'       -1.5020  -24.3600   27.4530 C.3    27  G27         0.1812
    570  O5'       -1.4720  -22.9370   27.4420 O.3    27  G27        -0.3114
    571  C4'       -0.1470  -24.9610   27.7860 C.3    27  G27         0.1773
    572  O4'        0.7260  -24.8950   26.6260 O.3    27  G27        -0.3307
    573  C3'        0.6330  -24.2810   28.9080 C.3    27  G27         0.1860
    574  O3'        0.1950  -24.7510   30.1810 O.3    27  G27        -0.3112
    575  C2'        2.0290  -24.7780   28.5740 C.3    27  G27         0.2309
    576  O2'        2.1900  -26.1500   28.8670 O.3    27  G27        -0.2156
    577  C1'        2.0280  -24.5580   27.0640 C.3    27  G27         0.2408
    578  N1         5.6220  -21.2250   25.7640 N.ar   27  G27        -0.1709
    579  C2         5.7270  -22.5710   26.0590 C.ar   27  G27         0.2606
    580  N2         6.9460  -23.1200   26.0030 N.pl3  27  G27        -0.0859
    581  N3         4.7030  -23.3410   26.3870 N.ar   27  G27        -0.1918
    582  C4         3.5420  -22.6490   26.3990 C.ar   27  G27         0.1723
    583  C5         3.3260  -21.3190   26.1250 C.ar   27  G27         0.1748
    584  C6         4.4260  -20.5010   25.7730 C.ar   27  G27         0.3023
    585  O6         4.4110  -19.2920   25.4990 O.2    27  G27        -0.2633
    586  N7         1.9810  -21.0010   26.2520 N.ar   27  G27        -0.2173
    587  C8         1.4200  -22.1270   26.5950 C.ar   27  G27         0.1817
    588  N9         2.3090  -23.1730   26.6990 N.ar   27  G27        -0.2693
    589  OP1       -3.9080  -22.7920   27.8900 O.3    27  G27        -0.4373
    590  OP2       -2.5880  -20.6900   27.2930 O.co2  27  G27        -0.5172
    591  P          0.6560  -24.0470   31.5480 P.3    28  G28         0.2141
    592  C5'        3.0340  -23.2210   32.2140 C.3    28  G28         0.1812
    593  O5'        2.2460  -24.0930   31.4280 O.3    28  G28        -0.3114
    594  C4'        4.4760  -23.3730   31.7850 C.3    28  G28         0.1773
    595  O4'        4.5650  -23.2150   30.3490 O.3    28  G28        -0.3307
    596  C3'        5.4290  -22.3420   32.3540 C.3    28  G28         0.1860
    597  O3'        5.8770  -22.8280   33.5950 O.3    28  G28        -0.3112
    598  C2'        6.5360  -22.3960   31.3130 C.3    28  G28         0.2309
    599  O2'        7.2960  -23.5800   31.4250 O.3    28  G28        -0.2156
    600  C1'        5.7240  -22.4790   30.0290 C.3    28  G28         0.2408
    601  N1         7.2190  -18.2460   27.6400 N.ar   28  G28        -0.1709
    602  C2         7.9710  -19.3270   28.0450 C.ar   28  G28         0.2606
    603  N2         9.2880  -19.2780   27.7800 N.pl3  28  G28        -0.0859
    604  N3         7.4620  -20.3850   28.6680 N.ar   28  G28        -0.1918
    605  C4         6.1230  -20.2700   28.8570 C.ar   28  G28         0.1723
    606  C5         5.2910  -19.2350   28.4920 C.ar   28  G28         0.1748
    607  C6         5.8440  -18.1160   27.8280 C.ar   28  G28         0.3023
    608  O6         5.2610  -17.1040   27.4310 O.2    28  G28        -0.2633
    609  N7         3.9810  -19.4980   28.8690 N.ar   28  G28        -0.2173
    610  C8         4.0410  -20.6710   29.4400 C.ar   28  G28         0.1817
    611  N9         5.3100  -21.1960   29.4720 N.ar   28  G28        -0.2693
    612  OP1        0.2720  -24.9690   32.6380 O.3    28  G28        -0.4373
    613  OP2        0.2130  -22.6340   31.5840 O.co2  28  G28        -0.5172
    614  P          5.9880  -21.8660   34.8600 P.3    29  C29         0.2141
    615  C5'        8.4190  -21.4710   33.9910 C.3    29  C29         0.1812
    616  O5'        7.2090  -20.9160   34.4730 O.3    29  C29        -0.3114
    617  C4'        9.2630  -20.3830   33.3520 C.3    29  C29         0.1773
    618  O4'        8.8120  -20.1450   31.9970 O.3    29  C29        -0.3307
    619  C3'        9.1750  -19.0110   34.0030 C.3    29  C29         0.1860
    620  O3'       10.0490  -18.9660   35.1300 O.3    29  C29        -0.3112
    621  C2'        9.6730  -18.1400   32.8580 C.3    29  C29         0.2309
    622  O2'       11.0520  -18.3290   32.6430 O.3    29  C29        -0.2156
    623  C1'        8.9060  -18.7630   31.7110 C.3    29  C29         0.2420
    624  N1         7.5430  -18.2120   31.6030 N.ar   29  C29        -0.2535
    625  C2         7.2980  -17.1930   30.6820 C.ar   29  C29         0.3532
    626  O2         8.2120  -16.7610   29.9720 O.2    29  C29        -0.2443
    627  N3         6.0520  -16.6920   30.5890 N.ar   29  C29        -0.1739
    628  C4         5.0780  -17.1660   31.3570 C.ar   29  C29         0.1759
    629  N4         3.8740  -16.6130   31.1980 N.pl3  29  C29        -0.1070
    630  C5         5.3010  -18.2130   32.3050 C.ar   29  C29         0.0566
    631  C6         6.5450  -18.6990   32.3950 C.ar   29  C29         0.0850
    632  OP1        6.4190  -22.7260   35.9930 O.3    29  C29        -0.4373
    633  OP2        4.7620  -21.0410   34.9520 O.co2  29  C29        -0.5172
    634  P         10.3270  -17.6140   35.9440 P.3    30  C30         0.2141
    635  C5'       10.7210  -15.1550   35.1120 C.3    30  C30         0.1812
    636  O5'       10.1990  -16.4420   34.8600 O.3    30  C30        -0.3114
    637  C4'       10.8780  -14.3890   33.8100 C.3    30  C30         0.1773
    638  O4'        9.9450  -14.8800   32.8150 O.3    30  C30        -0.3307
    639  C3'       10.5300  -12.9210   33.9230 C.3    30  C30         0.1860
    640  O3'       11.6320  -12.2130   34.4380 O.3    30  C30        -0.3112
    641  C2'       10.2390  -12.5590   32.4720 C.3    30  C30         0.2309
    642  O2'       11.4290  -12.3980   31.7280 O.3    30  C30        -0.2156
    643  C1'        9.5030  -13.8060   32.0060 C.3    30  C30         0.2420
    644  N1         8.0440  -13.7010   32.1580 N.ar   30  C30        -0.2535
    645  C2         7.3410  -12.7620   31.3970 C.ar   30  C30         0.3532
    646  O2         7.9680  -12.0430   30.6200 O.2    30  C30        -0.2443
    647  N3         6.0000  -12.6580   31.5290 N.ar   30  C30        -0.1739
    648  C4         5.3690  -13.4560   32.3850 C.ar   30  C30         0.1759
    649  N4         4.0410  -13.3260   32.4850 N.pl3  30  C30        -0.1070
    650  C5         6.0630  -14.4270   33.1730 C.ar   30  C30         0.0566
    651  C6         7.3910  -14.5150   33.0310 C.ar   30  C30         0.0850
    652  OP1       11.7420  -17.6750   36.3590 O.2    30  C30        -0.5172
    653  OP2        9.2360  -17.4620   36.9320 O.co2  30  C30        -0.4373
    654  P         11.3310  -11.0330   35.4710 P.3    31  C31         0.2141
    655  C5'       11.5420   -9.5300   33.3950 C.3    31  C31         0.1812
    656  O5'       10.7780   -9.8780   34.5260 O.3    31  C31        -0.3114
    657  C4'       10.8980   -8.3590   32.6840 C.3    31  C31         0.1773
    658  O4'        9.8700   -8.8480   31.8000 O.3    31  C31        -0.3307
    659  C3'       10.1750   -7.3800   33.5850 C.3    31  C31         0.1860
    660  O3'       11.1260   -6.4740   34.1040 O.3    31  C31        -0.3112
    661  C2'        9.2880   -6.7170   32.5480 C.3    31  C31         0.2309
    662  O2'       10.0450   -5.9340   31.6540 O.3    31  C31        -0.2156
    663  C1'        8.8070   -7.9230   31.7690 C.3    31  C31         0.2420
    664  N1         7.6030   -8.5710   32.3330 N.ar   31  C31        -0.2535
    665  C2         6.3480   -8.0830   31.9680 C.ar   31  C31         0.3532
    666  O2         6.2850   -7.1220   31.1980 O.2    31  C31        -0.2443
    667  N3         5.2410   -8.6690   32.4780 N.ar   31  C31        -0.1739
    668  C4         5.3600   -9.7020   33.3070 C.ar   31  C31         0.1759
    669  N4         4.2340  -10.2470   33.7760 N.pl3  31  C31        -0.1070
    670  C5         6.6290  -10.2180   33.6870 C.ar   31  C31         0.0566
    671  C6         7.7190   -9.6280   33.1820 C.ar   31  C31         0.0850
    672  OP1       12.6200  -10.6010   36.0580 O.2    31  C31        -0.5172
    673  OP2       10.2020  -11.4610   36.3210 O.co2  31  C31        -0.4373
    674  P         10.8290   -5.6360   35.4290 P.3    32  G32         0.2141
    675  C5'        9.3620   -3.7720   34.3660 C.3    32  G32         0.1812
    676  O5'        9.4030   -4.9930   35.0930 O.3    32  G32        -0.3114
    677  C4'        7.9490   -3.2230   34.3360 C.3    32  G32         0.1773
    678  O4'        7.0760   -4.1430   33.6300 O.3    32  G32        -0.3307
    679  C3'        7.2630   -3.0870   35.6900 C.3    32  G32         0.1860
    680  O3'        7.7110   -1.9500   36.4080 O.3    32  G32        -0.3112
    681  C2'        5.8340   -2.9110   35.2140 C.3    32  G32         0.2309
    682  O2'        5.6570   -1.6490   34.6140 O.3    32  G32        -0.2156
    683  C1'        5.7650   -4.0070   34.1580 C.3    32  G32         0.2408
    684  N1         1.7500   -6.7220   35.6530 N.ar   32  G32        -0.1709
    685  C2         1.8040   -5.4490   35.1230 C.ar   32  G32         0.2606
    686  N2         0.6360   -4.8020   34.9700 N.pl3  32  G32        -0.0859
    687  N3         2.9290   -4.8440   34.7670 N.ar   32  G32        -0.1918
    688  C4         4.0160   -5.6230   34.9850 C.ar   32  G32         0.1723
    689  C5         4.0690   -6.8980   35.5060 C.ar   32  G32         0.1748
    690  C6         2.8610   -7.5350   35.8830 C.ar   32  G32         0.3023
    691  O6         2.7140   -8.6670   36.3580 O.2    32  G32        -0.2633
    692  N7         5.3820   -7.3490   35.5680 N.ar   32  G32        -0.2173
    693  C8         6.0820   -6.3510   35.0930 C.ar   32  G32         0.1817
    694  N9         5.3160   -5.2740   34.7160 N.ar   32  G32        -0.2693
    695  OP1       11.8080   -4.5270   35.4630 O.2    32  G32        -0.5172
    696  OP2       10.7010   -6.5750   36.5700 O.co2  32  G32        -0.4373
    697  P          8.0590   -2.1370   37.9580 P.3    33  A33         0.2141
    698  C5'        6.4550   -0.0460   38.1340 C.3    33  A33         0.1812
    699  O5'        7.5700   -0.7770   38.6480 O.3    33  A33        -0.3114
    700  C4'        5.9440    0.9530   39.1580 C.3    33  A33         0.1773
    701  O4'        4.7070    1.5120   38.6630 O.3    33  A33        -0.3307
    702  C3'        5.6290    0.3120   40.5040 C.3    33  A33         0.1860
    703  O3'        6.5030    0.7490   41.5620 O.3    33  A33        -0.3112
    704  C2'        4.1470    0.5910   40.7760 C.3    33  A33         0.2309
    705  O2'        3.9100    1.0530   42.0950 O.3    33  A33        -0.2156
    706  C1'        3.7760    1.6230   39.7180 C.3    33  A33         0.2408
    707  N1         0.6500   -1.7570   37.4150 N.ar   33  A33        -0.2040
    708  C2         1.9170   -1.8510   37.8380 C.ar   33  A33         0.2016
    709  N3         2.6820   -0.9350   38.4300 N.ar   33  A33        -0.2048
    710  C4         2.0060    0.2110   38.5860 C.ar   33  A33         0.1692
    711  C5         0.6990    0.4630   38.2040 C.ar   33  A33         0.1518
    712  C6        -0.0030   -0.5890   37.5870 C.ar   33  A33         0.1919
    713  N6        -1.2680   -0.4810   37.1710 N.pl3  33  A33        -0.1054
    714  N7         0.3380    1.7620   38.5240 N.ar   33  A33        -0.2193
    715  C8         1.4130    2.2610   39.0890 C.ar   33  A33         0.1816
    716  N9         2.4560    1.3790   39.1570 N.ar   33  A33        -0.2693
    717  OP1        9.5360   -2.1710   38.0860 O.2    33  A33        -0.5172
    718  OP2        7.2290   -3.2690   38.4370 O.co2  33  A33        -0.4373
    719  P          6.9530    2.2660   41.7630 P.3    34  C34         0.2141
    720  C5'        9.4240    2.9610   41.3930 C.3    34  C34         0.1812
    721  O5'        8.2460    2.4000   40.8380 O.3    34  C34        -0.3114
    722  C4'       10.5360    2.9260   40.3690 C.3    34  C34         0.1773
    723  O4'       11.7620    2.4940   41.0080 O.3    34  C34        -0.3307
    724  C3'       10.3380    1.9000   39.2710 C.3    34  C34         0.1860
    725  O3'       11.1340    2.2720   38.1640 O.3    34  C34        -0.3112
    726  C2'       10.8220    0.6040   39.9240 C.3    34  C34         0.2309
    727  O2'       11.3580   -0.3330   39.0130 O.3    34  C34        -0.2156
    728  C1'       11.9280    1.0960   40.8490 C.3    34  C34         0.2420
    729  N1        11.8540    0.5030   42.1950 N.ar   34  C34        -0.2535
    730  C2        13.0280    0.0860   42.8100 C.ar   34  C34         0.3532
    731  O2        14.0940    0.2300   42.1950 O.2    34  C34        -0.2443
    732  N3        12.9550   -0.4550   44.0500 N.ar   34  C34        -0.1739
    733  C4        11.7740   -0.5750   44.6610 C.ar   34  C34         0.1759
    734  N4        11.7490   -1.1130   45.8890 N.pl3  34  C34        -0.1070
    735  C5        10.5630   -0.1530   44.0400 C.ar   34  C34         0.0566
    736  C6        10.6490    0.3760   42.8180 C.ar   34  C34         0.0850
    737  OP1        7.3820    2.4380   43.1730 O.3    34  C34        -0.4373
    738  OP2        5.8900    3.1110   41.1800 O.co2  34  C34        -0.5172
    739  P         10.4450    2.2040   36.7270 P.3    35  G35         0.2141
    740  C5'        8.6370    3.6690   35.6320 C.3    35  G35         0.1812
    741  O5'        9.4930    3.4720   36.7400 O.3    35  G35        -0.3114
    742  C4'        8.0880    2.4010   34.9940 C.3    35  G35         0.1773
    743  O4'        6.9080    1.9810   35.7140 O.3    35  G35        -0.3307
    744  C3'        7.5090    2.7810   33.6460 C.3    35  G35         0.1860
    745  O3'        6.9400    1.7120   32.8950 O.3    35  G35        -0.3112
    746  C2'        6.4330    3.7150   34.1850 C.3    35  G35         0.2309
    747  O2'        5.4330    4.0180   33.2380 O.3    35  G35        -0.2156
    748  C1'        5.8870    2.9040   35.3650 C.3    35  G35         0.2408
    749  N1         2.2380    5.3930   37.8630 N.ar   35  G35        -0.1709
    750  C2         2.1430    4.5620   36.7740 C.ar   35  G35         0.2606
    751  N2         0.9160    4.3680   36.2770 N.pl3  35  G35        -0.0859
    752  N3         3.1760    3.9660   36.2010 N.ar   35  G35        -0.1918
    753  C4         4.3360    4.2690   36.8290 C.ar   35  G35         0.1723
    754  C5         4.5370    5.0800   37.9220 C.ar   35  G35         0.1748
    755  C6         3.4230    5.7180   38.5190 C.ar   35  G35         0.3023
    756  O6         3.4030    6.4820   39.5010 O.2    35  G35        -0.2633
    757  N7         5.8830    5.1270   38.2580 N.ar   35  G35        -0.2173
    758  C8         6.4570    4.3570   37.3780 C.ar   35  G35         0.1817
    759  N9         5.5790    3.7930   36.4830 N.ar   35  G35        -0.2693
    760  OP1        9.5460    1.0230   36.7020 O.3    35  G35        -0.4373
    761  OP2       11.5060    2.3730   35.7100 O.co2  35  G35        -0.5172
    762  P          6.9890    1.8220   31.2920 P.3    36  A36         0.2141
    763  C5'        6.6090   -0.7050   30.7720 C.3    36  A36         0.1812
    764  O5'        6.0750    0.6130   30.7900 O.3    36  A36        -0.3114
    765  C4'        5.5340   -1.6980   30.3990 C.3    36  A36         0.1773
    766  O4'        4.4990   -1.6560   31.4080 O.3    36  A36        -0.3307
    767  C3'        4.8050   -1.3940   29.1020 C.3    36  A36         0.1860
    768  O3'        5.5130   -1.9500   27.9940 O.3    36  A36        -0.3112
    769  C2'        3.4720   -2.0890   29.3430 C.3    36  A36         0.2309
    770  O2'        3.5590   -3.4850   29.1730 O.3    36  A36        -0.2156
    771  C1'        3.2220   -1.7640   30.8100 C.3    36  A36         0.2408
    772  N1        -0.8180    1.1310   29.5180 N.ar   36  A36        -0.2040
    773  C2        -0.4630   -0.1140   29.1770 C.ar   36  A36         0.2016
    774  N3         0.6050   -0.8150   29.5500 N.ar   36  A36        -0.2048
    775  C4         1.3700   -0.0970   30.3820 C.ar   36  A36         0.1692
    776  C5         1.1380    1.1880   30.8240 C.ar   36  A36         0.1518
    777  C6        -0.0240    1.8270   30.3550 C.ar   36  A36         0.1919
    778  N6        -0.3710    3.0710   30.7010 N.pl3  36  A36        -0.1054
    779  N7         2.1500    1.6000   31.6740 N.ar   36  A36        -0.2193
    780  C8         2.9630    0.5730   31.7280 C.ar   36  A36         0.1816
    781  N9         2.5450   -0.4870   30.9760 N.ar   36  A36        -0.2693
    782  OP1        8.3920    1.5500   30.9040 O.3    36  A36        -0.4373
    783  OP2        6.3480    3.0840   30.8640 O.co2  36  A36        -0.5172
    784  P          5.7900   -1.0300   26.7160 P.3    37  A37         0.2141
    785  C5'        3.6640   -1.9900   25.5590 C.3    37  A37         0.1812
    786  O5'        4.3150   -0.8550   26.1170 O.3    37  A37        -0.3114
    787  C4'        2.2950   -1.6480   24.9950 C.3    37  A37         0.1773
    788  O4'        1.4360   -1.1710   26.0560 O.3    37  A37        -0.3307
    789  C3'        2.2400   -0.5430   23.9480 C.3    37  A37         0.1860
    790  O3'        2.5550   -1.0610   22.6600 O.3    37  A37        -0.3112
    791  C2'        0.7690   -0.1580   24.0270 C.3    37  A37         0.2309
    792  O2'       -0.0530   -1.0850   23.3410 O.3    37  A37        -0.2156
    793  C1'        0.5100   -0.2390   25.5280 C.3    37  A37         0.2408
    794  N1        -1.4390    4.3750   26.7240 N.ar   37  A37        -0.2040
    795  C2        -1.9000    3.3800   25.9580 C.ar   37  A37         0.2016
    796  N3        -1.3450    2.1990   25.6820 N.ar   37  A37        -0.2048
    797  C4        -0.1620    2.0810   26.3030 C.ar   37  A37         0.1692
    798  C5         0.4470    3.0160   27.1220 C.ar   37  A37         0.1518
    799  C6        -0.2440    4.2290   27.3340 C.ar   37  A37         0.1919
    800  N6         0.2220    5.2240   28.1020 N.pl3  37  A37        -0.1054
    801  N7         1.6650    2.5430   27.5830 N.ar   37  A37        -0.2193
    802  C8         1.7640    1.3520   27.0390 C.ar   37  A37         0.1816
    803  N9         0.6980    1.0110   26.2540 N.ar   37  A37        -0.2693
    804  OP1        6.5590   -1.8090   25.7260 O.2    37  A37        -0.5172
    805  OP2        6.3290    0.2630   27.1940 O.co2  37  A37        -0.4373
    806  P          3.3700   -0.1720   21.6000 P.3    38  A38         0.2141
    807  C5'        1.0530    0.9880   21.1540 C.3    38  A38         0.1812
    808  O5'        2.4390    1.1260   21.4420 O.3    38  A38        -0.3114
    809  C4'        0.3920    2.3510   21.0380 C.3    38  A38         0.1773
    810  O4'       -0.1050    2.7730   22.3300 O.3    38  A38        -0.3307
    811  C3'        1.3090    3.4750   20.5680 C.3    38  A38         0.1860
    812  O3'        1.3320    3.5370   19.1460 O.3    38  A38        -0.3112
    813  C2'        0.6020    4.6790   21.1700 C.3    38  A38         0.2309
    814  O2'       -0.5840    4.9980   20.4720 O.3    38  A38        -0.2156
    815  C1'        0.2520    4.1240   22.5420 C.3    38  A38         0.2408
    816  N1         2.8860    7.0840   25.8350 N.ar   38  A38        -0.2040
    817  C2         1.8160    7.3290   25.0720 C.ar   38  A38         0.2016
    818  N3         1.1800    6.5090   24.2330 N.ar   38  A38        -0.2048
    819  C4         1.7560    5.2930   24.2160 C.ar   38  A38         0.1692
    820  C5         2.8620    4.8930   24.9430 C.ar   38  A38         0.1518
    821  C6         3.4460    5.8570   25.7960 C.ar   38  A38         0.1919
    822  N6         4.5160    5.6210   26.5620 N.pl3  38  A38        -0.1054
    823  N7         3.1660    3.5690   24.6660 N.ar   38  A38        -0.2193
    824  C8         2.2580    3.2030   23.7900 C.ar   38  A38         0.1816
    825  N9         1.3720    4.1940   23.4760 N.ar   38  A38        -0.2693
    826  OP1        3.3720   -0.9280   20.3300 O.2    38  A38        -0.5172
    827  OP2        4.6560    0.2600   22.1880 O.co2  38  A38        -0.4373
    828  P          2.6030    4.1160   18.3690 P.3    39  C39         0.2141
    829  C5'        1.5960    6.5200   18.3170 C.3    39  C39         0.1812
    830  O5'        2.5870    5.6420   18.8230 O.3    39  C39        -0.3114
    831  C4'        1.8290    7.9140   18.8640 C.3    39  C39         0.1773
    832  O4'        1.7230    7.8940   20.3080 O.3    39  C39        -0.3307
    833  C3'        3.2220    8.4780   18.6470 C.3    39  C39         0.1860
    834  O3'        3.3710    8.9330   17.3190 O.3    39  C39        -0.3112
    835  C2'        3.1910    9.6250   19.6500 C.3    39  C39         0.2309
    836  O2'        2.3950   10.7270   19.2420 O.3    39  C39        -0.2156
    837  C1'        2.5470    8.9160   20.8380 C.3    39  C39         0.2420
    838  N1         3.5490    8.2960   21.7410 N.ar   39  C39        -0.2535
    839  C2         4.0880    9.0480   22.7920 C.ar   39  C39         0.3532
    840  O2         3.7150   10.2210   22.9530 O.2    39  C39        -0.2443
    841  N3         5.0040    8.4630   23.6030 N.ar   39  C39        -0.1739
    842  C4         5.3750    7.2000   23.3920 C.ar   39  C39         0.1759
    843  N4         6.2820    6.6690   24.2180 N.pl3  39  C39        -0.1070
    844  C5         4.8360    6.4230   22.3280 C.ar   39  C39         0.0566
    845  C6         3.9350    7.0070   21.5340 C.ar   39  C39         0.0850
    846  OP1        2.3010    4.0610   16.9280 O.2    39  C39        -0.5172
    847  OP2        3.8410    3.4800   18.8620 O.co2  39  C39        -0.4373
    848  P          4.8230    9.1640   16.6950 P.3    40  C40         0.2141
    849  C5'        5.1220   11.5880   17.6230 C.3    40  C40         0.1812
    850  O5'        5.4830   10.2200   17.6980 O.3    40  C40        -0.3114
    851  C4'        5.9680   12.4260   18.5680 C.3    40  C40         0.1773
    852  O4'        5.7600   11.9990   19.9400 O.3    40  C40        -0.3307
    853  C3'        7.4780   12.3240   18.3990 C.3    40  C40         0.1860
    854  O3'        7.9440   13.1200   17.3220 O.3    40  C40        -0.3112
    855  C2'        7.9340   12.9010   19.7330 C.3    40  C40         0.2309
    856  O2'        7.7840   14.3070   19.7970 O.3    40  C40        -0.2156
    857  C1'        6.9550   12.2110   20.6810 C.3    40  C40         0.2420
    858  N1         7.5130   10.9170   21.1940 N.ar   40  C40        -0.2535
    859  C2         8.5290   10.9510   22.1560 C.ar   40  C40         0.3532
    860  O2         8.9210   12.0480   22.5640 O.2    40  C40        -0.2443
    861  N3         9.0520    9.7870   22.6150 N.ar   40  C40        -0.1739
    862  C4         8.5930    8.6270   22.1460 C.ar   40  C40         0.1759
    863  N4         9.1270    7.4970   22.6250 N.pl3  40  C40        -0.1070
    864  C5         7.5620    8.5700   21.1630 C.ar   40  C40         0.0566
    865  C6         7.0570    9.7240   20.7150 C.ar   40  C40         0.0850
    866  OP1        4.6280    9.8390   15.3940 O.2    40  C40        -0.5172
    867  OP2        5.5760    7.8960   16.7470 O.co2  40  C40        -0.4373
    868  P          9.2230   12.6340   16.4930 P.3    41  C41         0.2141
    869  C5'       10.8630   14.2120   17.8200 C.3    41  C41         0.1812
    870  O5'       10.4400   12.8950   17.4940 O.3    41  C41        -0.3114
    871  C4'       11.8860   14.1790   18.9420 C.3    41  C41         0.1773
    872  O4'       11.2890   13.5130   20.0830 O.3    41  C41        -0.3307
    873  C3'       13.1530   13.3750   18.6770 C.3    41  C41         0.1860
    874  O3'       14.1400   14.1340   17.9970 O.3    41  C41        -0.3112
    875  C2'       13.6090   13.1420   20.1020 C.3    41  C41         0.2309
    876  O2'       14.1320   14.3340   20.6490 O.3    41  C41        -0.2156
    877  C1'       12.2850   12.7780   20.7670 C.3    41  C41         0.2420
    878  N1        11.9850   11.3250   20.6720 N.ar   41  C41        -0.2535
    879  C2        12.6100   10.4480   21.5620 C.ar   41  C41         0.3532
    880  O2        13.3900   10.9060   22.4030 O.2    41  C41        -0.2443
    881  N3        12.3490    9.1220   21.4790 N.ar   41  C41        -0.1739
    882  C4        11.5030    8.6710   20.5550 C.ar   41  C41         0.1759
    883  N4        11.2780    7.3520   20.5140 N.pl3  41  C41        -0.1070
    884  C5        10.8550    9.5510   19.6370 C.ar   41  C41         0.0566
    885  C6        11.1220   10.8570   19.7260 C.ar   41  C41         0.0850
    886  OP1        9.3610   13.5400   15.3340 O.2    41  C41        -0.5172
    887  OP2        9.1240   11.1740   16.2740 O.co2  41  C41        -0.4373
    888  P         14.9970   13.4620   16.8230 P.3    42  G42         0.2141
    889  C5'       16.8580   12.8930   18.5360 C.3    42  G42         0.1812
    890  O5'       15.9210   12.4140   17.5920 O.3    42  G42        -0.3114
    891  C4'       17.4010   11.7490   19.3670 C.3    42  G42         0.1773
    892  O4'       16.3310   11.1560   20.1480 O.3    42  G42        -0.3307
    893  C3'       17.9770   10.5830   18.5790 C.3    42  G42         0.1860
    894  O3'       19.3130   10.8620   18.1670 O.3    42  G42        -0.3112
    895  C2'       17.9420    9.5230   19.6700 C.3    42  G42         0.2309
    896  O2'       18.9390    9.7490   20.6440 O.3    42  G42        -0.2156
    897  C1'       16.5610    9.7670   20.2700 C.3    42  G42         0.2408
    898  N1        14.5210    5.2580   19.0900 N.ar   42  G42        -0.1709
    899  C2        15.5890    5.5380   19.9080 C.ar   42  G42         0.2606
    900  N2        16.1910    4.4830   20.4840 N.pl3  42  G42        -0.0859
    901  N3        16.0380    6.7650   20.1460 N.ar   42  G42        -0.1918
    902  C4        15.3150    7.7040   19.4890 C.ar   42  G42         0.1723
    903  C5        14.2360    7.5220   18.6540 C.ar   42  G42         0.1748
    904  C6        13.7700    6.2100   18.4070 C.ar   42  G42         0.3023
    905  O6        12.8230    5.8580   17.6930 O.2    42  G42        -0.2633
    906  N7        13.7720    8.7390   18.1750 N.ar   42  G42        -0.2173
    907  C8        14.5660    9.6190   18.7190 C.ar   42  G42         0.1817
    908  N9        15.5220    9.0650   19.5310 N.ar   42  G42        -0.2693
    909  OP1       15.9010   14.4960   16.2750 O.3    42  G42        -0.4373
    910  OP2       14.0670   12.7330   15.9280 O.co2  42  G42        -0.5172
    911  P         19.8460   10.3890   16.7350 P.3    43  G43         0.2141
    912  C5'       20.9140    8.3890   18.0900 C.3    43  G43         0.1812
    913  O5'       20.1660    8.8330   16.9570 O.3    43  G43        -0.3114
    914  C4'       20.7370    6.8980   18.3400 C.3    43  G43         0.1773
    915  O4'       19.3950    6.6210   18.8270 O.3    43  G43        -0.3307
    916  C3'       20.8980    5.9900   17.1300 C.3    43  G43         0.1860
    917  O3'       22.2710    5.6800   16.9150 O.3    43  G43        -0.3112
    918  C2'       20.1200    4.7580   17.5820 C.3    43  G43         0.2309
    919  O2'       20.8610    3.9190   18.4430 O.3    43  G43        -0.2156
    920  C1'       18.9530    5.3680   18.3510 C.3    43  G43         0.2408
    921  N1        15.3430    3.1190   15.5390 N.ar   43  G43        -0.1709
    922  C2        16.3550    2.5440   16.2750 C.ar   43  G43         0.2606
    923  N2        16.4290    1.2050   16.2690 N.pl3  43  G43        -0.0859
    924  N3        17.2420    3.2400   16.9800 N.ar   43  G43        -0.1918
    925  C4        17.0370    4.5790   16.8870 C.ar   43  G43         0.1723
    926  C5        16.0620    5.2410   16.1810 C.ar   43  G43         0.1748
    927  C6        15.1190    4.4930   15.4390 C.ar   43  G43         0.3023
    928  O6        14.1830    4.9260   14.7560 O.2    43  G43        -0.2633
    929  N7        16.1880    6.6140   16.3410 N.ar   43  G43        -0.2173
    930  C8        17.2210    6.7550   17.1240 C.ar   43  G43         0.1817
    931  N9        17.7860    5.5620   17.4980 N.ar   43  G43        -0.2693
    932  OP1       21.1180   11.0940   16.4490 O.3    43  G43        -0.4373
    933  OP2       18.7120   10.4970   15.7910 O.co2  43  G43        -0.5172
    934  P         22.7340    5.0040   15.5400 P.3    44  C44         0.2141
    935  C5'       22.6770    2.5740   16.5970 C.3    44  C44         0.1812
    936  O5'       22.1850    3.4970   15.6270 O.3    44  C44        -0.3114
    937  C4'       22.0990    1.1800   16.3830 C.3    44  C44         0.1773
    938  O4'       20.6620    1.2100   16.5840 O.3    44  C44        -0.3307
    939  C3'       22.3040    0.6180   14.9830 C.3    44  C44         0.1860
    940  O3'       23.4740   -0.1830   14.9180 O.3    44  C44        -0.3112
    941  C2'       21.0800   -0.2640   14.7930 C.3    44  C44         0.2309
    942  O2'       21.2560   -1.5200   15.4150 O.3    44  C44        -0.2156
    943  C1'       20.0090    0.5180   15.5360 C.3    44  C44         0.2420
    944  N1        19.1970    1.4790   14.7020 N.ar   44  C44        -0.2535
    945  C2        18.2660    0.9880   13.7670 C.ar   44  C44         0.3532
    946  O2        18.1290   -0.2310   13.6110 O.2    44  C44        -0.2443
    947  N3        17.5330    1.8610   13.0400 N.ar   44  C44        -0.1739
    948  C4        17.6920    3.1780   13.2120 C.ar   44  C44         0.1759
    949  N4        16.9390    4.0020   12.4650 N.pl3  44  C44        -0.1070
    950  C5        18.6280    3.7020   14.1590 C.ar   44  C44         0.0566
    951  C6        19.3490    2.8270   14.8740 C.ar   44  C44         0.0850
    952  OP1       24.2120    4.9290   15.5320 O.3    44  C44        -0.4373
    953  OP2       22.0080    5.7040   14.4540 O.co2  44  C44        -0.5172
    954  P         24.1200   -0.4550   13.4830 P.3    45  A45         0.2141
    955  C5'       22.3890   -2.3410   12.8470 C.3    45  A45         0.1812
    956  O5'       22.9180   -1.0500   12.6040 O.3    45  A45        -0.3114
    957  C4'       21.3580   -2.6870   11.7890 C.3    45  A45         0.1773
    958  O4'       20.2160   -1.8110   11.9400 O.3    45  A45        -0.3307
    959  C3'       21.8360   -2.5160   10.3550 C.3    45  A45         0.1860
    960  O3'       22.2840   -3.7740    9.8800 O.3    45  A45        -0.3112
    961  C2'       20.5730   -2.1010    9.6150 C.3    45  A45         0.2309
    962  O2'       19.8230   -3.2300    9.2200 O.3    45  A45        -0.2156
    963  C1'       19.7790   -1.3590   10.6800 C.3    45  A45         0.2408
    964  N1        17.6840    3.1090    9.2950 N.ar   45  A45        -0.2040
    965  C2        17.3110    1.8420    9.0830 C.ar   45  A45         0.2016
    966  N3        17.9110    0.7190    9.4700 N.ar   45  A45        -0.2048
    967  C4        19.0280    0.9940   10.1590 C.ar   45  A45         0.1692
    968  C5        19.5380    2.2390   10.4610 C.ar   45  A45         0.1518
    969  C6        18.8110    3.3500    9.9960 C.ar   45  A45         0.1919
    970  N6        19.1810    4.6150   10.2060 N.pl3  45  A45        -0.1054
    971  N7        20.7080    2.1260   11.1870 N.ar   45  A45        -0.2193
    972  C8        20.8780    0.8320   11.3130 C.ar   45  A45         0.1816
    973  N9        19.9050    0.0920   10.7050 N.ar   45  A45        -0.2693
    974  OP1       25.1450   -1.5100   13.6220 O.3    45  A45        -0.4373
    975  OP2       24.4740    0.8680   12.9270 O.co2  45  A45        -0.5172
    976  P         23.2110   -3.8620    8.5810 P.3    46  A46         0.2141
    977  C5'       21.2520   -4.4800    6.9120 C.3    46  A46         0.1812
    978  O5'       22.2400   -3.5590    7.3490 O.3    46  A46        -0.3114
    979  C4'       20.4780   -3.7990    5.8060 C.3    46  A46         0.1773
    980  O4'       20.0850   -2.4900    6.2810 O.3    46  A46        -0.3307
    981  C3'       21.2840   -3.5610    4.5300 C.3    46  A46         0.1860
    982  O3'       20.4520   -3.7660    3.4020 O.3    46  A46        -0.3112
    983  C2'       21.7290   -2.1070    4.6420 C.3    46  A46         0.2309
    984  O2'       21.8520   -1.4670    3.3850 O.3    46  A46        -0.2156
    985  C1'       20.5540   -1.4990    5.3880 C.3    46  A46         0.2408
    986  N1        19.4190    3.3380    6.6540 N.ar   46  A46        -0.2040
    987  C2        18.7930    2.4450    5.8780 C.ar   46  A46         0.2016
    988  N3        19.1510    1.1950    5.5910 N.ar   46  A46        -0.2048
    989  C4        20.3000    0.8760    6.2030 C.ar   46  A46         0.1692
    990  C5        21.0550    1.6800    7.0260 C.ar   46  A46         0.1518
    991  C6        20.5740    2.9830    7.2550 C.ar   46  A46         0.1919
    992  N6        21.1950    3.8820    8.0240 N.pl3  46  A46        -0.1054
    993  N7        22.1740    1.0010    7.4740 N.ar   46  A46        -0.2193
    994  C8        22.0740   -0.1850    6.9170 C.ar   46  A46         0.1816
    995  N9        20.9600   -0.3230    6.1400 N.ar   46  A46        -0.2693
    996  OP1       23.6700   -5.2700    8.4850 O.2    46  A46        -0.5172
    997  OP2       24.1690   -2.7380    8.6230 O.co2  46  A46        -0.4373
    998  P         20.1520   -5.2690    2.9560 P.3    47  C47         0.2141
    999  C5'       17.9420   -6.3650    2.2040 C.3    47  C47         0.1812
   1000  O5'       18.6290   -5.1640    2.4910 O.3    47  C47        -0.3114
   1001  C4'       16.4890   -6.0540    1.9240 C.3    47  C47         0.1773
   1002  O4'       15.7990   -5.6620    3.1340 O.3    47  C47        -0.3307
   1003  C3'       16.3000   -4.8840    0.9770 C.3    47  C47         0.1860
   1004  O3'       16.4670   -5.3710   -0.3450 O.3    47  C47        -0.3112
   1005  C2'       14.8580   -4.5060    1.2970 C.3    47  C47         0.2309
   1006  O2'       13.9130   -5.4370    0.8110 O.3    47  C47        -0.2156
   1007  C1'       14.8940   -4.6210    2.8120 C.3    47  C47         0.2420
   1008  N1        15.3410   -3.3790    3.4640 N.ar   47  C47        -0.2535
   1009  C2        14.4330   -2.3460    3.5530 C.ar   47  C47         0.3532
   1010  O2        13.3130   -2.5290    3.0710 O.2    47  C47        -0.2443
   1011  N3        14.8040   -1.1940    4.1530 N.ar   47  C47        -0.1739
   1012  C4        16.0310   -1.0690    4.6530 C.ar   47  C47         0.1759
   1013  N4        16.3560    0.0940    5.2350 N.pl3  47  C47        -0.1070
   1014  C5        16.9790   -2.1240    4.5700 C.ar   47  C47         0.0566
   1015  C6        16.5970   -3.2560    3.9700 C.ar   47  C47         0.0850
   1016  OP1       20.2400   -6.1400    4.1450 O.3    47  C47        -0.4373
   1017  OP2       20.9710   -5.5840    1.7660 O.co2  47  C47        -0.5172
   1018  P         16.8550   -4.4220   -1.5740 P.3    48  C48         0.2141
   1019  C5'       14.3380   -3.9650   -2.2120 C.3    48  C48         0.1812
   1020  O5'       15.5860   -3.4500   -1.7580 O.3    48  C48        -0.3114
   1021  C4'       13.3430   -2.8480   -2.5070 C.3    48  C48         0.1773
   1022  O4'       12.7840   -2.3180   -1.2780 O.3    48  C48        -0.3307
   1023  C3'       13.9140   -1.6230   -3.2040 C.3    48  C48         0.1860
   1024  O3'       13.9900   -1.8030   -4.6090 O.3    48  C48        -0.3112
   1025  C2'       12.8930   -0.5590   -2.8190 C.3    48  C48         0.2309
   1026  O2'       11.6610   -0.7060   -3.4960 O.3    48  C48        -0.2156
   1027  C1'       12.7240   -0.9070   -1.3470 C.3    48  C48         0.2420
   1028  N1        13.8190   -0.3780   -0.5030 N.ar   48  C48        -0.2535
   1029  C2        13.7690    0.9420   -0.0350 C.ar   48  C48         0.3532
   1030  O2        12.7970    1.6460   -0.3360 O.2    48  C48        -0.2443
   1031  N3        14.7850    1.4070    0.7390 N.ar   48  C48        -0.1739
   1032  C4        15.8110    0.6030    1.0350 C.ar   48  C48         0.1759
   1033  N4        16.7900    1.0930    1.7990 N.pl3  48  C48        -0.1070
   1034  C5        15.8880   -0.7410    0.5560 C.ar   48  C48         0.0566
   1035  C6        14.8790   -1.1860   -0.2050 C.ar   48  C48         0.0850
   1036  OP1       16.9360   -5.3530   -2.7180 O.2    48  C48        -0.5172
   1037  OP2       18.0170   -3.5810   -1.2080 O.co2  48  C48        -0.4373
   1038  P         15.2400   -1.1890   -5.4070 P.3    49  A49         0.2141
   1039  C5'       13.5960    0.6550   -6.1400 C.3    49  A49         0.1812
   1040  O5'       14.8380    0.3530   -5.5550 O.3    49  A49        -0.3114
   1041  C4'       13.3630    2.1470   -6.0790 C.3    49  A49         0.1773
   1042  O4'       13.0480    2.5120   -4.7170 O.3    49  A49        -0.3307
   1043  C3'       14.5630    3.0190   -6.4280 C.3    49  A49         0.1860
   1044  O3'       14.7280    3.1350   -7.8550 O.3    49  A49        -0.3112
   1045  C2'       14.1310    4.3200   -5.7460 C.3    49  A49         0.2309
   1046  O2'       13.0960    5.0010   -6.4190 O.3    49  A49        -0.2156
   1047  C1'       13.6070    3.7740   -4.4220 C.3    49  A49         0.2408
   1048  N1        16.7060    5.9510   -0.9400 N.ar   49  A49        -0.2040
   1049  C2        15.7090    6.4450   -1.6830 C.ar   49  A49         0.2016
   1050  N3        14.9400    5.8170   -2.5700 N.ar   49  A49        -0.2048
   1051  C4        15.2730    4.5210   -2.6690 C.ar   49  A49         0.1692
   1052  C5        16.2710    3.8660   -1.9740 C.ar   49  A49         0.1518
   1053  C6        17.0200    4.6430   -1.0600 C.ar   49  A49         0.1919
   1054  N6        18.0140    4.1550   -0.3110 N.pl3  49  A49        -0.1054
   1055  N7        16.3200    2.5260   -2.3430 N.ar   49  A49        -0.2193
   1056  C8        15.3670    2.4000   -3.2390 C.ar   49  A49         0.1816
   1057  N9        14.6950    3.5680   -3.4760 N.ar   49  A49        -0.2693
   1058  OP1       15.2410   -1.8290   -6.7380 O.2    49  A49        -0.5172
   1059  OP2       16.4520   -1.2720   -4.5620 O.co2  49  A49        -0.4373
   1060  P         16.1540    2.9310   -8.5690 P.3    50  G50         0.2141
   1061  C5'       16.2480    5.5240   -8.2960 C.3    50  G50         0.1812
   1062  O5'       16.9030    4.2740   -8.1370 O.3    50  G50        -0.3114
   1063  C4'       16.9880    6.6180   -7.5480 C.3    50  G50         0.1773
   1064  O4'       16.6800    6.5410   -6.1290 O.3    50  G50        -0.3307
   1065  C3'       18.5110    6.5520   -7.5920 C.3    50  G50         0.1860
   1066  O3'       19.0370    7.0420   -8.8230 O.3    50  G50        -0.3112
   1067  C2'       18.8100    7.5000   -6.4380 C.3    50  G50         0.2309
   1068  O2'       18.5690    8.8540   -6.7730 O.3    50  G50        -0.2156
   1069  C1'       17.8130    6.9780   -5.3970 C.3    50  G50         0.2408
   1070  N1        20.9660    5.6300   -1.6750 N.ar   50  G50        -0.1709
   1071  C2        20.5550    6.8860   -2.0610 C.ar   50  G50         0.2606
   1072  N2        21.0550    7.9230   -1.3700 N.pl3  50  G50        -0.0859
   1073  N3        19.7100    7.1090   -3.0560 N.ar   50  G50        -0.1918
   1074  C4        19.3100    5.9550   -3.6430 C.ar   50  G50         0.1723
   1075  C5        19.6610    4.6610   -3.3340 C.ar   50  G50         0.1748
   1076  C6        20.5600    4.4350   -2.2680 C.ar   50  G50         0.3023
   1077  O6        20.9870    3.3520   -1.8470 O.2    50  G50        -0.2633
   1078  N7        19.0260    3.7570   -4.1790 N.ar   50  G50        -0.2173
   1079  C8        18.3150    4.5130   -4.9710 C.ar   50  G50         0.1817
   1080  N9        18.4310    5.8580   -4.6960 N.ar   50  G50        -0.2693
   1081  OP1       15.9500    2.9690  -10.0330 O.2    50  G50        -0.5172
   1082  OP2       16.8490    1.7680   -7.9810 O.co2  50  G50        -0.4373
   1083  P         20.0080    6.1420   -9.7340 P.3    51  A51         0.2141
   1084  C5'       22.3470    5.1160   -9.3210 C.3    51  A51         0.1812
   1085  O5'       21.2270    5.7920   -8.7740 O.3    51  A51        -0.3114
   1086  C4'       23.6170    5.7650   -8.8110 C.3    51  A51         0.1773
   1087  O4'       23.9060    6.9490   -9.5870 O.3    51  A51        -0.3307
   1088  C3'       23.5140    6.2660   -7.3850 C.3    51  A51         0.1860
   1089  O3'       23.7960    5.1920   -6.4980 O.3    51  A51        -0.3112
   1090  C2'       24.5720    7.3660   -7.3540 C.3    51  A51         0.2309
   1091  O2'       25.8780    6.8600   -7.1630 O.3    51  A51        -0.2156
   1092  C1'       24.4310    7.9640   -8.7530 C.3    51  A51         0.2408
   1093  N1        23.6660   12.9590   -7.8170 N.ar   51  A51        -0.2040
   1094  C2        24.7190   12.1620   -7.5970 C.ar   51  A51         0.2016
   1095  N3        24.8620   10.8660   -7.8620 N.ar   51  A51        -0.2048
   1096  C4        23.7480   10.3840   -8.4270 C.ar   51  A51         0.1692
   1097  C5        22.5880   11.0760   -8.7180 C.ar   51  A51         0.1518
   1098  C6        22.5610   12.4410   -8.3880 C.ar   51  A51         0.1919
   1099  N6        21.5060   13.2320   -8.6160 N.pl3  51  A51        -0.1054
   1100  N7        21.6460   10.2460   -9.3020 N.ar   51  A51        -0.2193
   1101  C8        22.2470    9.0840   -9.3490 C.ar   51  A51         0.1816
   1102  N9        23.5150    9.0960   -8.8370 N.ar   51  A51        -0.2693
   1103  OP1       20.5590    7.0130  -10.7920 O.2    51  A51        -0.5172
   1104  OP2       19.3110    4.8880  -10.0960 O.co2  51  A51        -0.4373
   1105  P         23.2580    5.2730   -4.9980 P.3    52  A52         0.2141
   1106  C5'       24.2350    6.7760   -3.0950 C.3    52  A52         0.1812
   1107  O5'       24.4500    6.0950   -4.3120 O.3    52  A52        -0.3114
   1108  C4'       25.1100    8.0110   -3.0260 C.3    52  A52         0.1773
   1109  O4'       25.1200    8.6550   -4.3220 O.3    52  A52        -0.3307
   1110  C3'       24.6170    9.0580   -2.0360 C.3    52  A52         0.1860
   1111  O3'       25.3150    8.9350   -0.8040 O.3    52  A52        -0.3112
   1112  C2'       24.9120   10.3870   -2.7220 C.3    52  A52         0.2309
   1113  O2'       26.2360   10.8340   -2.5100 O.3    52  A52        -0.2156
   1114  C1'       24.7270   10.0050   -4.1820 C.3    52  A52         0.2408
   1115  N1        20.8670   13.2350   -5.1450 N.ar   52  A52        -0.2040
   1116  C2        22.0860   13.4260   -4.6340 C.ar   52  A52         0.2016
   1117  N3        23.0430   12.5310   -4.4060 N.ar   52  A52        -0.2048
   1118  C4        22.6440   11.3020   -4.7650 C.ar   52  A52         0.1692
   1119  C5        21.4290   10.9450   -5.3030 C.ar   52  A52         0.1518
   1120  C6        20.5010   11.9850   -5.4960 C.ar   52  A52         0.1919
   1121  N6        19.2820   11.7910   -6.0060 N.pl3  52  A52        -0.1054
   1122  N7        21.3780    9.5820   -5.5490 N.ar   52  A52        -0.2193
   1123  C8        22.5520    9.1480   -5.1580 C.ar   52  A52         0.1816
   1124  N9        23.3620   10.1370   -4.6740 N.ar   52  A52        -0.2693
   1125  OP1       23.2440    3.9030   -4.4350 O.3    52  A52        -0.4373
   1126  OP2       22.0140    6.0800   -5.0030 O.co2  52  A52        -0.5172
   1127  P         24.4900    9.1350    0.5490 P.3    53  A53         0.2141
   1128  C5'       23.6110   11.3110    1.6620 C.3    53  A53         0.1812
   1129  O5'       24.4110   10.7300    0.6550 O.3    53  A53        -0.3114
   1130  C4'       23.5090   12.8110    1.4820 C.3    53  A53         0.1773
   1131  O4'       23.7220   13.1590    0.0920 O.3    53  A53        -0.3307
   1132  C3'       22.1480   13.3800    1.8640 C.3    53  A53         0.1860
   1133  O3'       22.2040   13.8970    3.1840 O.3    53  A53        -0.3112
   1134  C2'       21.9150   14.4650    0.8200 C.3    53  A53         0.2309
   1135  O2'       22.5410   15.6870    1.1520 O.3    53  A53        -0.2156
   1136  C1'       22.5740   13.8180   -0.3910 C.3    53  A53         0.2408
   1137  N1        18.2600   12.8400   -2.9780 N.ar   53  A53        -0.2040
   1138  C2        18.8130   13.9870   -2.5660 C.ar   53  A53         0.2016
   1139  N3        19.9460   14.1730   -1.8920 N.ar   53  A53        -0.2048
   1140  C4        20.5440   12.9990   -1.6390 C.ar   53  A53         0.1692
   1141  C5        20.1020   11.7410   -1.9950 C.ar   53  A53         0.1518
   1142  C6        18.8860   11.6750   -2.7060 C.ar   53  A53         0.1919
   1143  N6        18.3320   10.5280   -3.1190 N.pl3  53  A53        -0.1054
   1144  N7        20.9870   10.7670   -1.5600 N.ar   53  A53        -0.2193
   1145  C8        21.9310   11.4480   -0.9580 C.ar   53  A53         0.1816
   1146  N9        21.7250   12.7970   -0.9750 N.ar   53  A53        -0.2693
   1147  OP1       25.3100    8.6380    1.6780 O.3    53  A53        -0.4373
   1148  OP2       23.1330    8.5830    0.3300 O.co2  53  A53        -0.5172
   1149  P         22.0160   12.8900    4.4100 P.3    54  U54         0.2141
   1150  C5'       19.4610   13.4000    4.0950 C.3    54  U54         0.1812
   1151  O5'       20.4990   12.4220    4.1890 O.3    54  U54        -0.3114
   1152  C4'       18.4360   13.0480    3.0250 C.3    54  U54         0.1773
   1153  O4'       19.0720   12.2800    1.9700 O.3    54  U54        -0.3307
   1154  C3'       17.2700   12.1660    3.4500 C.3    54  U54         0.1860
   1155  O3'       16.2430   12.9260    4.0820 O.3    54  U54        -0.3112
   1156  C2'       16.7940   11.6420    2.1010 C.3    54  U54         0.2309
   1157  O2'       15.9830   12.5860    1.4300 O.3    54  U54        -0.2156
   1158  C1'       18.1070   11.4540    1.3410 C.3    54  U54         0.2420
   1159  N1        18.5970   10.0360    1.3110 N.ar   54  U54        -0.2534
   1160  C2        17.8490    9.0740    0.6600 C.ar   54  U54         0.3546
   1161  O2        16.7950    9.3090    0.1030 O.2    54  U54        -0.2443
   1162  N3        18.3790    7.8090    0.6870 N.ar   54  U54        -0.1530
   1163  C4        19.5600    7.4170    1.2860 C.ar   54  U54         0.2846
   1164  O4        19.9080    6.2420    1.2250 O.2    54  U54        -0.2650
   1165  C5        20.2860    8.4710    1.9460 C.ar   54  U54         0.0814
   1166  C6        19.7880    9.7130    1.9330 C.ar   54  U54         0.0870
   1167  OP1       22.0910   13.6820    5.6570 O.3    54  U54        -0.4373
   1168  OP2       22.9170   11.7300    4.2250 O.co2  54  U54        -0.5172
   1169  P         15.3060   12.2520    5.1970 P.3    55  G55         0.2141
   1170  C5'       13.4200   12.0940    3.3950 C.3    55  G55         0.1812
   1171  O5'       14.2300   11.4310    4.3410 O.3    55  G55        -0.3114
   1172  C4'       12.8600   11.1040    2.3950 C.3    55  G55         0.1773
   1173  O4'       13.9200   10.4290    1.6720 O.3    55  G55        -0.3307
   1174  C3'       12.1040    9.9440    3.0050 C.3    55  G55         0.1860
   1175  O3'       10.8470   10.3830    3.4890 O.3    55  G55        -0.3112
   1176  C2'       12.0100    9.0580    1.7630 C.3    55  G55         0.2309
   1177  O2'       11.1230    9.5430    0.7760 O.3    55  G55        -0.2156
   1178  C1'       13.4380    9.1680    1.2420 C.3    55  G55         0.2408
   1179  N1        14.5620    4.2210    1.0890 N.ar   55  G55        -0.1709
   1180  C2        13.6070    4.9250    0.3890 C.ar   55  G55         0.2606
   1181  N2        12.8450    4.2290   -0.4670 N.pl3  55  G55        -0.0859
   1182  N3        13.4040    6.2250    0.5160 N.ar   55  G55        -0.1918
   1183  C4        14.2540    6.7790    1.4130 C.ar   55  G55         0.1723
   1184  C5        15.2370    6.1660    2.1570 C.ar   55  G55         0.1748
   1185  C6        15.4430    4.7770    2.0140 C.ar   55  G55         0.3023
   1186  O6        16.2740    4.0670    2.5950 O.2    55  G55        -0.2633
   1187  N7        15.8890    7.0890    2.9650 N.ar   55  G55        -0.2173
   1188  C8        15.2970    8.2250    2.6980 C.ar   55  G55         0.1817
   1189  N9        14.2990    8.1120    1.7620 N.ar   55  G55        -0.2693
   1190  OP1       14.5850   13.3380    5.9000 O.2    55  G55        -0.5172
   1191  OP2       16.1310   11.2900    5.9670 O.co2  55  G55        -0.4373
   1192  P         10.1680    9.6030    4.7050 P.3    56  G56         0.2141
   1193  C5'        9.0460    8.1480    2.8330 C.3    56  G56         0.1812
   1194  O5'        9.8060    8.1910    4.0410 O.3    56  G56        -0.3114
   1195  C4'        8.6360    6.7300    2.4840 C.3    56  G56         0.1773
   1196  O4'        9.7210    6.0250    1.8260 O.3    56  G56        -0.3307
   1197  C3'        8.3060    5.8530    3.6790 C.3    56  G56         0.1860
   1198  O3'        6.9840    6.0990    4.1170 O.3    56  G56        -0.3112
   1199  C2'        8.4220    4.4790    3.0410 C.3    56  G56         0.2309
   1200  O2'        7.2720    4.1760    2.2790 O.3    56  G56        -0.2156
   1201  C1'        9.6530    4.6500    2.1490 C.3    56  G56         0.2408
   1202  N1        12.9900    1.0080    3.5320 N.ar   56  G56        -0.1709
   1203  C2        11.8350    0.8820    2.7960 C.ar   56  G56         0.2606
   1204  N2        11.5420   -0.3620    2.3860 N.pl3  56  G56        -0.0859
   1205  N3        11.0290    1.8990    2.4840 N.ar   56  G56        -0.1918
   1206  C4        11.4810    3.0770    2.9780 C.ar   56  G56         0.1723
   1207  C5        12.6170    3.3000    3.7190 C.ar   56  G56         0.1748
   1208  C6        13.4580    2.2140    4.0440 C.ar   56  G56         0.3023
   1209  O6        14.5030    2.2390    4.6970 O.2    56  G56        -0.2633
   1210  N7        12.7410    4.6400    4.0460 N.ar   56  G56        -0.2173
   1211  C8        11.6960    5.2000    3.5070 C.ar   56  G56         0.1817
   1212  N9        10.8870    4.3140    2.8400 N.ar   56  G56        -0.2693
   1213  OP1        8.8890   10.2590    5.0640 O.2    56  G56        -0.5172
   1214  OP2       11.2170    9.4250    5.7320 O.co2  56  G56        -0.4373
   1215  P          6.6250    5.7950    5.6410 P.3    57  U57         0.2141
   1216  C5'        7.4160    3.6300    6.9400 C.3    57  U57         0.1812
   1217  O5'        7.3830    4.4020    5.7540 O.3    57  U57        -0.3114
   1218  C4'        7.7330    2.2400    6.4430 C.3    57  U57         0.1773
   1219  O4'        8.9880    2.2560    5.7120 O.3    57  U57        -0.3307
   1220  C3'        7.9570    1.1670    7.4760 C.3    57  U57         0.1860
   1221  O3'        6.7180    0.7970    8.0480 O.3    57  U57        -0.3112
   1222  C2'        8.4850    0.1100    6.5220 C.3    57  U57         0.2309
   1223  O2'        7.4520   -0.3660    5.6950 O.3    57  U57        -0.2156
   1224  C1'        9.4680    0.9270    5.6910 C.3    57  U57         0.2420
   1225  N1        10.8120    0.9150    6.2840 N.ar   57  U57        -0.2534
   1226  C2        11.4890   -0.2800    6.2920 C.ar   57  U57         0.3546
   1227  O2        11.0270   -1.3040    5.8270 O.2    57  U57        -0.2443
   1228  N3        12.7330   -0.2350    6.8640 N.ar   57  U57        -0.1530
   1229  C4        13.3370    0.8770    7.4150 C.ar   57  U57         0.2846
   1230  O4        14.4570    0.7490    7.8870 O.2    57  U57        -0.2650
   1231  C5        12.5690    2.1010    7.3750 C.ar   57  U57         0.0814
   1232  C6        11.3480    2.0730    6.8220 C.ar   57  U57         0.0870
   1233  OP1        5.1710    5.5400    5.7830 O.2    57  U57        -0.5172
   1234  OP2        7.3020    6.7960    6.5030 O.co2  57  U57        -0.4373
   1235  P          6.5890    0.7770    9.6470 P.3    58  G58         0.2141
   1236  C5'        7.5410   -1.6440    9.5360 C.3    58  G58         0.1812
   1237  O5'        7.6730   -0.3380   10.0500 O.3    58  G58        -0.3114
   1238  C4'        8.8380   -2.4000    9.7190 C.3    58  G58         0.1773
   1239  O4'        9.9000   -1.7260    9.0100 O.3    58  G58        -0.3307
   1240  C3'        9.3610   -2.4330   11.1430 C.3    58  G58         0.1860
   1241  O3'        8.6740   -3.4300   11.8630 O.3    58  G58        -0.3112
   1242  C2'       10.8110   -2.8190   10.8970 C.3    58  G58         0.2309
   1243  O2'       10.9730   -4.1740   10.5390 O.3    58  G58        -0.2156
   1244  C1'       11.1170   -1.9390    9.6960 C.3    58  G58         0.2408
   1245  N1        15.0140    0.7470   11.6000 N.ar   58  G58        -0.1709
   1246  C2        14.9360   -0.6010   11.3710 C.ar   58  G58         0.2606
   1247  N2        16.0440   -1.2990   11.6880 N.pl3  58  G58        -0.0859
   1248  N3        13.8590   -1.2100   10.8700 N.ar   58  G58        -0.1918
   1249  C4        12.8540   -0.3360   10.6130 C.ar   58  G58         0.1723
   1250  C5        12.8400    1.0210   10.8100 C.ar   58  G58         0.1748
   1251  C6        13.9890    1.6550   11.3420 C.ar   58  G58         0.3023
   1252  O6        14.1610    2.8600   11.5890 O.2    58  G58        -0.2633
   1253  N7        11.6170    1.5560   10.4220 N.ar   58  G58        -0.2173
   1254  C8        10.9240    0.5380   10.0040 C.ar   58  G58         0.1817
   1255  N9        11.6150   -0.6330   10.0850 N.ar   58  G58        -0.2693
   1256  OP1        5.2440    0.2630    9.9930 O.2    58  G58        -0.5172
   1257  OP2        7.0450    2.0920   10.1620 O.co2  58  G58        -0.4373
   1258  P          8.2250   -3.1390   13.3610 P.3    59  C59         0.2141
   1259  C5'       10.3510   -4.4870   14.0320 C.3    59  C59         0.1812
   1260  O5'        9.6070   -3.2860   14.1680 O.3    59  C59        -0.3114
   1261  C4'       11.7770   -4.3250   14.5200 C.3    59  C59         0.1773
   1262  O4'       12.4980   -3.4340   13.6310 O.3    59  C59        -0.3307
   1263  C3'       11.9040   -3.6540   15.8770 C.3    59  C59         0.1860
   1264  O3'       11.7860   -4.6160   16.9020 O.3    59  C59        -0.3112
   1265  C2'       13.3260   -3.1140   15.8310 C.3    59  C59         0.2309
   1266  O2'       14.2840   -4.1280   16.0160 O.3    59  C59        -0.2156
   1267  C1'       13.3800   -2.6310   14.3950 C.3    59  C59         0.2420
   1268  N1        12.9210   -1.2600   14.3240 N.ar   59  C59        -0.2535
   1269  C2        13.8770   -0.2850   14.5200 C.ar   59  C59         0.3532
   1270  O2        15.0310   -0.6620   14.7340 O.2    59  C59        -0.2443
   1271  N3        13.5100    1.0140   14.4640 N.ar   59  C59        -0.1739
   1272  C4        12.2400    1.3360   14.2220 C.ar   59  C59         0.1759
   1273  N4        11.9360    2.6400   14.1750 N.pl3  59  C59        -0.1070
   1274  C5        11.2380    0.3340   14.0260 C.ar   59  C59         0.0566
   1275  C6        11.6170   -0.9500   14.0840 C.ar   59  C59         0.0850
   1276  OP1        7.3470   -4.2490   13.7680 O.3    59  C59        -0.4373
   1277  OP2        7.7450   -1.7400   13.4320 O.co2  59  C59        -0.5172
   1278  P         11.2520   -4.1800   18.3470 P.3    60  C60         0.2141
   1279  C5'       13.6980   -4.0720   19.2640 C.3    60  C60         0.1812
   1280  O5'       12.4880   -3.4040   18.9920 O.3    60  C60        -0.3114
   1281  C4'       14.6490   -3.1020   19.9440 C.3    60  C60         0.1773
   1282  O4'       15.0500   -2.0780   18.9980 O.3    60  C60        -0.3307
   1283  C3'       14.0750   -2.3440   21.1440 C.3    60  C60         0.1860
   1284  O3'       14.2480   -3.1130   22.3300 O.3    60  C60        -0.3112
   1285  C2'       15.0070   -1.1450   21.1880 C.3    60  C60         0.2309
   1286  O2'       16.2470   -1.5000   21.7760 O.3    60  C60        -0.2156
   1287  C1'       15.2140   -0.8610   19.7010 C.3    60  C60         0.2420
   1288  N1        14.2780    0.1460   19.1360 N.ar   60  C60        -0.2535
   1289  C2        14.5880    1.4920   19.3130 C.ar   60  C60         0.3532
   1290  O2        15.6160    1.7710   19.9400 O.2    60  C60        -0.2443
   1291  N3        13.7530    2.4350   18.8000 N.ar   60  C60        -0.1739
   1292  C4        12.6590    2.0640   18.1320 C.ar   60  C60         0.1759
   1293  N4        11.8680    3.0300   17.6430 N.pl3  60  C60        -0.1070
   1294  C5        12.3260    0.6880   17.9410 C.ar   60  C60         0.0566
   1295  C6        13.1540   -0.2310   18.4560 C.ar   60  C60         0.0850
   1296  OP1       11.0520   -5.4380   19.0930 O.3    60  C60        -0.4373
   1297  OP2       10.1320   -3.2170   18.1820 O.co2  60  C60        -0.5172
   1298  P         13.2880   -2.9850   23.5980 P.3    61  A61         0.2141
   1299  C5'       14.6200   -5.1820   24.1460 C.3    61  A61         0.1812
   1300  O5'       13.9530   -4.0180   24.6270 O.3    61  A61        -0.3114
   1301  C4'       15.1940   -6.0020   25.2880 C.3    61  A61         0.1773
   1302  O4'       14.3230   -5.9380   26.4430 O.3    61  A61        -0.3307
   1303  C3'       15.2980   -7.4900   25.0020 C.3    61  A61         0.1860
   1304  O3'       16.4970   -7.7520   24.3060 O.3    61  A61        -0.3112
   1305  C2'       15.3860   -8.0570   26.4060 C.3    61  A61         0.2309
   1306  O2'       16.6940   -7.8910   26.9040 O.3    61  A61        -0.2156
   1307  C1'       14.4610   -7.1350   27.1870 C.3    61  A61         0.2408
   1308  N1        11.9410  -10.7520   29.7640 N.ar   61  A61        -0.2040
   1309  C2        13.2300  -10.4030   29.7360 C.ar   61  A61         0.2016
   1310  N3        13.8100   -9.4330   29.0290 N.ar   61  A61        -0.2048
   1311  C4        12.9140   -8.7790   28.2760 C.ar   61  A61         0.1692
   1312  C5        11.5580   -9.0150   28.2000 C.ar   61  A61         0.1518
   1313  C6        11.0570  -10.0640   29.0010 C.ar   61  A61         0.1919
   1314  N6         9.7610  -10.4140   29.0360 N.pl3  61  A61        -0.1054
   1315  N7        10.9560   -8.1330   27.3110 N.ar   61  A61        -0.2193
   1316  C8        11.9520   -7.3870   26.8860 C.ar   61  A61         0.1816
   1317  N9        13.1610   -7.7290   27.4310 N.ar   61  A61        -0.2693
   1318  OP1       11.9500   -3.4970   23.2380 O.2    61  A61        -0.5172
   1319  OP2       13.4530   -1.6120   24.1320 O.co2  61  A61        -0.4373
   1320  P         16.5020   -8.9390   23.2400 P.3    62  A62         0.2141
   1321  C5'       17.6940  -10.5010   24.9630 C.3    62  A62         0.1812
   1322  O5'       16.5950  -10.2860   24.1080 O.3    62  A62        -0.3114
   1323  C4'       17.3940  -11.6350   25.9090 C.3    62  A62         0.1773
   1324  O4'       16.2880  -11.2580   26.7630 O.3    62  A62        -0.3307
   1325  C3'       16.9150  -12.8890   25.2040 C.3    62  A62         0.1860
   1326  O3'       18.0410  -13.6360   24.7680 O.3    62  A62        -0.3112
   1327  C2'       16.1770  -13.5720   26.3470 C.3    62  A62         0.2309
   1328  O2'       17.0910  -14.1400   27.2540 O.3    62  A62        -0.2156
   1329  C1'       15.4740  -12.3970   27.0170 C.3    62  A62         0.2408
   1330  N1        10.4180  -13.2380   27.6060 N.ar   62  A62        -0.2040
   1331  C2        11.4820  -13.6350   28.3060 C.ar   62  A62         0.2016
   1332  N3        12.7700  -13.3760   28.0930 N.ar   62  A62        -0.2048
   1333  C4        12.9390  -12.6090   27.0090 C.ar   62  A62         0.1692
   1334  C5        11.9460  -12.1170   26.1830 C.ar   62  A62         0.1518
   1335  C6        10.6170  -12.4630   26.5140 C.ar   62  A62         0.1919
   1336  N6         9.5460  -12.0630   25.8140 N.pl3  62  A62        -0.1054
   1337  N7        12.4920  -11.3540   25.1600 N.ar   62  A62        -0.2193
   1338  C8        13.7880  -11.4080   25.3870 C.ar   62  A62         0.1816
   1339  N9        14.1290  -12.1510   26.4940 N.ar   62  A62        -0.2693
   1340  OP1       17.7730   -8.8280   22.4840 O.2    62  A62        -0.5172
   1341  OP2       15.1700   -8.9190   22.5840 O.co2  62  A62        -0.4373
   1342  P         17.8620  -15.0650   24.0690 P.3    63  U63         0.2141
   1343  C5'       18.3400  -13.8880   21.8450 C.3    63  U63         0.1812
   1344  O5'       17.4560  -14.7060   22.5740 O.3    63  U63        -0.3114
   1345  C4'       18.3910  -14.3850   20.4200 C.3    63  U63         0.1773
   1346  O4'       18.9060  -15.7420   20.4180 O.3    63  U63        -0.3307
   1347  C3'       17.0320  -14.4510   19.7430 C.3    63  U63         0.1860
   1348  O3'       17.2250  -14.2400   18.3550 O.3    63  U63        -0.3112
   1349  C2'       16.6240  -15.8810   20.0650 C.3    63  U63         0.2309
   1350  O2'       15.6660  -16.4030   19.1720 O.3    63  U63        -0.2156
   1351  C1'       17.9480  -16.5860   19.8370 C.3    63  U63         0.2420
   1352  N1        17.9660  -17.8850   20.5140 N.ar   63  U63        -0.2534
   1353  C2        17.9540  -19.0340   19.7480 C.ar   63  U63         0.3546
   1354  O2        17.9490  -19.0260   18.5270 O.2    63  U63        -0.2443
   1355  N3        17.9560  -20.2000   20.4660 N.ar   63  U63        -0.1530
   1356  C4        17.9600  -20.3210   21.8400 C.ar   63  U63         0.2846
   1357  O4        17.9580  -21.4410   22.3420 O.2    63  U63        -0.2650
   1358  C5        17.9650  -19.0830   22.5720 C.ar   63  U63         0.0814
   1359  C6        17.9670  -17.9270   21.8930 C.ar   63  U63         0.0870
   1360  OP1       16.6990  -15.7690   24.6610 O.3    63  U63        -0.4373
   1361  OP2       19.2050  -15.6790   24.0290 O.co2  63  U63        -0.5172
   1362  P         16.6060  -12.9430   17.6380 P.3    64  U64         0.2141
   1363  C5'       13.9990  -12.5650   17.6030 C.3    64  U64         0.1812
   1364  O5'       15.0920  -13.4460   17.4290 O.3    64  U64        -0.3114
   1365  C4'       12.6600  -13.2980   17.6210 C.3    64  U64         0.1773
   1366  O4'       12.3490  -13.9260   16.3430 O.3    64  U64        -0.3307
   1367  C3'       12.5520  -14.4190   18.6450 C.3    64  U64         0.1860
   1368  O3'       11.4280  -14.1610   19.4410 O.3    64  U64        -0.3112
   1369  C2'       12.3620  -15.6600   17.7810 C.3    64  U64         0.2309
   1370  O2'       11.5900  -16.6380   18.4180 O.3    64  U64        -0.2156
   1371  C1'       11.5860  -15.0790   16.6160 C.3    64  U64         0.2420
   1372  N1        11.5940  -15.9720   15.4450 N.ar   64  U64        -0.2534
   1373  C2        10.4670  -16.7170   15.1320 C.ar   64  U64         0.3546
   1374  O2         9.4260  -16.6690   15.7610 O.2    64  U64        -0.2443
   1375  N3        10.5860  -17.5290   14.0330 N.ar   64  U64        -0.1530
   1376  C4        11.7020  -17.6680   13.2280 C.ar   64  U64         0.2846
   1377  O4        11.6580  -18.4300   12.2660 O.2    64  U64        -0.2650
   1378  C5        12.8470  -16.8730   13.6190 C.ar   64  U64         0.0814
   1379  C6        12.7520  -16.0710   14.6920 C.ar   64  U64         0.0870
   1380  OP1       17.2370  -12.8360   16.3070 O.2    64  U64        -0.5172
   1381  OP2       16.6650  -11.7770   18.5550 O.co2  64  U64        -0.4373
   1382  P         11.5160  -13.0030   20.5370 P.3    65  C65         0.2141
   1383  C5'       13.3870  -13.9870   22.1100 C.3    65  C65         0.1812
   1384  O5'       11.9990  -13.8020   21.8410 O.3    65  C65        -0.3114
   1385  C4'       13.6100  -15.0070   23.2160 C.3    65  C65         0.1773
   1386  O4'       12.9520  -14.6130   24.4520 O.3    65  C65        -0.3307
   1387  C3'       13.0350  -16.3700   22.9110 C.3    65  C65         0.1860
   1388  O3'       13.9700  -17.0640   22.1200 O.3    65  C65        -0.3112
   1389  C2'       12.9080  -16.9620   24.3150 C.3    65  C65         0.2309
   1390  O2'       14.1350  -17.4110   24.8470 O.3    65  C65        -0.2156
   1391  C1'       12.4300  -15.7530   25.1070 C.3    65  C65         0.2420
   1392  N1        10.9640  -15.6800   25.0940 N.ar   65  C65        -0.2535
   1393  C2        10.2350  -16.5050   25.9550 C.ar   65  C65         0.3532
   1394  O2        10.8390  -17.2650   26.7180 O.2    65  C65        -0.2443
   1395  N3         8.8820  -16.4470   25.9320 N.ar   65  C65        -0.1739
   1396  C4         8.2650  -15.6180   25.0870 C.ar   65  C65         0.1759
   1397  N4         6.9260  -15.6020   25.1080 N.pl3  65  C65        -0.1070
   1398  C5         8.9930  -14.7720   24.1950 C.ar   65  C65         0.0566
   1399  C6        10.3290  -14.8350   24.2270 C.ar   65  C65         0.0850
   1400  OP1       10.1370  -12.5270   20.7780 O.3    65  C65        -0.4373
   1401  OP2       12.5920  -12.0620   20.1450 O.co2  65  C65        -0.5172
   1402  P         13.4750  -18.2200   21.1430 P.3    66  C66         0.2141
   1403  C5'       14.1480  -20.0490   22.9070 C.3    66  C66         0.1812
   1404  O5'       13.1360  -19.4180   22.1230 O.3    66  C66        -0.3114
   1405  C4'       13.4790  -21.0650   23.8160 C.3    66  C66         0.1773
   1406  O4'       12.5340  -20.3920   24.6870 O.3    66  C66        -0.3307
   1407  C3'       12.6180  -22.0580   23.0630 C.3    66  C66         0.1860
   1408  O3'       13.4220  -23.1230   22.5830 O.3    66  C66        -0.3112
   1409  C2'       11.5970  -22.5040   24.1160 C.3    66  C66         0.2309
   1410  O2'       12.0490  -23.5540   24.9610 O.3    66  C66        -0.2156
   1411  C1'       11.4060  -21.2200   24.9140 C.3    66  C66         0.2420
   1412  N1        10.2170  -20.4490   24.4970 N.ar   66  C66        -0.2535
   1413  C2         8.9900  -20.7710   25.0570 C.ar   66  C66         0.3532
   1414  O2         8.9580  -21.6980   25.8580 O.2    66  C66        -0.2443
   1415  N3         7.8830  -20.0740   24.7030 N.ar   66  C66        -0.1739
   1416  C4         7.9830  -19.0820   23.8180 C.ar   66  C66         0.1759
   1417  N4         6.8600  -18.4220   23.4980 N.pl3  66  C66        -0.1070
   1418  C5         9.2380  -18.7260   23.2310 C.ar   66  C66         0.0566
   1419  C6        10.3220  -19.4300   23.5910 C.ar   66  C66         0.0850
   1420  OP1       14.6260  -18.6310   20.3060 O.2    66  C66        -0.5172
   1421  OP2       12.2100  -17.7870   20.5250 O.co2  66  C66        -0.4373
   1422  P         12.8960  -23.9200   21.3020 P.3    67  U67         0.2141
   1423  C5'       11.2480  -25.4520   22.6000 C.3    67  U67         0.1812
   1424  O5'       11.4030  -24.3280   21.7410 O.3    67  U67        -0.3114
   1425  C4'        9.7980  -25.7350   22.9440 C.3    67  U67         0.1773
   1426  O4'        9.1980  -24.5330   23.4790 O.3    67  U67        -0.3307
   1427  C3'        8.9120  -26.1490   21.7830 C.3    67  U67         0.1860
   1428  O3'        8.9460  -27.5560   21.6460 O.3    67  U67        -0.3112
   1429  C2'        7.5310  -25.6640   22.2170 C.3    67  U67         0.2309
   1430  O2'        6.8340  -26.6080   23.0050 O.3    67  U67        -0.2156
   1431  C1'        7.8490  -24.4490   23.0720 C.3    67  U67         0.2420
   1432  N1         7.7570  -23.1870   22.3450 N.ar   67  U67        -0.2534
   1433  C2         6.5760  -22.4880   22.3830 C.ar   67  U67         0.3546
   1434  O2         5.6010  -22.8950   22.9880 O.2    67  U67        -0.2443
   1435  N3         6.5890  -21.3020   21.6880 N.ar   67  U67        -0.1530
   1436  C4         7.6590  -20.7930   20.9870 C.ar   67  U67         0.2846
   1437  O4         7.5380  -19.7330   20.4120 O.2    67  U67        -0.2650
   1438  C5         8.8590  -21.5800   20.9940 C.ar   67  U67         0.0814
   1439  C6         8.8680  -22.7330   21.6660 C.ar   67  U67         0.0870
   1440  OP1       13.7070  -25.1550   21.2220 O.3    67  U67        -0.4373
   1441  OP2       12.8120  -22.9810   20.1550 O.co2  67  U67        -0.5172
   1442  P          8.6900  -28.2690   20.2310 P.3    68  G68         0.2141
   1443  C5'        6.3010  -29.2280   20.7580 C.3    68  G68         0.1812
   1444  O5'        7.0980  -28.2590   20.1120 O.3    68  G68        -0.3114
   1445  C4'        4.8520  -28.9310   20.4350 C.3    68  G68         0.1773
   1446  O4'        4.5670  -27.6050   20.9420 O.3    68  G68        -0.3307
   1447  C3'        4.5450  -28.8490   18.9440 C.3    68  G68         0.1860
   1448  O3'        4.1960  -30.1190   18.3490 O.3    68  G68        -0.3112
   1449  C2'        3.4320  -27.8070   18.8640 C.3    68  G68         0.2309
   1450  O2'        2.1430  -28.3400   19.1040 O.3    68  G68        -0.2156
   1451  C1'        3.8120  -26.8650   20.0010 C.3    68  G68         0.2408
   1452  N1         3.4920  -21.9250   19.0900 N.ar   68  G68        -0.1709
   1453  C2         2.5290  -22.8210   19.5060 C.ar   68  G68         0.2606
   1454  N2         1.2900  -22.3480   19.7210 N.pl3  68  G68        -0.0859
   1455  N3         2.7640  -24.1060   19.7080 N.ar   68  G68        -0.1918
   1456  C4         4.0480  -24.4300   19.4540 C.ar   68  G68         0.1723
   1457  C5         5.0820  -23.6270   19.0350 C.ar   68  G68         0.1748
   1458  C6         4.8260  -22.2490   18.8220 C.ar   68  G68         0.3023
   1459  O6         5.6150  -21.3650   18.4430 O.2    68  G68        -0.2633
   1460  N7         6.2470  -24.3710   18.8900 N.ar   68  G68        -0.2173
   1461  C8         5.8940  -25.5880   19.2220 C.ar   68  G68         0.1817
   1462  N9         4.5670  -25.6910   19.5730 N.ar   68  G68        -0.2693
   1463  OP1        9.1450  -29.6720   20.3710 O.3    68  G68        -0.4373
   1464  OP2        9.2420  -27.4250   19.1450 O.co2  68  G68        -0.5172
   1465  P          3.2860  -31.2920   18.9750 P.3    69  C69         0.2141
   1466  C5'        2.5330  -31.8810   16.5170 C.3    69  C69         0.1812
   1467  O5'        3.2280  -32.2690   17.7060 O.3    69  C69        -0.3114
   1468  C4'        3.3300  -32.1290   15.2380 C.3    69  C69         0.1773
   1469  O4'        3.9780  -30.8990   14.8180 O.3    69  C69        -0.3307
   1470  C3'        4.4760  -33.1370   15.2900 C.3    69  C69         0.1860
   1471  O3'        4.0340  -34.4830   15.1630 O.3    69  C69        -0.3112
   1472  C2'        5.2710  -32.7290   14.0550 C.3    69  C69         0.2309
   1473  O2'        4.7120  -33.2280   12.8580 O.3    69  C69        -0.2156
   1474  C1'        5.1560  -31.2080   14.0950 C.3    69  C69         0.2420
   1475  N1         6.3210  -30.6040   14.7870 N.ar   69  C69        -0.2535
   1476  C2         7.5730  -30.6250   14.1600 C.ar   69  C69         0.3532
   1477  O2         7.6790  -31.1390   13.0410 O.2    69  C69        -0.2443
   1478  N3         8.6330  -30.0800   14.8010 N.ar   69  C69        -0.1739
   1479  C4         8.4760  -29.5420   16.0110 C.ar   69  C69         0.1759
   1480  N4         9.5520  -29.0110   16.6010 N.pl3  69  C69        -0.1070
   1481  C5         7.2110  -29.5160   16.6670 C.ar   69  C69         0.0566
   1482  C6         6.1710  -30.0540   16.0270 C.ar   69  C69         0.0850
   1483  OP1        1.9060  -30.8070   19.2260 O.2    69  C69        -0.5172
   1484  OP2        4.0610  -31.9700   20.0390 O.co2  69  C69        -0.4373
   1485  P          4.8330  -35.6480   15.9190 P.3    70  A70         0.2141
   1486  C5'        5.9700  -36.4170   13.7040 C.3    70  A70         0.1812
   1487  O5'        6.1200  -35.8980   15.0050 O.3    70  A70        -0.3114
   1488  C4'        7.1830  -36.1100   12.8530 C.3    70  A70         0.1773
   1489  O4'        7.4600  -34.6910   12.8940 O.3    70  A70        -0.3307
   1490  C3'        8.4910  -36.7120   13.3340 C.3    70  A70         0.1860
   1491  O3'        8.5710  -38.0890   13.0220 O.3    70  A70        -0.3112
   1492  C2'        9.4890  -35.8590   12.5480 C.3    70  A70         0.2309
   1493  O2'        9.6180  -36.2110   11.1850 O.3    70  A70        -0.2156
   1494  C1'        8.8450  -34.4800   12.6640 C.3    70  A70         0.2408
   1495  N1        13.1020  -32.2710   14.5360 N.ar   70  A70        -0.2040
   1496  C2        12.8670  -32.9520   13.4090 C.ar   70  A70         0.2016
   1497  N3        11.7270  -33.4990   12.9830 N.ar   70  A70        -0.2048
   1498  C4        10.7340  -33.2930   13.8640 C.ar   70  A70         0.1692
   1499  C5        10.8200  -32.6110   15.0610 C.ar   70  A70         0.1518
   1500  C6        12.0810  -32.0780   15.4010 C.ar   70  A70         0.1919
   1501  N6        12.3100  -31.3980   16.5300 N.pl3  70  A70        -0.1054
   1502  N7         9.5930  -32.5990   15.7030 N.ar   70  A70        -0.2193
   1503  C8         8.8020  -33.2650   14.8940 C.ar   70  A70         0.1816
   1504  N9         9.4260  -33.7080   13.7620 N.ar   70  A70        -0.2693
   1505  OP1        4.0000  -36.8680   15.8680 O.2    70  A70        -0.5172
   1506  OP2        5.2820  -35.1150   17.2230 O.co2  70  A70        -0.4373
   1507  P          9.3490  -39.0430   14.0340 P.3    71  G71         0.2141
   1508  C5'       10.9840  -38.9280   12.0490 C.3    71  G71         0.1812
   1509  O5'       10.8280  -39.0080   13.4410 O.3    71  G71        -0.3114
   1510  C4'       12.4030  -38.5410   11.7120 C.3    71  G71         0.1773
   1511  O4'       12.5450  -37.1100   11.8360 O.3    71  G71        -0.3307
   1512  C3'       13.4400  -39.0870   12.6710 C.3    71  G71         0.1860
   1513  O3'       13.7590  -40.4280   12.3640 O.3    71  G71        -0.3112
   1514  C2'       14.6040  -38.1410   12.4000 C.3    71  G71         0.2309
   1515  O2'       15.2830  -38.3930   11.1880 O.3    71  G71        -0.2156
   1516  C1'       13.8550  -36.8220   12.2940 C.3    71  G71         0.2408
   1517  N1        16.3800  -34.0860   15.7600 N.ar   71  G71        -0.1709
   1518  C2        16.8460  -34.6570   14.5960 C.ar   71  G71         0.2606
   1519  N2        18.1490  -34.4680   14.3310 N.pl3  71  G71        -0.0859
   1520  N3        16.0860  -35.3610   13.7610 N.ar   71  G71        -0.1918
   1521  C4        14.8050  -35.4440   14.2000 C.ar   71  G71         0.1723
   1522  C5        14.2490  -34.9120   15.3410 C.ar   71  G71         0.1748
   1523  C6        15.0670  -34.1640   16.2220 C.ar   71  G71         0.3023
   1524  O6        14.7520  -33.6150   17.2880 O.2    71  G71        -0.2633
   1525  N7        12.9010  -35.2220   15.4270 N.ar   71  G71        -0.2173
   1526  C8        12.6670  -35.9240   14.3550 C.ar   71  G71         0.1817
   1527  N9        13.7760  -36.0980   13.5630 N.ar   71  G71        -0.2693
   1528  OP1        8.8170  -40.4150   13.8910 O.2    71  G71        -0.5172
   1529  OP2        9.3520  -38.3860   15.3590 O.co2  71  G71        -0.4373
   1530  P         14.1290  -41.4250   13.5600 P.3    72  C72         0.2141
   1531  C5'       16.6600  -41.0050   13.2040 C.3    72  C72         0.1812
   1532  O5'       15.5370  -40.8630   14.0630 O.3    72  C72        -0.3114
   1533  C4'       17.8910  -40.3310   13.7790 C.3    72  C72         0.1773
   1534  O4'       17.6970  -38.8960   13.8560 O.3    72  C72        -0.3307
   1535  C3'       18.2100  -40.7230   15.2060 C.3    72  C72         0.1860
   1536  O3'       18.8780  -41.9720   15.2360 O.3    72  C72        -0.3112
   1537  C2'       19.0950  -39.5580   15.6350 C.3    72  C72         0.2309
   1538  O2'       20.4040  -39.6040   15.1040 O.3    72  C72        -0.2156
   1539  C1'       18.3120  -38.4010   15.0310 C.3    72  C72         0.2420
   1540  N1        17.2500  -37.9250   15.9490 N.ar   72  C72        -0.2535
   1541  C2        17.5720  -36.9970   16.9450 C.ar   72  C72         0.3532
   1542  O2        18.7430  -36.5930   17.0210 O.2    72  C72        -0.2443
   1543  N3        16.5920  -36.5730   17.7870 N.ar   72  C72        -0.1739
   1544  C4        15.3480  -37.0490   17.6510 C.ar   72  C72         0.1759
   1545  N4        14.4020  -36.6140   18.4930 N.pl3  72  C72        -0.1070
   1546  C5        15.0070  -37.9980   16.6400 C.ar   72  C72         0.0566
   1547  C6        15.9810  -38.4050   15.8190 C.ar   72  C72         0.0850
   1548  OP1       14.4120  -42.7570   12.9830 O.2    72  C72        -0.5172
   1549  OP2       13.0890  -41.2750   14.6040 O.co2  72  C72        -0.4373
   1550  P         18.5640  -42.9580   16.4550 P.3    73  G73         0.2141
   1551  C5'       20.7090  -42.2670   17.6790 C.3    73  G73         0.1812
   1552  O5'       19.2950  -42.1910   17.6480 O.3    73  G73        -0.3114
   1553  C4'       21.2780  -41.5260   18.8700 C.3    73  G73         0.1773
   1554  O4'       20.8490  -40.1510   18.8030 O.3    73  G73        -0.3307
   1555  C3'       20.7800  -41.9730   20.2320 C.3    73  G73         0.1860
   1556  O3'       21.4610  -43.1290   20.6690 O.3    73  G73        -0.3112
   1557  C2'       21.2170  -40.7710   21.0420 C.3    73  G73         0.2309
   1558  O2'       22.6190  -40.7730   21.2170 O.3    73  G73        -0.2156
   1559  C1'       20.7880  -39.6390   20.1130 C.3    73  G73         0.2408
   1560  N1        17.8090  -36.8110   23.0650 N.ar   73  G73        -0.1709
   1561  C2        19.1730  -37.0090   23.1230 C.ar   73  G73         0.2606
   1562  N2        19.8400  -36.3750   24.1050 N.pl3  73  G73        -0.0859
   1563  N3        19.8410  -37.7830   22.2790 N.ar   73  G73        -0.1918
   1564  C4        19.0190  -38.3460   21.3620 C.ar   73  G73         0.1723
   1565  C5        17.6570  -38.2130   21.2190 C.ar   73  G73         0.1748
   1566  C6        16.9520  -37.3830   22.1250 C.ar   73  G73         0.3023
   1567  O6        15.7390  -37.1360   22.1650 O.2    73  G73        -0.2633
   1568  N7        17.2040  -38.9690   20.1430 N.ar   73  G73        -0.2173
   1569  C8        18.2810  -39.5330   19.6650 C.ar   73  G73         0.1817
   1570  N9        19.4190  -39.1960   20.3570 N.ar   73  G73        -0.2693
   1571  OP1       19.3150  -44.2140   16.2530 O.2    73  G73        -0.5172
   1572  OP2       17.0980  -42.9770   16.6780 O.co2  73  G73        -0.4373
   1573  P         20.5910  -44.2670   21.3720 P.3    74  G74         0.2141
   1574  C5'       21.3260  -43.3720   23.7410 C.3    74  G74         0.1812
   1575  O5'       20.2800  -43.6480   22.8170 O.3    74  G74        -0.3114
   1576  C4'       20.7580  -42.5870   24.9020 C.3    74  G74         0.1773
   1577  O4'       20.3870  -41.2610   24.4480 O.3    74  G74        -0.3307
   1578  C3'       19.4580  -43.1420   25.4470 C.3    74  G74         0.1860
   1579  O3'       19.7170  -44.2300   26.3240 O.3    74  G74        -0.3112
   1580  C2'       18.9500  -41.9040   26.1770 C.3    74  G74         0.2309
   1581  O2'       19.6360  -41.6720   27.3840 O.3    74  G74        -0.2156
   1582  C1'       19.2390  -40.8150   25.1450 C.3    74  G74         0.2408
   1583  N1        14.5120  -39.1290   24.6770 N.ar   74  G74        -0.1709
   1584  C2        15.4100  -38.9450   25.6970 C.ar   74  G74         0.2606
   1585  N2        14.9890  -38.2210   26.7460 N.pl3  74  G74        -0.0859
   1586  N3        16.6380  -39.4400   25.6920 N.ar   74  G74        -0.1918
   1587  C4        16.8890  -40.1320   24.5620 C.ar   74  G74         0.1723
   1588  C5        16.0640  -40.3740   23.4960 C.ar   74  G74         0.1748
   1589  C6        14.7570  -39.8490   23.5130 C.ar   74  G74         0.3023
   1590  O6        13.8750  -39.9460   22.6470 O.2    74  G74        -0.2633
   1591  N7        16.7110  -41.1390   22.5380 N.ar   74  G74        -0.2173
   1592  C8        17.8950  -41.3490   23.0410 C.ar   74  G74         0.1817
   1593  N9        18.0760  -40.7510   24.2670 N.ar   74  G74        -0.2693
   1594  OP1       21.4570  -45.4570   21.5680 O.3    74  G74        -0.4373
   1595  OP2       19.3110  -44.3460   20.6190 O.co2  74  G74        -0.5172
   1596  P         18.8930  -45.6010   26.1990 P.3    75  A75         0.2141
   1597  C5'       16.3730  -46.1140   26.6490 C.3    75  A75         0.1812
   1598  O5'       17.4240  -45.1690   26.6380 O.3    75  A75        -0.3114
   1599  C4'       15.4080  -45.7720   27.7670 C.3    75  A75         0.1773
   1600  O4'       15.9770  -46.1730   29.0370 O.3    75  A75        -0.3307
   1601  C3'       15.1250  -44.2860   27.9010 C.3    75  A75         0.1860
   1602  O3'       13.9730  -43.9630   27.1560 O.3    75  A75        -0.3112
   1603  C2'       14.8650  -44.1230   29.3910 C.3    75  A75         0.2309
   1604  O2'       13.5220  -44.4370   29.6990 O.3    75  A75        -0.2156
   1605  C1'       15.8050  -45.1570   30.0060 C.3    75  A75         0.2408
   1606  N1        18.7230  -42.2960   33.1970 N.ar   75  A75        -0.2040
   1607  C2        17.4000  -42.4960   33.1410 C.ar   75  A75         0.2016
   1608  N3        16.6970  -43.2470   32.2900 N.ar   75  A75        -0.2048
   1609  C4        17.5030  -43.8520   31.4030 C.ar   75  A75         0.1692
   1610  C5        18.8810  -43.7430   31.3400 C.ar   75  A75         0.1518
   1611  C6        19.5110  -42.9160   32.2930 C.ar   75  A75         0.1919
   1612  N6        20.8320  -42.7170   32.3400 N.pl3  75  A75        -0.1054
   1613  N7        19.3800  -44.4970   30.2970 N.ar   75  A75        -0.2193
   1614  C8        18.3120  -45.0420   29.7640 C.ar   75  A75         0.1816
   1615  N9        17.1420  -44.6940   30.3760 N.ar   75  A75        -0.2693
   1616  OP1       19.4250  -46.5310   27.2200 O.3    75  A75        -0.4373
   1617  OP2       18.8490  -46.0140   24.7770 O.co2  75  A75        -0.5172
   1618  P         13.9210  -42.5390   26.4410 P.3    76  A76         0.2141
   1619  C5'       12.5630  -41.4730   28.4040 C.3    76  A76         0.1812
   1620  O5'       13.7870  -41.5510   27.6880 O.3    76  A76        -0.3114
   1621  C4'       12.7460  -40.7250   29.7130 C.3    76  A76         0.1773
   1622  O4'       13.8530  -41.3120   30.4390 O.3    76  A76        -0.3307
   1623  C3'       13.0960  -39.2480   29.5830 C.3    76  A76         0.1860
   1624  O3'       11.9010  -38.4740   29.5150 O.3    76  A76        -0.3112
   1625  C2'       13.8000  -38.9940   30.9030 C.3    76  A76         0.2309
   1626  O2'       12.8570  -38.8280   31.9400 O.3    76  A76        -0.2156
   1627  C1'       14.5560  -40.2970   31.1320 C.3    76  A76         0.2408
   1628  N1        19.4560  -39.2410   32.3160 N.ar   76  A76        -0.2040
   1629  C2        18.3170  -39.0680   32.9980 C.ar   76  A76         0.2016
   1630  N3        17.0740  -39.3630   32.6330 N.ar   76  A76        -0.2048
   1631  C4        17.0530  -39.8970   31.3990 C.ar   76  A76         0.1692
   1632  C5        18.1390  -40.1360   30.5790 C.ar   76  A76         0.1518
   1633  C6        19.4090  -39.7840   31.0810 C.ar   76  A76         0.1919
   1634  N6        20.5480  -39.9530   30.3990 N.pl3  76  A76        -0.1054
   1635  N7        17.7390  -40.7000   29.3820 N.ar   76  A76        -0.2193
   1636  C8        16.4360  -40.7880   29.5020 C.ar   76  A76         0.1816
   1637  N9        15.9510  -40.3160   30.6910 N.ar   76  A76        -0.2693
   1638  OP1       12.6800  -42.4310   25.6430 O.2    76  A76        -0.5172
   1639  OP2       15.2370  -42.3560   25.7940 O.co2  76  A76        -0.4373
   1640  P         11.9060  -36.9980   28.9030 P.3    77  A77         0.2141
   1641  C5'       12.3980  -35.6350   31.0810 C.3    77  A77         0.1812
   1642  O5'       12.8820  -36.1880   29.8680 O.3    77  A77        -0.3114
   1643  C4'       13.5400  -34.9840   31.8390 C.3    77  A77         0.1773
   1644  O4'       14.5460  -35.9960   32.0850 O.3    77  A77        -0.3307
   1645  C3'       14.2860  -33.8780   31.1030 C.3    77  A77         0.1860
   1646  O3'       13.6790  -32.6160   31.3320 O.3    77  A77        -0.3112
   1647  C2'       15.6150  -33.9200   31.8280 C.3    77  A77         0.2309
   1648  O2'       15.5050  -33.3360   33.1040 O.3    77  A77        -0.2156
   1649  C1'       15.8320  -35.4110   31.9730 C.3    77  A77         0.2408
   1650  N1        20.2300  -37.1070   29.9590 N.ar   77  A77        -0.2040
   1651  C2        19.9440  -36.5650   31.1500 C.ar   77  A77         0.2016
   1652  N3        18.7720  -36.1360   31.6200 N.ar   77  A77        -0.2048
   1653  C4        17.8100  -36.3200   30.7050 C.ar   77  A77         0.1692
   1654  C5        17.9450  -36.8670   29.4400 C.ar   77  A77         0.1518
   1655  C6        19.2390  -37.2740   29.0630 C.ar   77  A77         0.1919
   1656  N6        19.5180  -37.8150   27.8730 N.pl3  77  A77        -0.1054
   1657  N7        16.7250  -36.8950   28.7750 N.ar   77  A77        -0.2193
   1658  C8        15.8890  -36.3750   29.6400 C.ar   77  A77         0.1816
   1659  N9        16.4810  -36.0050   30.8200 N.ar   77  A77        -0.2693
   1660  OP1       10.5630  -36.4060   29.0560 O.3    77  A77        -0.4373
   1661  OP2       12.5370  -37.0920   27.5710 O.co2  77  A77        -0.5172
   1662  P         13.3760  -31.5880   30.1420 P.3    78  C78         0.2141
   1663  C5'       15.9540  -31.0000   29.9880 C.3    78  C78         0.1812
   1664  O5'       14.7610  -31.4160   29.3400 O.3    78  C78        -0.3114
   1665  C4'       17.2170  -31.4880   29.2860 C.3    78  C78         0.1773
   1666  O4'       17.2440  -32.9400   29.2080 O.3    78  C78        -0.3307
   1667  C3'       17.4480  -31.0100   27.8540 C.3    78  C78         0.1860
   1668  O3'       17.9680  -29.6620   27.8270 O.3    78  C78        -0.3112
   1669  C2'       18.4730  -32.0550   27.4080 C.3    78  C78         0.2309
   1670  O2'       19.7660  -31.8510   27.9470 O.3    78  C78        -0.2156
   1671  C1'       17.8690  -33.3290   27.9970 C.3    78  C78         0.2420
   1672  N1        16.8500  -33.9000   27.0680 N.ar   78  C78        -0.2535
   1673  C2        17.2620  -34.7480   26.0380 C.ar   78  C78         0.3532
   1674  O2        18.4580  -35.0280   25.9330 O.2    78  C78        -0.2443
   1675  N3        16.3420  -35.2490   25.1850 N.ar   78  C78        -0.1739
   1676  C4        15.0600  -34.9240   25.3310 C.ar   78  C78         0.1759
   1677  N4        14.1850  -35.4470   24.4650 N.pl3  78  C78        -0.1070
   1678  C5        14.6170  -34.0540   26.3710 C.ar   78  C78         0.0566
   1679  C6        15.5370  -33.5660   27.2080 C.ar   78  C78         0.0850
   1680  OP1       13.0220  -30.3230   30.8150 O.3    78  C78        -0.4373
   1681  OP2       12.4170  -32.1980   29.1960 O.co2  78  C78        -0.5172
   1682  P         17.8360  -28.7370   26.5160 P.3    79  G79         0.2141
   1683  C5'       20.1550  -29.8140   25.8810 C.3    79  G79         0.1812
   1684  O5'       18.8110  -29.5110   25.5080 O.3    79  G79        -0.3114
   1685  C4'       20.8580  -30.5960   24.7870 C.3    79  G79         0.1773
   1686  O4'       20.3470  -31.9550   24.7650 O.3    79  G79        -0.3307
   1687  C3'       20.6410  -30.1060   23.3590 C.3    79  G79         0.1860
   1688  O3'       21.5080  -29.0070   23.0510 O.3    79  G79        -0.3112
   1689  C2'       21.0440  -31.3650   22.6060 C.3    79  G79         0.2309
   1690  O2'       22.4440  -31.5320   22.6220 O.3    79  G79        -0.2156
   1691  C1'       20.3800  -32.4580   23.4410 C.3    79  G79         0.2408
   1692  N1        17.6170  -34.9700   20.0100 N.ar   79  G79        -0.1709
   1693  C2        18.9840  -34.9320   20.1820 C.ar   79  G79         0.2606
   1694  N2        19.7220  -35.6560   19.3240 N.pl3  79  G79        -0.0859
   1695  N3        19.5950  -34.2330   21.1320 N.ar   79  G79        -0.1918
   1696  C4        18.7050  -33.5640   21.9050 C.ar   79  G79         0.1723
   1697  C5        17.3300  -33.5400   21.8170 C.ar   79  G79         0.1748
   1698  C6        16.6920  -34.2900   20.7980 C.ar   79  G79         0.3023
   1699  O6        15.4770  -34.3920   20.5610 O.2    79  G79        -0.2633
   1700  N7        16.7870  -32.7300   22.8030 N.ar   79  G79        -0.2173
   1701  C8        17.8300  -32.2870   23.4500 C.ar   79  G79         0.1817
   1702  N9        19.0280  -32.7570   22.9680 N.ar   79  G79        -0.2693
   1703  OP1       18.3940  -27.4010   26.8330 O.3    79  G79        -0.4373
   1704  OP2       16.4600  -28.7900   25.9780 O.co2  79  G79        -0.5172
   1705  P         21.2020  -27.9420   21.8900 P.3    80  U80         0.2141
   1706  C5'       22.4170  -29.3290   20.0260 C.3    80  U80         0.1812
   1707  O5'       21.1980  -28.8340   20.5630 O.3    80  U80        -0.3114
   1708  C4'       22.1560  -30.1530   18.7770 C.3    80  U80         0.1773
   1709  O4'       21.4170  -31.3460   19.1290 O.3    80  U80        -0.3307
   1710  C3'       21.2920  -29.4840   17.7210 C.3    80  U80         0.1860
   1711  O3'       22.0880  -28.6110   16.9360 O.3    80  U80        -0.3112
   1712  C2'       20.8250  -30.7040   16.9350 C.3    80  U80         0.2309
   1713  O2'       21.8270  -31.2740   16.1140 O.3    80  U80        -0.2156
   1714  C1'       20.5100  -31.6450   18.0900 C.3    80  U80         0.2420
   1715  N1        19.1300  -31.4580   18.5810 N.ar   80  U80        -0.2534
   1716  C2        18.1580  -32.1910   17.9590 C.ar   80  U80         0.3546
   1717  O2        18.4240  -32.9600   17.0570 O.2    80  U80        -0.2443
   1718  N3        16.8860  -31.9940   18.4290 N.ar   80  U80        -0.1530
   1719  C4        16.4990  -31.1390   19.4430 C.ar   80  U80         0.2846
   1720  O4        15.3120  -31.0720   19.7530 O.2    80  U80        -0.2650
   1721  C5        17.5800  -30.3920   20.0440 C.ar   80  U80         0.0814
   1722  C6        18.8320  -30.5750   19.5980 C.ar   80  U80         0.0870
   1723  OP1       22.3620  -27.0310   21.8460 O.2    80  U80        -0.5172
   1724  OP2       19.8450  -27.3740   22.0460 O.co2  80  U80        -0.4373
   1725  P         21.4490  -27.4890   15.9910 P.3    81  U81         0.2141
   1726  C5'       21.5080  -28.7900   13.7290 C.3    81  U81         0.1812
   1727  O5'       20.7450  -28.2940   14.8050 O.3    81  U81        -0.3114
   1728  C4'       20.6180  -29.5590   12.7740 C.3    81  U81         0.1773
   1729  O4'       19.9480  -30.6140   13.5040 O.3    81  U81        -0.3307
   1730  C3'       19.4790  -28.7590   12.1570 C.3    81  U81         0.1860
   1731  O3'       19.9280  -27.9920   11.0340 O.3    81  U81        -0.3112
   1732  C2'       18.5340  -29.8840   11.7420 C.3    81  U81         0.2309
   1733  O2'       18.9220  -30.5450   10.5510 O.3    81  U81        -0.2156
   1734  C1'       18.6670  -30.8220   12.9380 C.3    81  U81         0.2420
   1735  N1        17.6370  -30.5190   13.9490 N.ar   81  U81        -0.2534
   1736  C2        16.3780  -31.0480   13.7770 C.ar   81  U81         0.3546
   1737  O2        16.0780  -31.7610   12.8390 O.2    81  U81        -0.2443
   1738  N3        15.4730  -30.7120   14.7480 N.ar   81  U81        -0.1530
   1739  C4        15.7060  -29.9200   15.8510 C.ar   81  U81         0.2846
   1740  O4        14.7960  -29.7140   16.6370 O.2    81  U81        -0.2650
   1741  C5        17.0450  -29.4000   15.9600 C.ar   81  U81         0.0814
   1742  C6        17.9440  -29.7100   15.0210 C.ar   81  U81         0.0870
   1743  OP1       22.6350  -26.7790   15.4710 O.2    81  U81        -0.5172
   1744  OP2       20.3600  -26.7550   16.6870 O.co2  81  U81        -0.4373
   1745  P         19.1030  -26.7040   10.5450 P.3    82  G82         0.2141
   1746  C5'       17.9570  -28.3170    8.8250 C.3    82  G82         0.1812
   1747  O5'       17.8040  -27.3380    9.8550 O.3    82  G82        -0.3114
   1748  C4'       16.6210  -28.9020    8.3970 C.3    82  G82         0.1773
   1749  O4'       16.1640  -29.8510    9.3900 O.3    82  G82        -0.3307
   1750  C3'       15.4730  -27.9130    8.2860 C.3    82  G82         0.1860
   1751  O3'       15.4860  -27.2620    7.0240 O.3    82  G82        -0.3112
   1752  C2'       14.2790  -28.8510    8.3840 C.3    82  G82         0.2309
   1753  O2'       14.0550  -29.5470    7.1760 O.3    82  G82        -0.2156
   1754  C1'       14.7510  -29.8110    9.4640 C.3    82  G82         0.2408
   1755  N1        11.0600  -29.7210   12.9510 N.ar   82  G82        -0.1709
   1756  C2        11.0660  -30.2890   11.7050 C.ar   82  G82         0.2606
   1757  N2         9.9350  -30.9110   11.3470 N.pl3  82  G82        -0.0859
   1758  N3        12.0980  -30.2500   10.8760 N.ar   82  G82        -0.1918
   1759  C4        13.1470  -29.5810   11.4040 C.ar   82  G82         0.1723
   1760  C5        13.2440  -28.9840   12.6350 C.ar   82  G82         0.1748
   1761  C6        12.1310  -29.0370   13.5100 C.ar   82  G82         0.3023
   1762  O6        12.0140  -28.5680   14.6480 O.2    82  G82        -0.2633
   1763  N7        14.4970  -28.4020   12.7960 N.ar   82  G82        -0.2173
   1764  C8        15.1220  -28.6530   11.6840 C.ar   82  G82         0.1817
   1765  N9        14.3610  -29.3680   10.7940 N.ar   82  G82        -0.2693
   1766  OP1       19.9270  -26.0510    9.5040 O.2    82  G82        -0.5172
   1767  OP2       18.6670  -25.9230   11.7220 O.co2  82  G82        -0.4373
   1768  P         14.3820  -26.1530    6.7070 P.3    83  A83         0.2141
   1769  C5'       11.7940  -26.2570    7.0170 C.3    83  A83         0.1812
   1770  O5'       13.0040  -26.9710    6.7990 O.3    83  A83        -0.3114
   1771  C4'       10.6360  -27.1850    7.3250 C.3    83  A83         0.1773
   1772  O4'       10.8920  -27.9480    8.5320 O.3    83  A83        -0.3307
   1773  C3'        9.3240  -26.4710    7.6020 C.3    83  A83         0.1860
   1774  O3'        8.6520  -26.2110    6.3740 O.3    83  A83        -0.3112
   1775  C2'        8.5840  -27.5120    8.4300 C.3    83  A83         0.2309
   1776  O2'        8.0980  -28.5640    7.6280 O.3    83  A83        -0.2156
   1777  C1'        9.7080  -28.0380    9.3140 C.3    83  A83         0.2408
   1778  N1         7.6420  -26.9890   13.9410 N.ar   83  A83        -0.2040
   1779  C2         7.2300  -27.7630   12.9310 C.ar   83  A83         0.2016
   1780  N3         7.8150  -27.9900   11.7570 N.ar   83  A83        -0.2048
   1781  C4         8.9740  -27.3170   11.6520 C.ar   83  A83         0.1692
   1782  C5         9.5300  -26.4840   12.6070 C.ar   83  A83         0.1518
   1783  C6         8.8100  -26.3240   13.8120 C.ar   83  A83         0.1919
   1784  N6         9.2290  -25.5570   14.8230 N.pl3  83  A83        -0.1054
   1785  N7        10.7330  -25.9570   12.1570 N.ar   83  A83        -0.2193
   1786  C8        10.8760  -26.4770   10.9580 C.ar   83  A83         0.1816
   1787  N9         9.8520  -27.3080   10.5830 N.ar   83  A83        -0.2693
   1788  OP1       14.5830  -25.7510    5.2970 O.2    83  A83        -0.5172
   1789  OP2       14.4150  -25.1370    7.7870 O.co2  83  A83        -0.4373
   1790  P          7.9860  -24.7880    6.1060 P.3    84  A84         0.2141
   1791  C5'        5.8280  -25.9410    7.0820 C.3    84  A84         0.1812
   1792  O5'        6.7030  -24.8170    7.0700 O.3    84  A84        -0.3114
   1793  C4'        5.0430  -25.9740    8.3800 C.3    84  A84         0.1773
   1794  O4'        5.9050  -26.3720    9.4770 O.3    84  A84        -0.3307
   1795  C3'        4.4880  -24.6270    8.8030 C.3    84  A84         0.1860
   1796  O3'        3.2180  -24.4270    8.2080 O.3    84  A84        -0.3112
   1797  C2'        4.3820  -24.7690   10.3200 C.3    84  A84         0.2309
   1798  O2'        3.2210  -25.4630   10.7280 O.3    84  A84        -0.2156
   1799  C1'        5.6090  -25.6080   10.6350 C.3    84  A84         0.2408
   1800  N1         8.0380  -22.7700   14.2200 N.ar   84  A84        -0.2040
   1801  C2         6.8580  -23.4050   14.2450 C.ar   84  A84         0.2016
   1802  N3         6.2790  -24.1250   13.2840 N.ar   84  A84        -0.2048
   1803  C4         7.0480  -24.1690   12.1800 C.ar   84  A84         0.1692
   1804  C5         8.2820  -23.5650   12.0080 C.ar   84  A84         0.1518
   1805  C6         8.7950  -22.8310   13.0970 C.ar   84  A84         0.1919
   1806  N6         9.9790  -22.2000   13.0620 N.pl3  84  A84        -0.1054
   1807  N7         8.7820  -23.8240   10.7420 N.ar   84  A84        -0.2193
   1808  C8         7.8600  -24.5640   10.1780 C.ar   84  A84         0.1816
   1809  N9         6.7840  -24.8120   10.9830 N.ar   84  A84        -0.2693
   1810  OP1        7.5120  -24.7980    4.7010 O.2    84  A84        -0.5172
   1811  OP2        8.9250  -23.7370    6.5750 O.co2  84  A84        -0.4373
   1812  P          2.8630  -22.9990    7.5770 P.3    85  A85         0.2141
   1813  C5'        1.7020  -22.2050    9.7920 C.3    85  A85         0.1812
   1814  O5'        2.7660  -22.0450    8.8580 O.3    85  A85        -0.3114
   1815  C4'        2.0470  -21.5650   11.1280 C.3    85  A85         0.1773
   1816  O4'        3.2980  -22.1080   11.6340 O.3    85  A85        -0.3307
   1817  C3'        2.3220  -20.0700   11.1080 C.3    85  A85         0.1860
   1818  O3'        1.1230  -19.2930   11.0360 O.3    85  A85        -0.3112
   1819  C2'        3.0650  -19.9000   12.4360 C.3    85  A85         0.2309
   1820  O2'        2.2300  -19.9830   13.5780 O.3    85  A85        -0.2156
   1821  C1'        3.9640  -21.1230   12.4010 C.3    85  A85         0.2408
   1822  N1         8.5540  -18.8730   12.9410 N.ar   85  A85        -0.2040
   1823  C2         7.4630  -18.8700   13.7150 C.ar   85  A85         0.2016
   1824  N3         6.2960  -19.4750   13.5130 N.ar   85  A85        -0.2048
   1825  C4         6.3070  -20.1570   12.3560 C.ar   85  A85         0.1692
   1826  C5         7.3530  -20.2550   11.4550 C.ar   85  A85         0.1518
   1827  C6         8.5410  -19.5630   11.7800 C.ar   85  A85         0.1919
   1828  N6         9.6410  -19.5610   11.0130 N.pl3  85  A85        -0.1054
   1829  N7         6.9970  -21.0460   10.3730 N.ar   85  A85        -0.2193
   1830  C8         5.7620  -21.3990   10.6420 C.ar   85  A85         0.1816
   1831  N9         5.2810  -20.8970   11.8170 N.ar   85  A85        -0.2693
   1832  OP1        1.5040  -23.1120    6.9960 O.3    85  A85        -0.4373
   1833  OP2        4.0060  -22.5660    6.7340 O.co2  85  A85        -0.5172
   1834  P          1.1580  -17.9600   10.1410 P.3    86  G86         0.2141
   1835  C5'        1.5990  -16.5210   12.2880 C.3    86  G86         0.1812
   1836  O5'        2.0470  -16.9480   11.0090 O.3    86  G86        -0.3114
   1837  C4'        2.7070  -15.7980   13.0340 C.3    86  G86         0.1773
   1838  O4'        3.8680  -16.6570   13.1790 O.3    86  G86        -0.3307
   1839  C3'        3.2510  -14.5730   12.3270 C.3    86  G86         0.1860
   1840  O3'        2.3930  -13.4870   12.5700 O.3    86  G86        -0.3112
   1841  C2'        4.5830  -14.4120   13.0490 C.3    86  G86         0.2309
   1842  O2'        4.4350  -13.8650   14.3470 O.3    86  G86        -0.2156
   1843  C1'        5.0360  -15.8650   13.1450 C.3    86  G86         0.2408
   1844  N1         9.6460  -15.7630   11.0200 N.ar   86  G86        -0.1709
   1845  C2         9.2000  -15.1660   12.1840 C.ar   86  G86         0.2606
   1846  N2        10.1010  -14.4470   12.8720 N.pl3  86  G86        -0.0859
   1847  N3         7.9540  -15.2630   12.6420 N.ar   86  G86        -0.1918
   1848  C4         7.1790  -16.0200   11.8220 C.ar   86  G86         0.1723
   1849  C5         7.5270  -16.6560   10.6450 C.ar   86  G86         0.1748
   1850  C6         8.8550  -16.5410   10.1660 C.ar   86  G86         0.3023
   1851  O6         9.3460  -17.0340    9.1370 O.2    86  G86        -0.2633
   1852  N7         6.4370  -17.3340   10.1140 N.ar   86  G86        -0.2173
   1853  C8         5.4690  -17.0970   10.9620 C.ar   86  G86         0.1817
   1854  N9         5.8510  -16.3100   12.0240 N.ar   86  G86        -0.2693
   1855  OP1       -0.2120  -17.3970   10.0760 O.3    86  G86        -0.4373
   1856  OP2        1.9120  -18.2890    8.9080 O.co2  86  G86        -0.5172
   1857  P          2.3420  -12.2520   11.5620 P.3    87  A87         0.2141
   1858  C5'        3.9870  -10.9030   13.0210 C.3    87  A87         0.1812
   1859  O5'        3.7340  -11.5150   11.7820 O.3    87  A87        -0.3114
   1860  C4'        5.3850  -10.3490   12.9670 C.3    87  A87         0.1773
   1861  O4'        6.3320  -11.4360   12.9030 O.3    87  A87        -0.3307
   1862  C3'        5.6520   -9.5710   11.7020 C.3    87  A87         0.1860
   1863  O3'        5.1790   -8.2690   11.9250 O.3    87  A87        -0.3112
   1864  C2'        7.1640   -9.5930   11.7280 C.3    87  A87         0.2309
   1865  O2'        7.6390   -8.7280   12.7380 O.3    87  A87        -0.2156
   1866  C1'        7.4240  -11.0390   12.1090 C.3    87  A87         0.2408
   1867  N1        10.3340  -13.2990    8.5280 N.ar   87  A87        -0.2040
   1868  C2        10.6340  -12.4450    9.5160 C.ar   87  A87         0.2016
   1869  N3         9.8240  -11.8910   10.4180 N.ar   87  A87        -0.2048
   1870  C4         8.5620  -12.3040   10.2370 C.ar   87  A87         0.1692
   1871  C5         8.0970  -13.1720    9.2660 C.ar   87  A87         0.1518
   1872  C6         9.0510  -13.6900    8.3670 C.ar   87  A87         0.1919
   1873  N6         8.7580  -14.5450    7.3800 N.pl3  87  A87        -0.1054
   1874  N7         6.7250  -13.3550    9.3910 N.ar   87  A87        -0.2193
   1875  C8         6.3930  -12.6060   10.4190 C.ar   87  A87         0.1816
   1876  N9         7.4570  -11.9400   10.9690 N.ar   87  A87        -0.2693
   1877  OP1        1.2760  -11.3550   12.0700 O.3    87  A87        -0.4373
   1878  OP2        2.3400  -12.7660   10.1720 O.co2  87  A87        -0.5172
   1879  P          4.6010   -7.3670   10.7460 P.3    88  U88         0.2141
   1880  C5'        6.7510   -6.0020   10.4180 C.3    88  U88         0.1812
   1881  O5'        5.9160   -7.0070    9.9190 O.3    88  U88        -0.3114
   1882  C4'        8.0220   -5.9600    9.6050 C.3    88  U88         0.1773
   1883  O4'        8.6830   -7.2440    9.6760 O.3    88  U88        -0.3307
   1884  C3'        7.8200   -5.7790    8.1220 C.3    88  U88         0.1860
   1885  O3'        7.6040   -4.4240    7.8490 O.3    88  U88        -0.3112
   1886  C2'        9.2000   -6.1740    7.6570 C.3    88  U88         0.2309
   1887  O2'       10.1480   -5.2120    8.0660 O.3    88  U88        -0.2156
   1888  C1'        9.3860   -7.4350    8.4730 C.3    88  U88         0.2420
   1889  N1         8.8550   -8.6400    7.8270 N.ar   88  U88        -0.2534
   1890  C2         9.6770   -9.2330    6.9140 C.ar   88  U88         0.3546
   1891  O2        10.7680   -8.7750    6.6450 O.2    88  U88        -0.2443
   1892  N3         9.1870  -10.3650    6.3320 N.ar   88  U88        -0.1530
   1893  C4         7.9620  -10.9460    6.5860 C.ar   88  U88         0.2846
   1894  O4         7.6760  -11.9660    5.9710 O.2    88  U88        -0.2650
   1895  C5         7.1390  -10.2700    7.5660 C.ar   88  U88         0.0814
   1896  C6         7.6110   -9.1570    8.1460 C.ar   88  U88         0.0870
   1897  OP1        4.1350   -6.1220   11.3940 O.3    88  U88        -0.4373
   1898  OP2        3.6820   -8.1620    9.8940 O.co2  88  U88        -0.5172
   1899  P          6.8310   -4.0650    6.5010 P.3    89  G89         0.2141
   1900  C5'        8.9960   -3.3690    5.2590 C.3    89  G89         0.1812
   1901  O5'        8.0150   -4.3670    5.4750 O.3    89  G89        -0.3114
   1902  C4'        9.9940   -3.8690    4.2280 C.3    89  G89         0.1773
   1903  O4'       10.3770   -5.2260    4.5510 O.3    89  G89        -0.3307
   1904  C3'        9.4740   -3.9950    2.7990 C.3    89  G89         0.1860
   1905  O3'        9.5010   -2.7470    2.1510 O.3    89  G89        -0.3112
   1906  C2'       10.5280   -4.9220    2.2000 C.3    89  G89         0.2309
   1907  O2'       11.7570   -4.2680    1.9270 O.3    89  G89        -0.2156
   1908  C1'       10.6930   -5.9140    3.3490 C.3    89  G89         0.2408
   1909  N1        10.0980  -10.4170    1.1070 N.ar   89  G89        -0.1709
   1910  C2        11.0800   -9.4740    0.9320 C.ar   89  G89         0.2606
   1911  N2        12.0480   -9.7600    0.0420 N.pl3  89  G89        -0.0859
   1912  N3        11.1130   -8.3240    1.5930 N.ar   89  G89        -0.1918
   1913  C4        10.0760   -8.1890    2.4470 C.ar   89  G89         0.1723
   1914  C5         9.0450   -9.0660    2.6890 C.ar   89  G89         0.1748
   1915  C6         9.0200  -10.2920    1.9830 C.ar   89  G89         0.3023
   1916  O6         8.1980  -11.2080    2.0550 O.2    89  G89        -0.2633
   1917  N7         8.1780   -8.5460    3.6470 N.ar   89  G89        -0.2173
   1918  C8         8.6930   -7.3800    3.9420 C.ar   89  G89         0.1817
   1919  N9         9.8490   -7.1020    3.2500 N.ar   89  G89        -0.2693
   1920  OP1        6.5370   -2.6180    6.4930 O.3    89  G89        -0.4373
   1921  OP2        5.6980   -4.9910    6.2780 O.co2  89  G89        -0.5172
   1922  P          8.3120   -2.2860    1.1910 P.3    90  A90         0.2141
   1923  C5'        9.8790   -3.0170   -0.7450 C.3    90  A90         0.1812
   1924  O5'        8.6130   -3.1440   -0.1230 O.3    90  A90        -0.3114
   1925  C4'       10.0630   -4.1330   -1.7510 C.3    90  A90         0.1773
   1926  O4'       10.2730   -5.3950   -1.0510 O.3    90  A90        -0.3307
   1927  C3'        8.8570   -4.3980   -2.6440 C.3    90  A90         0.1860
   1928  O3'        8.7760   -3.4670   -3.7330 O.3    90  A90        -0.3112
   1929  C2'        9.2520   -5.7920   -3.1150 C.3    90  A90         0.2309
   1930  O2'       10.3650   -5.7560   -3.9830 O.3    90  A90        -0.2156
   1931  C1'        9.6850   -6.4400   -1.8030 C.3    90  A90         0.2408
   1932  N1         6.9580  -10.7370   -0.9470 N.ar   90  A90        -0.2040
   1933  C2         7.9810  -10.4670   -1.7580 C.ar   90  A90         0.2016
   1934  N3         8.6390   -9.3220   -1.9250 N.ar   90  A90        -0.2048
   1935  C4         8.1450   -8.3550   -1.1420 C.ar   90  A90         0.1692
   1936  C5         7.0990   -8.4790   -0.2530 C.ar   90  A90         0.1518
   1937  C6         6.4860   -9.7490   -0.1640 C.ar   90  A90         0.1919
   1938  N6         5.4660  -10.0360    0.6450 N.pl3  90  A90        -0.1054
   1939  N7         6.8740   -7.2780    0.3860 N.ar   90  A90        -0.2193
   1940  C8         7.7730   -6.4660   -0.1210 C.ar   90  A90         0.1816
   1941  N9         8.5860   -7.0540   -1.0500 N.ar   90  A90        -0.2693
   1942  OP1        8.5770   -0.8650    0.8930 O.2    90  A90        -0.5172
   1943  OP2        7.0100   -2.6970    1.7640 O.co2  90  A90        -0.4373
   1944  P          7.3750   -3.0180   -4.4020 P.3    91  G91         0.2141
   1945  C5'        7.9670   -4.8050   -6.1880 C.3    91  G91         0.1812
   1946  O5'        7.0240   -4.3280   -5.2480 O.3    91  G91        -0.3114
   1947  C4'        7.4760   -6.0460   -6.9200 C.3    91  G91         0.1773
   1948  O4'        7.7350   -7.2370   -6.1370 O.3    91  G91        -0.3307
   1949  C3'        5.9900   -6.1230   -7.2310 C.3    91  G91         0.1860
   1950  O3'        5.7050   -5.3970   -8.4110 O.3    91  G91        -0.3112
   1951  C2'        5.8590   -7.6200   -7.4640 C.3    91  G91         0.2309
   1952  O2'        6.4880   -8.0220   -8.6600 O.3    91  G91        -0.2156
   1953  C1'        6.6620   -8.1420   -6.2820 C.3    91  G91         0.2408
   1954  N1         3.6570  -10.7720   -3.1310 N.ar   91  G91        -0.1709
   1955  C2         4.2300  -11.1700   -4.3070 C.ar   91  G91         0.2606
   1956  N2         3.9710  -12.4230   -4.6950 N.pl3  91  G91        -0.0859
   1957  N3         5.0070  -10.3960   -5.0480 N.ar   91  G91        -0.1918
   1958  C4         5.1610   -9.1630   -4.5100 C.ar   91  G91         0.1723
   1959  C5         4.6230   -8.6660   -3.3490 C.ar   91  G91         0.1748
   1960  C6         3.8010   -9.5080   -2.5640 C.ar   91  G91         0.3023
   1961  O6         3.2430   -9.2430   -1.4900 O.2    91  G91        -0.2633
   1962  N7         5.0140   -7.3460   -3.1430 N.ar   91  G91        -0.2173
   1963  C8         5.7710   -7.0750   -4.1690 C.ar   91  G91         0.1817
   1964  N9         5.9020   -8.1300   -5.0390 N.ar   91  G91        -0.2693
   1965  OP1        7.6720   -1.9160   -5.3430 O.2    91  G91        -0.5172
   1966  OP2        6.3230   -2.7860   -3.3830 O.co2  91  G91        -0.4373
   1967  P          4.1840   -5.2240   -8.8930 P.3    92  C92         0.2141
   1968  C5'        2.3670   -7.0470   -9.1640 C.3    92  C92         0.1812
   1969  O5'        3.7400   -6.7470   -9.0690 O.3    92  C92        -0.3114
   1970  C4'        2.1720   -8.5480   -9.2130 C.3    92  C92         0.1773
   1971  O4'        2.9380   -9.1710   -8.1510 O.3    92  C92        -0.3307
   1972  C3'        0.7260   -8.9650   -9.0010 C.3    92  C92         0.1860
   1973  O3'        0.0530   -9.0520  -10.2630 O.3    92  C92        -0.3112
   1974  C2'        0.8550  -10.2860   -8.2330 C.3    92  C92         0.2309
   1975  O2'        1.0820  -11.4410   -9.0110 O.3    92  C92        -0.2156
   1976  C1'        2.0920  -10.0090   -7.3920 C.3    92  C92         0.2420
   1977  N1         1.7300   -9.3390   -6.1240 N.ar   92  C92        -0.2535
   1978  C2         1.0940  -10.1040   -5.1370 C.ar   92  C92         0.3532
   1979  O2         0.8660  -11.3060   -5.3560 O.2    92  C92        -0.2443
   1980  N3         0.7500   -9.5090   -3.9690 N.ar   92  C92        -0.1739
   1981  C4         1.0160   -8.2170   -3.7780 C.ar   92  C92         0.1759
   1982  N4         0.6570   -7.6880   -2.6010 N.pl3  92  C92        -0.1070
   1983  C5         1.6560   -7.4180   -4.7760 C.ar   92  C92         0.0566
   1984  C6         1.9930   -8.0140   -5.9280 C.ar   92  C92         0.0850
   1985  OP1        4.2250   -4.5920  -10.2300 O.2    92  C92        -0.5172
   1986  OP2        3.3660   -4.6250   -7.8180 O.co2  92  C92        -0.4373
   1987  P         -1.3370   -8.2800  -10.4590 P.3    93  C93         0.2141
   1988  C5'       -2.3260  -10.6240  -10.1000 C.3    93  C93         0.1812
   1989  O5'       -2.3750   -9.2520   -9.7480 O.3    93  C93        -0.3114
   1990  C4'       -3.2370  -11.4130   -9.1880 C.3    93  C93         0.1773
   1991  O4'       -2.6110  -11.6260   -7.8950 O.3    93  C93        -0.3307
   1992  C3'       -4.5500  -10.7220   -8.8710 C.3    93  C93         0.1860
   1993  O3'       -5.4670  -10.9770   -9.9150 O.3    93  C93        -0.3112
   1994  C2'       -4.9520  -11.4790   -7.6200 C.3    93  C93         0.2309
   1995  O2'       -5.4110  -12.7670   -7.9480 O.3    93  C93        -0.2156
   1996  C1'       -3.6160  -11.5980   -6.8970 C.3    93  C93         0.2420
   1997  N1        -3.3380  -10.4650   -5.9730 N.ar   93  C93        -0.2535
   1998  C2        -3.7780  -10.5290   -4.6490 C.ar   93  C93         0.3532
   1999  O2        -4.3990  -11.5290   -4.2660 O.2    93  C93        -0.2443
   2000  N3        -3.5090   -9.4890   -3.8260 N.ar   93  C93        -0.1739
   2001  C4        -2.8400   -8.4260   -4.2810 C.ar   93  C93         0.1759
   2002  N4        -2.5950   -7.4250   -3.4280 N.pl3  93  C93        -0.1070
   2003  C5        -2.3870   -8.3440   -5.6290 C.ar   93  C93         0.0566
   2004  C6        -2.6550   -9.3780   -6.4280 C.ar   93  C93         0.0850
   2005  OP1       -1.6320   -8.2820  -11.9030 O.2    93  C93        -0.5172
   2006  OP2       -1.3170   -6.9960   -9.7390 O.co2  93  C93        -0.4373
   2007  P         -6.8550  -10.1790   -9.9960 P.3    94  G94         0.2141
   2008  C5'       -9.0710  -10.3980   -8.6600 C.3    94  G94         0.1813
   2009  O5'       -7.7270  -10.8830   -8.8410 O.3    94  G94        -0.3114
   2010  C4'       -9.8750  -11.0730   -7.5500 C.3    94  G94         0.1801
   2011  O4'       -8.9820  -11.5770   -6.5260 O.3    94  G94        -0.3306
   2012  C3'      -10.8990  -10.1650   -6.8560 C.3    94  G94         0.2161
   2013  O3'      -12.2390  -10.6020   -7.1000 O.3    94  G94        -0.2175
   2014  C2'      -10.5860  -10.2850   -5.3700 C.3    94  G94         0.2337
   2015  O2'      -11.4780  -11.1870   -4.7330 O.3    94  G94        -0.2155
   2016  C1'       -9.1410  -10.7900   -5.3640 C.3    94  G94         0.2409
   2017  N1        -6.7230   -7.4640   -2.4380 N.ar   94  G94        -0.1709
   2018  C2        -7.6750   -8.4190   -2.1520 C.ar   94  G94         0.2606
   2019  N2        -8.0680   -8.5410   -0.8910 N.pl3  94  G94        -0.0859
   2020  N3        -8.2280   -9.2330   -3.0260 N.ar   94  G94        -0.1918
   2021  C4        -7.7410   -9.0130   -4.2550 C.ar   94  G94         0.1723
   2022  C5        -6.7960   -8.0960   -4.6670 C.ar   94  G94         0.1748
   2023  C6        -6.2120   -7.2280   -3.7070 C.ar   94  G94         0.3023
   2024  O6        -5.3600   -6.3450   -3.8630 O.2    94  G94        -0.2633
   2025  N7        -6.5900   -8.2120   -6.0400 N.ar   94  G94        -0.2173
   2026  C8        -7.4050   -9.1790   -6.3980 C.ar   94  G94         0.1817
   2027  N9        -8.1400   -9.7150   -5.3590 N.ar   94  G94        -0.2693
   2028  OP1       -7.4880  -10.4750  -11.3030 O.2    94  G94        -0.5172
   2029  OP2       -6.5830   -8.7570   -9.6690 O.co2  94  G94        -0.4373
@<TRIPOS>BOND
     1  2005  1987    2
     2  2028  2007    2
     3  1103  1083    2
     4  1987  1973    1
     5  1987  1989    1
     6  1987  2006    1
     7  1973  1972    1
     8  1985  1967    2
     9  1988  1989    1
    10  1988  1990    1
    11  1104  1083    1
    12  1081  1060    2
    13  2007  1993    1
    14  2007  2029    1
    15  2007  2009    1
    16  1993  1992    1
    17  1083  1066    1
    18  1083  1085    1
    19  1087  1086    1
    20  1087  1092    1
    21  1101  1100   ar
    22  1101  1102   ar
    23  1084  1086    1
    24  1084  1085    1
    25  1100  1097   ar
    26  1970  1968    1
    27  1970  1972    1
    28  1970  1971    1
    29  1990  1992    1
    30  1990  1991    1
    31  1968  1969    1
    32  1969  1967    1
    33  1975  1974    1
    34  1972  1974    1
    35  1967  1950    1
    36  1967  1986    1
    37  1992  1994    1
    38  2009  2008    1
    39  1102  1092    1
    40  1102  1096   ar
    41  1066  1065    1
    42  1086  1088    1
    43  1092  1090    1
    44  1097  1096   ar
    45  1097  1098   ar
    46  2008  2010    1
    47  1952  1951    1
    48  1099  1098    1
    49  1060  1062    1
    50  1060  1082    1
    51  1060  1044    1
    52  1096  1095   ar
    53  1950  1949    1
    54  1098  1093   ar
    55  1061  1062    1
    56  1061  1063    1
    57  1974  1976    1
    58  1971  1976    1
    59  1995  1994    1
    60  1991  1996    1
    61  1095  1094   ar
    62  1044  1043    1
    63  1093  1094   ar
    64  1994  1996    1
    65  1065  1063    1
    66  1065  1067    1
    67  2010  2012    1
    68  2010  2011    1
    69  1063  1064    1
    70  1951  1949    1
    71  1951  1953    1
    72  1976  1977    1
    73  1088  1090    1
    74  1088  1089    1
    75  1090  1091    1
    76  1949  1947    1
    77  2013  2012    1
    78  1947  1945    1
    79  1947  1948    1
    80  1996  1997    1
    81  2012  2014    1
    82  1068  1067    1
    83  1058  1038    2
    84  2011  2016    1
    85  1089  1105    1
    86  1067  1069    1
    87  2004  1997   ar
    88  2004  2003   ar
    89  1043  1041    1
    90  1043  1045    1
    91  1046  1045    1
    92  2026  2025   ar
    93  2026  2027   ar
    94  1953  1948    1
    95  1953  1964    1
    96  1945  1946    1
    97  1039  1041    1
    98  1039  1040    1
    99  1064  1069    1
   100  1977  1984   ar
   101  1977  1978   ar
   102  1041  1042    1
   103  2025  2022   ar
   104  1121  1120    1
   105  1997  1998   ar
   106  1984  1983   ar
   107  1045  1047    1
   108  2003  2001   ar
   109  1040  1038    1
   110  1122  1119   ar
   111  1122  1123   ar
   112    75    74    1
   113  1120  1119   ar
   114  1120  1115   ar
   115  1038  1024    1
   116  1038  1059    1
   117  1069  1080    1
   118  2014  2016    1
   119  2014  2015    1
   120  2016  2027    1
   121  2027  2021   ar
   122  1979  1978    2
   123  1965  1944    2
   124  1119  1118   ar
   125  1946  1944    1
   126  1123  1124   ar
   127  1115  1116   ar
   128  1978  1980   ar
   129  1957  1958   ar
   130  1957  1955   ar
   131  1964  1958   ar
   132  1964  1963   ar
   133  1126  1105    2
   134  1105  1125    1
   135  1105  1107    1
   136  1079  1080   ar
   137  1079  1078   ar
   138  1983  1981   ar
   139  1118  1124   ar
   140  1118  1117   ar
   141  1042  1047    1
   142  1080  1074   ar
   143  1956  1955    1
   144  1124  1114    1
   145  2022  2021   ar
   146  2022  2023   ar
   147  1998  1999    2
   148  1998  2000   ar
   149  1116  1117   ar
   150  1024  1023    1
   151    55    54    1
   152  1958  1959   ar
   153    71    70    1
   154    71    76    1
   155    70    68    1
   156    70    72    1
   157  1047  1057    1
   158  1944  1928    1
   159  1944  1966    1
   160  1109  1114    1
   161  1109  1108    1
   162  1107  1106    1
   163  1955  1954   ar
   164    76    74    1
   165    76    77    1
   166  2001  2000   ar
   167  2001  2002    1
   168  2021  2020   ar
   169    74    72    1
   170  1114  1112    1
   171  1078  1075   ar
   172  1963  1962   ar
   173    59    58    2
   174    36    35    1
   175  1930  1929    1
   176  1980  1981   ar
   177    73    72    1
   178    73    87    1
   179  2024  2023    2
   180    68    69    1
   181  1981  1982    1
   182  1928  1927    1
   183  2023  2017   ar
   184    79    78    2
   185  1074  1075   ar
   186  1074  1073   ar
   187    88    90    1
   188    88    89    1
   189  1026  1025    1
   190  1057  1056   ar
   191  1057  1051   ar
   192   105    87    2
   193  1959  1962   ar
   194  1959  1960   ar
   195  1075  1076   ar
   196    54    56    1
   197    54    52    1
   198    90    91    1
   199    90    92    1
   200  1056  1055   ar
   201  1023  1025    1
   202  1023  1021    1
   203    56    51    1
   204    56    57    1
   205  1954  1960   ar
   206  1143  1142    1
   207  1929  1927    1
   208  1929  1931    1
   209  1106  1108    1
   210    91    96    1
   211    77    78   ar
   212    77    84   ar
   213  1073  1071   ar
   214  1108  1110    1
   215  2020  2018   ar
   216  1137  1142   ar
   217  1137  1138   ar
   218    58    57   ar
   219    58    60   ar
   220    78    80   ar
   221    87    89    1
   222    87   106    1
   223  1025  1027    1
   224    35    34   ar
   225    35    37   ar
   226  1112  1113    1
   227  1112  1110    1
   228  1036  1018    2
   229  1142  1141   ar
   230  1051  1050   ar
   231  1051  1052   ar
   232  1927  1925    1
   233    51    50    1
   234    95    94    1
   235  1050  1049   ar
   236  1138  1139   ar
   237  1960  1961    2
   238  1021  1019    1
   239  1021  1022    1
   240  2017  2018   ar
   241    69    67    1
   242    53    52    1
   243    53    67    1
   244    50    52    1
   245    50    48    1
   246    57    64   ar
   247  1055  1052   ar
   248  1076  1077    2
   249  1076  1070   ar
   250    34    40   ar
   251    60    61   ar
   252  1019  1020    1
   253  2018  2019    1
   254    84    83   ar
   255    93    92    1
   256    93   107    1
   257    37    38   ar
   258    96    94    1
   259    96    97    1
   260  1071  1070   ar
   261  1071  1072    1
   262    85    67    2
   263  1110  1111    1
   264  1141  1140   ar
   265  1141  1144   ar
   266  1052  1053   ar
   267    92    94    1
   268  1934  1933   ar
   269  1934  1935   ar
   270  1139  1140   ar
   271  1931  1926    1
   272  1931  1941    1
   273  1020  1018    1
   274  1933  1932   ar
   275  1925  1926    1
   276  1925  1923    1
   277    80    81   ar
   278    67    86    1
   279  1049  1048   ar
   280  1140  1146   ar
   281    13    12    1
   282  1018  1037    1
   283  1018  1004    1
   284  1144  1145   ar
   285   127   107    2
   286  1027  1022    1
   287  1027  1028    1
   288    48    49    1
   289  1935  1941   ar
   290  1935  1936   ar
   291    64    63   ar
   292  1053  1048   ar
   293  1053  1054    1
   294  1941  1940   ar
   295    83    81   ar
   296  1146  1145   ar
   297  1146  1136    1
   298    97   104   ar
   299    97    98   ar
   300    11    12   ar
   301    11    17   ar
   302  1932  1937   ar
   303    61    63   ar
   304    61    62    1
   305    40    41    2
   306    40    39   ar
   307   107   109    1
   308   107   128    1
   309    32    31    1
   310  1111  1127    1
   311    38    39   ar
   312    38    44   ar
   313   104   103   ar
   314    81    82    2
   315  1923  1924    1
   316   108   109    1
   317   108   110    1
   318    12    14   ar
   319  1028  1035   ar
   320  1028  1029   ar
   321    18    17    2
   322  1181  1180    1
   323  1136  1131    1
   324  1136  1134    1
   325  1004  1003    1
   326  1030  1029    2
   327    99    98    2
   328  1936  1937   ar
   329  1936  1939   ar
   330    31    33    1
   331    31    29    1
   332  1035  1034   ar
   333    39    42   ar
   334    98   100   ar
   335  1937  1938    1
   336    49    47    1
   337  1924  1922    1
   338  1940  1939   ar
   339    17    16   ar
   340  1029  1031   ar
   341    33    44    1
   342    33    28    1
   343  1911  1910    1
   344  1131  1130    1
   345  1161  1160    2
   346   111   110    1
   347   111   116    1
   348   110   112    1
   349    44    43   ar
   350   103   101   ar
   351  1148  1127    2
   352  1180  1182   ar
   353  1180  1179   ar
   354  1182  1183   ar
   355  1127  1129    1
   356  1127  1147    1
   357  1034  1032   ar
   358    14    15   ar
   359  1129  1128    1
   360  1160  1162   ar
   361  1160  1159   ar
   362  1162  1163   ar
   363  1031  1032   ar
   364  1177  1176    1
   365  1006  1005    1
   366  1134  1135    1
   367  1134  1132    1
   368   100   101   ar
   369  1942  1922    2
   370  1910  1909   ar
   371  1910  1912   ar
   372  1003  1005    1
   373  1003  1001    1
   374  1032  1033    1
   375  1179  1185   ar
   376   101   102    2
   377  1909  1915   ar
   378    42    43   ar
   379    28    27    1
   380  1922  1943    1
   381  1922  1905    1
   382  1164  1163    2
   383    16    15   ar
   384    16    19   ar
   385    29    30    1
   386    29    27    1
   387  1178  1173    1
   388  1178  1189    1
   389  1178  1176    1
   390  1163  1165   ar
   391  1005  1007    1
   392  1159  1158    1
   393  1159  1166   ar
   394    30    47    1
   395  1158  1153    1
   396  1158  1156    1
   397   116   126    1
   398   116   114    1
   399    47    65    2
   400    47    66    1
   401  1183  1189   ar
   402  1183  1184   ar
   403  1157  1156    1
   404    15    21   ar
   405  1130  1128    1
   406  1130  1132    1
   407  1912  1913   ar
   408   112   113    1
   409   112   114    1
   410  1173  1172    1
   411  1189  1188   ar
   412  1176  1174    1
   413  1017   998    2
   414   113   129    1
   415  1196  1201    1
   416  1196  1195    1
   417   125   126   ar
   418   125   124   ar
   419    27    25    1
   420  1132  1133    1
   421   115   114    1
   422  1001   999    1
   423  1001  1002    1
   424  1907  1906    1
   425  1166  1165   ar
   426   126   120   ar
   427  1153  1152    1
   428  1915  1916    2
   429  1915  1914   ar
   430  1185  1184   ar
   431  1185  1186    2
   432  1156  1154    1
   433  1201  1212    1
   434  1201  1199    1
   435  1905  1904    1
   436  1184  1187   ar
   437  1906  1904    1
   438  1906  1908    1
   439   999  1000    1
   440  1200  1199    1
   441    19    20   ar
   442  1204  1203    1
   443  1172  1174    1
   444  1172  1170    1
   445  1913  1914   ar
   446  1913  1919   ar
   447  1205  1203   ar
   448  1205  1206   ar
   449  1195  1193    1
   450  1195  1197    1
   451  1000   998    1
   452   124   121   ar
   453  1914  1917   ar
   454  1188  1187   ar
   455   120   121   ar
   456   120   119   ar
   457  1203  1202   ar
   458  1904  1902    1
   459    21    20   ar
   460    21    10    1
   461  1007  1002    1
   462  1007  1008    1
   463  1193  1194    1
   464  1212  1206   ar
   465  1212  1211   ar
   466   147   129    2
   467   998   982    1
   468   998  1016    1
   469  1206  1207   ar
   470  1174  1175    1
   471   129   148    1
   472   129   131    1
   473  1152  1154    1
   474  1152  1150    1
   475  1199  1197    1
   476  1010  1009    2
   477   121   122   ar
   478   119   118   ar
   479  1133  1149    1
   480  1919  1908    1
   481  1919  1918   ar
   482    25    26    1
   483  1908  1903    1
   484   984   983    1
   485  1170  1171    1
   486   982   981    1
   487  1154  1155    1
   488  1008  1009   ar
   489  1008  1015   ar
   490  1175  1192    1
   491  1211  1210   ar
   492  1202  1208   ar
   493  1009  1011   ar
   494    10     8    1
   495    10     5    1
   496  1917  1918   ar
   497  1197  1198    1
   498     8     9    1
   499     8     6    1
   500  1207  1208   ar
   501  1207  1210   ar
   502    26    24    1
   503   122   123    1
   504   122   117   ar
   505   118   117   ar
   506  1015  1014   ar
   507  1194  1192    1
   508  1208  1209    2
   509  1155  1169    1
   510  1150  1151    1
   511  1198  1215    1
   512  1011  1012   ar
   513  1151  1149    1
   514  1168  1149    2
   515  1902  1903    1
   516  1902  1900    1
   517   131   130    1
   518   130   132    1
   519  1171  1169    1
   520  1149  1167    1
   521   981   983    1
   522   981   979    1
   523  1014  1012   ar
   524   983   985    1
   525  1012  1013    1
   526  1810  1790    2
   527  1192  1213    2
   528  1192  1214    1
   529     6     7    1
   530     6     4    1
   531     5     4    1
   532  1169  1190    2
   533  1169  1191    1
   534  1900  1901    1
   535  1788  1768    2
   536    24     7    1
   537    24    46    2
   538    24    45    1
   539   145   146   ar
   540   145   143   ar
   541   985   995    1
   542   985   980    1
   543   133   132    1
   544   133   138    1
   545  1901  1899    1
   546   146   139   ar
   547   132   134    1
   548   988   987   ar
   549   988   989   ar
   550  1215  1217    1
   551  1215  1233    2
   552  1215  1234    1
   553  1224  1219    1
   554  1224  1225    1
   555  1224  1222    1
   556  1223  1222    1
   557  1219  1218    1
   558  1217  1216    1
   559   979   980    1
   560   979   977    1
   561     4     2    1
   562  1227  1226    2
   563   987   986   ar
   564   144   143    2
   565  1894  1893    2
   566    23     1    1
   567   143   142   ar
   568  1790  1774    1
   569  1790  1811    1
   570  1790  1792    1
   571   995   989   ar
   572   995   994   ar
   573   989   990   ar
   574  1921  1899    2
   575  1225  1226   ar
   576  1225  1232   ar
   577  1226  1228   ar
   578  1892  1893   ar
   579  1892  1890   ar
   580  1774  1773    1
   581  1218  1216    1
   582  1218  1220    1
   583   139   138    1
   584   139   140   ar
   585  1920  1899    1
   586  1899  1885    1
   587     3     2    1
   588     3     1    1
   589  1222  1220    1
   590  1893  1895   ar
   591   138   136    1
   592  1891  1890    2
   593   986   991   ar
   594  1768  1770    1
   595  1768  1751    1
   596  1768  1789    1
   597  1833  1812    2
   598  1770  1769    1
   599  1232  1231   ar
   600   134   135    1
   601   134   136    1
   602  1228  1229   ar
   603   977   978    1
   604  1890  1889   ar
   605   994   993   ar
   606   142   140   ar
   607  1832  1812    1
   608  1769  1771    1
   609  1751  1750    1
   610   990   991   ar
   611   990   993   ar
   612  1792  1791    1
   613  1791  1793    1
   614     1    22    1
   615  1753  1752    1
   616   140   141    2
   617   991   992    1
   618  1771  1773    1
   619  1771  1772    1
   620   978   976    1
   621  1231  1229   ar
   622  1873  1872    1
   623  1229  1230    2
   624   135   149    1
   625  1220  1221    1
   626  1895  1896   ar
   627  1812  1796    1
   628  1812  1814    1
   629  1773  1775    1
   630  1776  1775    1
   631  1886  1887    1
   632  1886  1884    1
   633  1886  1888    1
   634   136   137    1
   635  1889  1896   ar
   636  1889  1888    1
   637  1885  1884    1
   638   168   149    2
   639  1221  1235    1
   640  1884  1882    1
   641  1796  1795    1
   642  1750  1752    1
   643  1750  1748    1
   644  1872  1867   ar
   645  1872  1871   ar
   646  1793  1795    1
   647  1793  1794    1
   648  1752  1754    1
   649  1748  1746    1
   650  1748  1749    1
   651   149   167    1
   652   149   151    1
   653  1775  1777    1
   654  1888  1883    1
   655   996   976    2
   656  1867  1868   ar
   657  1772  1777    1
   658   976   997    1
   659   976   960    1
   660  1795  1797    1
   661  1746  1747    1
   662  1814  1813    1
   663  1856  1834    2
   664   164   163    1
   665  1239  1244    1
   666  1239  1238    1
   667   965   964   ar
   668   965   966   ar
   669  1851  1850    2
   670   165   163   ar
   671   165   166   ar
   672   962   961    1
   673  1871  1874   ar
   674  1871  1870   ar
   675   964   969   ar
   676  1777  1787    1
   677  1749  1754    1
   678  1874  1875   ar
   679  1754  1765    1
   680   966   967   ar
   681  1794  1799    1
   682  1766  1745    2
   683  1868  1869   ar
   684  1236  1238    1
   685  1236  1237    1
   686   163   162   ar
   687  1882  1883    1
   688  1882  1880    1
   689   961   959    1
   690   961   963    1
   691  1235  1256    2
   692  1235  1237    1
   693  1235  1257    1
   694  1244  1255    1
   695  1244  1242    1
   696  1238  1240    1
   697   151   150    1
   698  1813  1815    1
   699  1747  1745    1
   700   960   959    1
   701  1898  1879    2
   702   166   159   ar
   703  1881  1880    1
   704  1881  1879    1
   705   969   970    1
   706   969   968   ar
   707  1254  1255   ar
   708  1254  1253   ar
   709  1855  1834    1
   710  1255  1249   ar
   711  1852  1849   ar
   712  1852  1853   ar
   713  1834  1836    1
   714  1834  1818    1
   715   967   968   ar
   716   967   973   ar
   717  1850  1849   ar
   718  1850  1844   ar
   719  1878  1857    2
   720  1808  1807   ar
   721  1808  1809   ar
   722  1870  1869   ar
   723  1870  1876   ar
   724  1797  1799    1
   725  1797  1798    1
   726   959   957    1
   727  1829  1830   ar
   728  1829  1826   ar
   729  1875  1876   ar
   730  1253  1250   ar
   731   150   152    1
   732   968   971   ar
   733  1243  1242    1
   734   162   160   ar
   735  1745  1731    1
   736  1745  1767    1
   737  1733  1732    1
   738  1787  1786   ar
   739  1787  1781   ar
   740  1249  1250   ar
   741  1249  1248   ar
   742  1799  1809    1
   743  1830  1831   ar
   744  1849  1848   ar
   745   963   973    1
   746   963   958    1
   747   973   972   ar
   748  1807  1804   ar
   749  1879  1897    1
   750  1879  1863    1
   751  1765  1759   ar
   752  1765  1764   ar
   753  1250  1251   ar
   754  1248  1246   ar
   755  1758  1759   ar
   756  1758  1756   ar
   757   153   152    1
   758   153   158    1
   759  1242  1240    1
   760   159   160   ar
   761   159   158    1
   762  1786  1785   ar
   763  1853  1854   ar
   764  1876  1866    1
   765  1809  1803   ar
   766  1836  1835    1
   767  1828  1827    1
   768  1844  1845   ar
   769  1731  1730    1
   770  1818  1817    1
   771  1817  1815    1
   772  1817  1819    1
   773  1815  1816    1
   774  1240  1241    1
   775  1493  1492    1
   776   971   972   ar
   777  1515  1514    1
   778   160   161    2
   779  1251  1252    2
   780  1251  1245   ar
   781  1757  1756    1
   782  1246  1245   ar
   783  1246  1247    1
   784  1759  1760   ar
   785  1826  1827   ar
   786  1826  1825   ar
   787   152   154    1
   788  1857  1859    1
   789  1857  1877    1
   790  1857  1840    1
   791  1816  1821    1
   792  1781  1780   ar
   793  1781  1782   ar
   794   158   156    1
   795  1764  1763   ar
   796  1862  1864    1
   797  1862  1863    1
   798  1862  1860    1
   799  1756  1755   ar
   800  1510  1511    1
   801  1510  1508    1
   802  1510  1512    1
   803  1864  1866    1
   804  1864  1865    1
   805  1732  1730    1
   806  1732  1734    1
   807  1780  1779   ar
   808  1827  1822   ar
   809  1859  1858    1
   810   957   958    1
   811   957   955    1
   812  1831  1825   ar
   813  1831  1821    1
   814  1848  1854   ar
   815  1848  1847   ar
   816  1511  1516    1
   817  1241  1258    1
   818  1804  1803   ar
   819  1804  1805   ar
   820  1854  1843    1
   821  1508  1509    1
   822  1866  1861    1
   823  1785  1782   ar
   824  1730  1728    1
   825  1803  1802   ar
   826  1845  1847   ar
   827  1845  1846    1
   828  1377  1376    2
   829  1835  1837    1
   830  1516  1514    1
   831  1516  1527    1
   832  1839  1840    1
   833  1839  1837    1
   834  1839  1841    1
   835  1825  1824   ar
   836  1513  1512    1
   837  1513  1530    1
   838  1514  1512    1
   839  1821  1819    1
   840   154   156    1
   841   154   155    1
   842  1819  1820    1
   843   949   948    1
   844  1492  1494    1
   845  1492  1490    1
   846   956   955    1
   847   956   954    1
   848  1782  1783   ar
   849  1760  1763   ar
   850  1760  1761   ar
   851  1494  1489    1
   852  1494  1504    1
   853  1728  1729    1
   854  1728  1726    1
   855   201   202   ar
   856   201   206   ar
   857  1737  1736    2
   858  1488  1489    1
   859  1488  1490    1
   860  1488  1486    1
   861  1473  1472    1
   862   189   169    2
   863  1861  1860    1
   864   975   954    2
   865  1779  1778   ar
   866  1734  1729    1
   867  1734  1735    1
   868  1822  1823   ar
   869   156   157    1
   870  1755  1761   ar
   871  1860  1858    1
   872  1497  1496   ar
   873  1497  1498   ar
   874  1548  1530    2
   875  1491  1490    1
   876  1491  1507    1
   877  1837  1838    1
   878   207   206    1
   879   947   948   ar
   880   947   945   ar
   881  1477  1476    2
   882  1841  1843    1
   883  1841  1842    1
   884  1806  1805    1
   885  1805  1800   ar
   886  1843  1838    1
   887   202   203   ar
   888  1531  1533    1
   889  1531  1532    1
   890   948   950   ar
   891  1376  1378   ar
   892  1376  1375   ar
   893  1802  1801   ar
   894  1258  1277    2
   895  1258  1276    1
   896  1258  1260    1
   897   206   205   ar
   898  1496  1495   ar
   899  1509  1507    1
   900   954   974    1
   901   954   940    1
   902   155   169    1
   903  1761  1762    2
   904  1824  1823   ar
   905  1530  1532    1
   906  1530  1549    1
   907  1527  1521   ar
   908  1527  1526   ar
   909   225   224    1
   910   946   945    2
   911  1378  1379   ar
   912  1262  1267    1
   913  1262  1261    1
   914  1486  1487    1
   915  1726  1727    1
   916  1520  1521   ar
   917  1520  1518   ar
   918  1504  1498   ar
   919  1504  1503   ar
   920   945   944   ar
   921  1736  1735   ar
   922  1736  1738   ar
   923  1533  1534    1
   924  1533  1535    1
   925  1783  1778   ar
   926  1783  1784    1
   927  1534  1539    1
   928  1498  1499   ar
   929  1528  1507    2
   930   169   190    1
   931   169   171    1
   932  1735  1742   ar
   933   203   204   ar
   934  1274  1275   ar
   935  1274  1272   ar
   936  1259  1260    1
   937  1259  1261    1
   938  1375  1373   ar
   939  1507  1529    1
   940  1472  1474    1
   941  1472  1470    1
   942  1275  1268   ar
   943  1474  1475    1
   944  1474  1469    1
   945   950   951   ar
   946  1476  1475   ar
   947  1476  1478   ar
   948  1273  1272    1
   949  1521  1522   ar
   950  1800  1801   ar
   951  1272  1271   ar
   952   205   204   ar
   953   205   208   ar
   954  1268  1267    1
   955  1268  1269   ar
   956  1519  1518    1
   957  1526  1525   ar
   958  1267  1265    1
   959   186   187   ar
   960   186   183   ar
   961   953   934    2
   962  1271  1269   ar
   963   224   223   ar
   964   224   226   ar
   965   204   210   ar
   966  1269  1270    2
   967  1261  1263    1
   968  1495  1500   ar
   969  1518  1517   ar
   970   185   184    1
   971  1379  1372   ar
   972   944   951   ar
   973   944   943    1
   974   223   229   ar
   975  1738  1739   ar
   976   928   927    2
   977  1475  1482   ar
   978   941   939    1
   979   941   942    1
   980   941   943    1
   981  1478  1479   ar
   982  1727  1725    1
   983  1469  1468    1
   984  1503  1502   ar
   985   940   939    1
   986   187   188   ar
   987   939   937    1
   988   208   209   ar
   989  1487  1485    1
   990  1742  1741   ar
   991  1539  1537    1
   992  1539  1540    1
   993  1499  1500   ar
   994  1499  1502   ar
   995  1538  1537    1
   996  1373  1372   ar
   997  1373  1374    2
   998   226   227   ar
   999  1471  1470    1
  1000  1471  1485    1
  1001  1535  1536    1
  1002  1535  1537    1
  1003   171   170    1
  1004  1536  1550    1
  1005  1468  1470    1
  1006  1468  1466    1
  1007   886   868    2
  1008  1522  1525   ar
  1009  1522  1523   ar
  1010   866   848    2
  1011  1500  1501    1
  1012   210   209   ar
  1013   210   200    1
  1014   927   921   ar
  1015   927   926   ar
  1016  1372  1371    1
  1017  1743  1725    2
  1018   183   184   ar
  1019   183   182   ar
  1020   952   934    1
  1021   943   938    1
  1022   921   922   ar
  1023   934   936    1
  1024   934   917    1
  1025   936   935    1
  1026   229   230    2
  1027   229   228   ar
  1028   184   179   ar
  1029  1517  1523   ar
  1030   933   911    2
  1031  1547  1540   ar
  1032  1547  1546   ar
  1033  1265  1263    1
  1034  1265  1266    1
  1035  1739  1741   ar
  1036  1739  1740    2
  1037  1505  1485    2
  1038  1263  1264    1
  1039  1485  1506    1
  1040   910   888    2
  1041   516   517   ar
  1042   516   521   ar
  1043  1540  1541   ar
  1044   200   195    1
  1045   200   198    1
  1046  1725  1744    1
  1047  1725  1711    1
  1048  1479  1480    1
  1049  1479  1481   ar
  1050  1482  1481   ar
  1051   517   518   ar
  1052   227   228   ar
  1053   227   233   ar
  1054  1713  1712    1
  1055   926   929   ar
  1056   926   925   ar
  1057  1523  1524    2
  1058   176   177    1
  1059   176   174    1
  1060   176   178    1
  1061  1571  1550    2
  1062   188   182   ar
  1063   188   178    1
  1064   923   922    1
  1065   887   868    1
  1066   922   924   ar
  1067   909   888    1
  1068  1380  1362    2
  1069   929   930   ar
  1070  1366  1371    1
  1071  1366  1365    1
  1072   228   231   ar
  1073   522   521    1
  1074   937   938    1
  1075   937   935    1
  1076   932   911    1
  1077  1550  1572    1
  1078  1550  1552    1
  1079   521   520   ar
  1080   247   246   ar
  1081   247   248   ar
  1082   868   854    1
  1083   868   870    1
  1084   170   172    1
  1085  1466  1467    1
  1086   195   194    1
  1087   518   519   ar
  1088  1371  1369    1
  1089  1546  1544   ar
  1090   182   181   ar
  1091   848   867    1
  1092   848   834    1
  1093   848   850    1
  1094   911   913    1
  1095   911   894    1
  1096   246   251   ar
  1097   174   172    1
  1098   174   175    1
  1099   888   890    1
  1100   888   874    1
  1101   925   924   ar
  1102   925   931   ar
  1103  1264  1278    1
  1104   179   180   ar
  1105   917   916    1
  1106   233   222    1
  1107   233   232   ar
  1108   846   828    2
  1109  1712  1710    1
  1110  1712  1714    1
  1111  1711  1710    1
  1112  1541  1542    2
  1113  1541  1543   ar
  1114   913   912    1
  1115   222   217    1
  1116   222   220    1
  1117  1717  1716    2
  1118   178   173    1
  1119   520   519   ar
  1120   520   523   ar
  1121   198   199    1
  1122   198   196    1
  1123   519   525   ar
  1124   930   931   ar
  1125   916   918    1
  1126   916   914    1
  1127   248   249   ar
  1128   217   216    1
  1129   834   833    1
  1130   854   853    1
  1131   231   232   ar
  1132  1364  1363    1
  1133  1364  1362    1
  1134   172   173    1
  1135   870   869    1
  1136   931   920    1
  1137   918   920    1
  1138   918   919    1
  1139   890   889    1
  1140  1363  1365    1
  1141  1365  1367    1
  1142   849   850    1
  1143   849   851    1
  1144  1362  1348    1
  1145  1362  1381    1
  1146  1293  1292    1
  1147  1552  1551    1
  1148  1544  1543   ar
  1149  1544  1545    1
  1150   221   220    1
  1151  1551  1553    1
  1152   905   904    2
  1153   175   191    1
  1154   523   524   ar
  1155  1467  1465    1
  1156  1710  1708    1
  1157   525   515    1
  1158   525   524   ar
  1159  1369  1370    1
  1160  1369  1367    1
  1161   869   871    1
  1162   181   180   ar
  1163   251   252    1
  1164   251   250   ar
  1165  1294  1292   ar
  1166  1294  1295   ar
  1167  1716  1718   ar
  1168  1716  1715   ar
  1169   194   196    1
  1170   194   192    1
  1171   874   873    1
  1172   515   510    1
  1173   515   513    1
  1174  1714  1715    1
  1175  1714  1709    1
  1176   912   914    1
  1177   220   218    1
  1178  1292  1291   ar
  1179   894   893    1
  1180   906   903   ar
  1181   906   907   ar
  1182  1297  1278    2
  1183   193   192    1
  1184   193   191    1
  1185   196   197    1
  1186   249   250   ar
  1187   249   255   ar
  1188   829   830    1
  1189   829   831    1
  1190   914   915    1
  1191  1278  1280    1
  1192  1278  1296    1
  1193  1448  1447    1
  1194  1448  1465    1
  1195   920   915    1
  1196  1348  1347    1
  1197   828   830    1
  1198   828   847    1
  1199   828   812    1
  1200   540   539    2
  1201   853   851    1
  1202   853   855    1
  1203   904   903   ar
  1204   904   898   ar
  1205  1718  1719   ar
  1206  1459  1458    2
  1207  1295  1288   ar
  1208   216   214    1
  1209   216   218    1
  1210  1354  1353    2
  1211   889   891    1
  1212   851   852    1
  1213   893   891    1
  1214   893   895    1
  1215  1715  1722   ar
  1216   510   509    1
  1217  1367  1368    1
  1218   833   831    1
  1219   833   835    1
  1220   903   902   ar
  1221   873   871    1
  1222   873   875    1
  1223   514   513    1
  1224   907   908   ar
  1225   250   253   ar
  1226  1708  1709    1
  1227  1708  1706    1
  1228  1291  1289   ar
  1229  1554  1553    1
  1230  1554  1559    1
  1231  1458  1457   ar
  1232  1458  1452   ar
  1233   831   832    1
  1234  1449  1447    1
  1235  1449  1450    1
  1236  1449  1451    1
  1237  1553  1555    1
  1238   191   211    2
  1239   191   212    1
  1240  1460  1457   ar
  1241  1460  1461   ar
  1242   871   872    1
  1243  1447  1445    1
  1244   539   541   ar
  1245   539   538   ar
  1246  1465  1483    2
  1247  1465  1484    1
  1248  1280  1279    1
  1249  1282  1287    1
  1250  1282  1281    1
  1251   541   542   ar
  1252   513   511    1
  1253  1457  1456   ar
  1254  1452  1453   ar
  1255   898   899   ar
  1256  1288  1289   ar
  1257  1288  1287    1
  1258  1464  1442    2
  1259   812   811    1
  1260  1350  1349    1
  1261   214   215    1
  1262  1461  1462   ar
  1263   245   255    1
  1264   245   240    1
  1265   245   243    1
  1266   836   835    1
  1267   218   219    1
  1268   255   254   ar
  1269  1279  1281    1
  1270  1289  1290    2
  1271  1694  1693    1
  1272   240   239    1
  1273   891   892    1
  1274  1368  1382    1
  1275  1719  1720    2
  1276  1719  1721   ar
  1277   537   532    1
  1278   537   538    1
  1279   537   535    1
  1280  1456  1462   ar
  1281  1456  1455   ar
  1282   902   908   ar
  1283   902   901   ar
  1284   197   213    1
  1285  1453  1455   ar
  1286  1453  1454    1
  1287   532   531    1
  1288   908   897    1
  1289   538   545   ar
  1290  1462  1451    1
  1291  1722  1721   ar
  1292   542   543    1
  1293   542   544   ar
  1294   884   885   ar
  1295   884   882   ar
  1296   835   837    1
  1297  1569  1568   ar
  1298  1569  1570   ar
  1299   895   897    1
  1300   895   896    1
  1301  1287  1285    1
  1302   885   878   ar
  1303   855   856    1
  1304   855   857    1
  1305  1347  1349    1
  1306  1347  1345    1
  1307  1353  1355   ar
  1308  1353  1352   ar
  1309  1351  1349    1
  1310  1351  1346    1
  1311  1351  1352    1
  1312   899   901   ar
  1313   899   900    1
  1314   215   213    1
  1315   509   511    1
  1316   509   507    1
  1317   852   857    1
  1318  1281  1283    1
  1319   253   254   ar
  1320  1451  1446    1
  1321  1692  1693   ar
  1322  1692  1698   ar
  1323   244   243    1
  1324  1706  1707    1
  1325   536   535    1
  1326   872   877    1
  1327   875   876    1
  1328   875   877    1
  1329  1444  1442    1
  1330  1444  1443    1
  1331  1559  1570    1
  1332  1559  1557    1
  1333  1568  1565   ar
  1334  1401  1382    2
  1335   892   897    1
  1336   545   544   ar
  1337  1441  1422    2
  1338   219   236    1
  1339  1693  1695   ar
  1340  1442  1463    1
  1341  1442  1428    1
  1342  1555  1556    1
  1343  1555  1557    1
  1344   508   507    1
  1345   508   506    1
  1346   527   506    2
  1347  1420  1402    2
  1348   832   837    1
  1349   826   806    2
  1350   511   512    1
  1351  1570  1564   ar
  1352   243   241    1
  1353  1437  1436    2
  1354  1346  1345    1
  1355  1345  1343    1
  1356  1445  1443    1
  1357  1445  1446    1
  1358  1355  1356   ar
  1359   814   813    1
  1360  1352  1359   ar
  1361   883   882    1
  1362  1421  1402    1
  1363  1382  1400    1
  1364  1382  1384    1
  1365   882   881   ar
  1366   239   237    1
  1367   239   241    1
  1368   535   533    1
  1369  1699  1698    2
  1370  1707  1705    1
  1371   213   235    2
  1372   213   234    1
  1373   811   809    1
  1374   811   813    1
  1375   531   529    1
  1376   531   533    1
  1377  1595  1573    2
  1378  1556  1573    1
  1379   878   877    1
  1380   878   879   ar
  1381   857   858    1
  1382   865   864   ar
  1383   865   858   ar
  1384  1698  1697   ar
  1385   837   838    1
  1386  1436  1438   ar
  1387  1436  1435   ar
  1388  1438  1439   ar
  1389   809   807    1
  1390   809   810    1
  1391  1557  1558    1
  1392  1695  1696   ar
  1393   237   238    1
  1394  1402  1388    1
  1395  1402  1404    1
  1396  1283  1285    1
  1397  1283  1284    1
  1398   529   530    1
  1399   807   808    1
  1400   506   489    1
  1401   506   526    1
  1402   864   862   ar
  1403   813   815    1
  1404  1285  1286    1
  1405   858   859   ar
  1406  1565  1564   ar
  1407  1565  1566   ar
  1408  1440  1422    1
  1409   512   528    1
  1410  1422  1424    1
  1411  1422  1408    1
  1412  1564  1563   ar
  1413  1573  1594    1
  1414  1573  1575    1
  1415   241   242    1
  1416   808   806    1
  1417   881   879   ar
  1418   533   534    1
  1419   845   838   ar
  1420   845   844   ar
  1421   879   880    2
  1422   806   827    1
  1423   806   790    1
  1424   238   236    1
  1425  1428  1427    1
  1426  1439  1432   ar
  1427   236   257    2
  1428   236   256    1
  1429  1435  1433   ar
  1430   838   839   ar
  1431  1424  1423    1
  1432   489   488    1
  1433  1427  1429    1
  1434  1427  1425    1
  1435  1697  1696   ar
  1436  1697  1700   ar
  1437  1356  1357    2
  1438  1356  1358   ar
  1439  1384  1383    1
  1440  1343  1344    1
  1441  1723  1705    2
  1442   530   528    1
  1443  1705  1724    1
  1444  1705  1688    1
  1445  1359  1358   ar
  1446  1696  1702   ar
  1447   504   483    2
  1448  1383  1385    1
  1449  1388  1387    1
  1450  1404  1403    1
  1451  1566  1567    2
  1452  1566  1560   ar
  1453   862   861   ar
  1454   862   863    1
  1455   859   860    2
  1456   859   861   ar
  1457  1429  1430    1
  1458  1429  1431    1
  1459   552   557    1
  1460   552   551    1
  1461  1563  1561   ar
  1462   560   559    2
  1463   534   548    1
  1464   844   842   ar
  1465  1284  1298    1
  1466   810   815    1
  1467  1432  1433   ar
  1468  1432  1431    1
  1469   242   258    1
  1470  1433  1434    2
  1471   275   274    2
  1472   561   559   ar
  1473   561   562   ar
  1474  1340  1320    2
  1475   559   558   ar
  1476  1591  1592   ar
  1477  1591  1588   ar
  1478   815   825    1
  1479   528   547    2
  1480   528   546    1
  1481   563   562    2
  1482  1344  1342    1
  1483  1408  1407    1
  1484  1341  1320    1
  1485  1423  1425    1
  1486  1689  1690    1
  1487  1689  1687    1
  1488  1689  1691    1
  1489  1590  1589    2
  1490   562   564   ar
  1491   790   789    1
  1492   839   840    2
  1493   839   841   ar
  1494  1700  1701   ar
  1495  1575  1574    1
  1496   558   557    1
  1497   558   565   ar
  1498   557   555    1
  1499  1403  1405    1
  1500  1387  1385    1
  1501  1387  1389    1
  1502  1425  1426    1
  1503  1702  1691    1
  1504  1702  1701   ar
  1505   549   551    1
  1506   549   550    1
  1507   564   565   ar
  1508  1592  1593   ar
  1509  1688  1687    1
  1510  1407  1405    1
  1511  1407  1409    1
  1512  1560  1561   ar
  1513   274   268   ar
  1514   274   273   ar
  1515  1431  1426    1
  1516  1561  1562    1
  1517   488   486    1
  1518   488   490    1
  1519   268   269   ar
  1520   484   486    1
  1521   484   485    1
  1522  1385  1386    1
  1523  1418  1419   ar
  1524  1418  1416   ar
  1525   551   553    1
  1526  1318  1298    2
  1527  1320  1322    1
  1528  1320  1304    1
  1529   792   791    1
  1530  1687  1685    1
  1531   842   841   ar
  1532   842   843    1
  1533   483   505    1
  1534   483   485    1
  1535   483   466    1
  1536  1691  1686    1
  1537   825   824   ar
  1538   825   819   ar
  1539  1588  1589   ar
  1540  1588  1587   ar
  1541  1417  1416    1
  1542  1589  1583   ar
  1543   486   487    1
  1544   550   548    1
  1545  1419  1412   ar
  1546  1298  1319    1
  1547  1298  1300    1
  1548   491   490    1
  1549  1574  1576    1
  1550   270   269    1
  1551   824   823   ar
  1552   273   276   ar
  1553   273   272   ar
  1554  1405  1406    1
  1555   548   567    2
  1556   548   566    1
  1557  1416  1415   ar
  1558   269   271   ar
  1559   258   280    2
  1560   258   279    1
  1561   258   260    1
  1562   789   791    1
  1563   789   787    1
  1564   276   277   ar
  1565   791   793    1
  1566  1361  1342    2
  1567   315   314    1
  1568   490   492    1
  1569  1342  1360    1
  1570  1342  1326    1
  1571  1322  1321    1
  1572  1409  1411    1
  1573  1409  1410    1
  1574   466   465    1
  1575  1299  1300    1
  1576  1299  1301    1
  1577  1398  1399   ar
  1578  1398  1396   ar
  1579   556   555    1
  1580   819   818   ar
  1581   819   820   ar
  1582   338   337    1
  1583  1399  1392   ar
  1584   818   817   ar
  1585  1593  1587   ar
  1586  1593  1582    1
  1587   555   553    1
  1588  1304  1303    1
  1589  1389  1390    1
  1590  1389  1391    1
  1591   272   271   ar
  1592   272   278   ar
  1593  1577  1576    1
  1594  1577  1582    1
  1595  1386  1391    1
  1596   313   314   ar
  1597   313   319   ar
  1598  1677  1676    1
  1599  1412  1411    1
  1600  1412  1413   ar
  1601   259   260    1
  1602   259   261    1
  1603  1587  1586   ar
  1604   553   554    1
  1605   823   820   ar
  1606  1583  1584   ar
  1607  1406  1411    1
  1608   314   316   ar
  1609  1415  1413   ar
  1610   277   278   ar
  1611  1686  1685    1
  1612  1326  1325    1
  1613   320   319    2
  1614  1617  1596    2
  1615  1685  1683    1
  1616  1576  1578    1
  1617   262   261    1
  1618   262   267    1
  1619   820   821   ar
  1620  1321  1323    1
  1621   487   492    1
  1622   787   785    1
  1623   787   788    1
  1624  1303  1301    1
  1625  1303  1305    1
  1626   278   267    1
  1627   319   318   ar
  1628  1413  1414    2
  1629   817   816   ar
  1630  1396  1397    1
  1631  1396  1395   ar
  1632   337   336   ar
  1633   337   339   ar
  1634  1392  1391    1
  1635  1392  1393   ar
  1636  1582  1580    1
  1637  1337  1338   ar
  1638  1337  1334   ar
  1639  1675  1676   ar
  1640  1675  1673   ar
  1641  1325  1323    1
  1642  1325  1327    1
  1643   336   342   ar
  1644  1301  1302    1
  1645  1676  1678   ar
  1646   492   503    1
  1647  1338  1339   ar
  1648   468   467    1
  1649   261   263    1
  1650  1578  1580    1
  1651  1578  1579    1
  1652   481   460    2
  1653   585   584    2
  1654  1684  1683    1
  1655  1684  1682    1
  1656   316   317   ar
  1657   793   788    1
  1658   793   803    1
  1659   465   467    1
  1660   465   463    1
  1661   785   786    1
  1662   554   568    1
  1663  1638  1618    2
  1664   796   795   ar
  1665   796   797   ar
  1666  1586  1584   ar
  1667  1584  1585    1
  1668   339   340   ar
  1669   804   784    2
  1670   578   584   ar
  1671   578   579   ar
  1672   584   583   ar
  1673  1639  1618    1
  1674   821   816   ar
  1675   821   822    1
  1676  1336  1335    1
  1677   267   265    1
  1678  1323  1324    1
  1679   318   317   ar
  1680   318   321   ar
  1681  1395  1393   ar
  1682  1674  1673    2
  1683  1393  1394    2
  1684   795   794   ar
  1685  1704  1682    2
  1686   580   579    1
  1687   361   360    2
  1688  1673  1672   ar
  1689   579   581   ar
  1690   467   469    1
  1691   317   323   ar
  1692   786   784    1
  1693   583   586   ar
  1694   583   582   ar
  1695   342   343    2
  1696   342   341   ar
  1697   503   502   ar
  1698   503   497   ar
  1699   463   461    1
  1700   463   464    1
  1701  1580  1581    1
  1702   502   501   ar
  1703  1334  1335   ar
  1704  1334  1333   ar
  1705  1596  1579    1
  1706  1596  1598    1
  1707  1596  1616    1
  1708   586   587   ar
  1709   803   797   ar
  1710   803   802   ar
  1711   461   462    1
  1712   797   798   ar
  1713  1327  1329    1
  1714  1327  1328    1
  1715  1678  1679   ar
  1716   581   582   ar
  1717   582   588   ar
  1718  1305  1306    1
  1719  1305  1307    1
  1720  1618  1602    1
  1721  1618  1620    1
  1722  1302  1307    1
  1723  1339  1333   ar
  1724  1339  1329    1
  1725  1335  1330   ar
  1726  1682  1703    1
  1727  1682  1668    1
  1728   340   341   ar
  1729   340   346   ar
  1730   587   588   ar
  1731   572   577    1
  1732   572   571    1
  1733  1598  1597    1
  1734  1597  1599    1
  1735   588   577    1
  1736   321   322   ar
  1737   784   805    1
  1738   784   768    1
  1739   794   799   ar
  1740   265   263    1
  1741   265   266    1
  1742  1324  1329    1
  1743   462   460    1
  1744   341   344   ar
  1745   460   482    1
  1746   460   443    1
  1747   360   362   ar
  1748   360   359   ar
  1749   263   264    1
  1750  1316  1315   ar
  1751  1316  1317   ar
  1752   357   356    1
  1753   323   322   ar
  1754   323   312    1
  1755   501   498   ar
  1756  1333  1332   ar
  1757   497   496   ar
  1758   497   498   ar
  1759   802   801   ar
  1760   577   575    1
  1761  1672  1679   ar
  1762  1672  1671    1
  1763   798   799   ar
  1764   798   801   ar
  1765   568   590    2
  1766   568   570    1
  1767   568   589    1
  1768  1602  1601    1
  1769   362   363   ar
  1770  1307  1317    1
  1771   496   494   ar
  1772  1315  1312   ar
  1773   346   335    1
  1774   346   345   ar
  1775   358   359    1
  1776   358   356    1
  1777   358   353    1
  1778   799   800    1
  1779  1669  1667    1
  1780  1669  1670    1
  1781  1669  1671    1
  1782   335   333    1
  1783   335   330    1
  1784   608   607    2
  1785  1317  1311   ar
  1786   570   569    1
  1787   569   571    1
  1788   312   307    1
  1789   312   310    1
  1790   464   469    1
  1791   334   333    1
  1792   469   480    1
  1793   498   499   ar
  1794  1661  1640    2
  1795   359   366   ar
  1796  1330  1331   ar
  1797   601   607   ar
  1798   601   602   ar
  1799   356   354    1
  1800   264   281    1
  1801  1620  1619    1
  1802   344   345   ar
  1803   443   442    1
  1804  1599  1601    1
  1805  1599  1600    1
  1806   603   602    1
  1807   571   573    1
  1808  1668  1667    1
  1809   607   606   ar
  1810   333   331    1
  1811  1667  1665    1
  1812  1656  1655    1
  1813  1601  1603    1
  1814   768   767    1
  1815  1671  1666    1
  1816   602   604   ar
  1817   363   364    2
  1818   363   365   ar
  1819  1332  1331   ar
  1820   494   495    1
  1821   494   493   ar
  1822   353   352    1
  1823  1312  1311   ar
  1824  1312  1313   ar
  1825   307   306    1
  1826  1311  1310   ar
  1827   301   281    2
  1828   480   479   ar
  1829   480   474   ar
  1830  1619  1621    1
  1831   330   329    1
  1832   499   493   ar
  1833   499   500    2
  1834   606   605   ar
  1835   606   609   ar
  1836   377   376    1
  1837   366   365   ar
  1838   310   311    1
  1839   310   308    1
  1840   575   576    1
  1841   575   573    1
  1842   445   444    1
  1843   604   605   ar
  1844   281   302    1
  1845   281   283    1
  1846   473   474   ar
  1847   473   471   ar
  1848   479   478   ar
  1849  1657  1654   ar
  1850  1657  1658   ar
  1851   373   378    1
  1852   373   372    1
  1853   605   611   ar
  1854   609   610   ar
  1855   474   475   ar
  1856  1640  1660    1
  1857  1640  1624    1
  1858  1640  1642    1
  1859   573   574    1
  1860  1313  1314    1
  1861  1313  1308   ar
  1862   378   376    1
  1863   378   389    1
  1864  1310  1309   ar
  1865  1600  1605    1
  1866  1655  1654   ar
  1867  1655  1650   ar
  1868   381   380    1
  1869   352   354    1
  1870   352   350    1
  1871   767   769    1
  1872   767   765    1
  1873   442   444    1
  1874   442   440    1
  1875   354   355    1
  1876   770   769    1
  1877   773   772   ar
  1878   773   774   ar
  1879  1681  1662    2
  1880  1666  1665    1
  1881  1665  1663    1
  1882   382   380   ar
  1883   382   383   ar
  1884   472   471    1
  1885   331   329    1
  1886   331   332    1
  1887  1664  1663    1
  1888  1664  1662    1
  1889   769   771    1
  1890   444   446    1
  1891   471   470   ar
  1892  1635  1636   ar
  1893  1635  1632   ar
  1894  1603  1604    1
  1895  1603  1605    1
  1896   372   370    1
  1897   372   374    1
  1898   610   611   ar
  1899  1654  1653   ar
  1900   325   303    2
  1901   611   600    1
  1902   478   475   ar
  1903  1636  1637   ar
  1904  1624  1623    1
  1905   772   777   ar
  1906   774   775   ar
  1907   376   374    1
  1908  1623  1621    1
  1909  1623  1625    1
  1910   475   476   ar
  1911   380   379   ar
  1912   306   308    1
  1913   306   304    1
  1914   329   327    1
  1915  1658  1659   ar
  1916   355   369    1
  1917  1621  1622    1
  1918  1309  1308   ar
  1919   308   309    1
  1920  1614  1613   ar
  1921  1614  1615   ar
  1922   389   383   ar
  1923   389   388   ar
  1924  1642  1641    1
  1925   440   438    1
  1926   440   441    1
  1927   383   384   ar
  1928  1650  1651   ar
  1929   626   625    2
  1930  1605  1615    1
  1931   305   304    1
  1932   305   303    1
  1933   600   595    1
  1934   600   598    1
  1935   283   282    1
  1936   332   349    1
  1937   470   476   ar
  1938   370   371    1
  1939  1662  1680    1
  1940  1662  1646    1
  1941   574   591    1
  1942   282   284    1
  1943   438   439    1
  1944   476   477    2
  1945  1613  1610   ar
  1946   595   594    1
  1947   777   778    1
  1948   777   776   ar
  1949   374   375    1
  1950  1615  1609   ar
  1951   775   776   ar
  1952   775   781   ar
  1953  1634  1633    1
  1954   765   763    1
  1955   765   766    1
  1956   350   351    1
  1957  1622  1627    1
  1958   303   324    1
  1959   303   287    1
  1960   379   385   ar
  1961   375   392    1
  1962  1632  1633   ar
  1963  1632  1631   ar
  1964   627   625   ar
  1965   627   628   ar
  1966   646   645    2
  1967   388   387   ar
  1968   625   624   ar
  1969   328   327    1
  1970   328   326    1
  1971  1637  1627    1
  1972  1637  1631   ar
  1973  1653  1659   ar
  1974  1653  1652   ar
  1975   763   764    1
  1976   764   762    1
  1977   771   781    1
  1978   771   766    1
  1979   384   385   ar
  1980   384   387   ar
  1981   351   349    1
  1982  1659  1649    1
  1983   776   779   ar
  1984   446   441    1
  1985   446   457    1
  1986   783   762    2
  1987   449   448    1
  1988  1625  1627    1
  1989  1625  1626    1
  1990   782   762    1
  1991   348   326    2
  1992   292   291   ar
  1993   292   293   ar
  1994   781   780   ar
  1995   309   326    1
  1996   439   437    1
  1997   371   369    1
  1998  1641  1643    1
  1999  1633  1628   ar
  2000   450   448   ar
  2001   450   451   ar
  2002  1645  1646    1
  2003  1645  1647    1
  2004  1645  1643    1
  2005   385   386    2
  2006  1651  1652   ar
  2007   291   296   ar
  2008   413   392    2
  2009   629   628    1
  2010   666   665    2
  2011   369   390    2
  2012   369   391    1
  2013   284   286    1
  2014   284   285    1
  2015   762   745    1
  2016   598   599    1
  2017   598   596    1
  2018  1610  1609   ar
  2019  1610  1611   ar
  2020   448   447   ar
  2021   628   630   ar
  2022   349   368    2
  2023   349   367    1
  2024   645   647   ar
  2025   645   644   ar
  2026  1631  1630   ar
  2027  1609  1608   ar
  2028   593   591    1
  2029   593   592    1
  2030   326   347    1
  2031   647   648   ar
  2032   591   613    2
  2033   591   612    1
  2034   457   451   ar
  2035   457   456   ar
  2036   293   294   ar
  2037   624   623    1
  2038   624   631   ar
  2039   662   661    1
  2040   451   452   ar
  2041   779   780   ar
  2042   623   618    1
  2043   623   621    1
  2044   392   394    1
  2045   392   414    1
  2046   642   641    1
  2047   286   287    1
  2048   286   288    1
  2049   663   658    1
  2050   663   664    1
  2051   663   661    1
  2052   594   592    1
  2053   594   596    1
  2054   658   657    1
  2055  1647  1649    1
  2056  1647  1648    1
  2057  1643  1644    1
  2058   665   664   ar
  2059   665   667   ar
  2060  1649  1644    1
  2061   618   617    1
  2062   643   644    1
  2063   643   641    1
  2064   643   638    1
  2065   447   453   ar
  2066   394   393    1
  2067   296   297    1
  2068   296   295   ar
  2069   644   651   ar
  2070   396   395    1
  2071   396   401    1
  2072   416   418    1
  2073   416   417    1
  2074   419   418    1
  2075   419   424    1
  2076   456   455   ar
  2077  1608  1607   ar
  2078  1611  1612    1
  2079  1611  1606   ar
  2080   418   420    1
  2081   630   631   ar
  2082  1628  1629   ar
  2083   664   671   ar
  2084   596   597    1
  2085   648   649    1
  2086   648   650   ar
  2087   452   453   ar
  2088   452   455   ar
  2089   437   459    2
  2090   437   458    1
  2091   437   421    1
  2092   285   290    1
  2093   641   639    1
  2094   667   668   ar
  2095   395   393    1
  2096   395   397    1
  2097   294   295   ar
  2098   294   300   ar
  2099   661   659    1
  2100   404   403    1
  2101  1630  1629   ar
  2102   622   621    1
  2103   453   454    2
  2104   657   655    1
  2105   657   659    1
  2106   435   415    2
  2107   638   637    1
  2108   621   619    1
  2109   295   298   ar
  2110   745   744    1
  2111   398   397    1
  2112   398   415    1
  2113   651   650   ar
  2114   405   403   ar
  2115   405   406   ar
  2116   403   402   ar
  2117   288   290    1
  2118   288   289    1
  2119  1607  1606   ar
  2120   671   670   ar
  2121   747   746    1
  2122   401   412    1
  2123   401   399    1
  2124   417   415    1
  2125   668   670   ar
  2126   668   669    1
  2127   617   615    1
  2128   617   619    1
  2129   300   290    1
  2130   300   299   ar
  2131   424   434    1
  2132   424   422    1
  2133   421   420    1
  2134   655   656    1
  2135   397   399    1
  2136   415   436    1
  2137   659   660    1
  2138   406   412   ar
  2139   406   407   ar
  2140   420   422    1
  2141   597   614    1
  2142   402   408   ar
  2143   678   683    1
  2144   678   677    1
  2145   744   746    1
  2146   744   742    1
  2147   427   426   ar
  2148   427   428   ar
  2149   412   411   ar
  2150   637   639    1
  2151   637   635    1
  2152   434   428   ar
  2153   434   433   ar
  2154   298   299   ar
  2155   426   425   ar
  2156   639   640    1
  2157   615   616    1
  2158   428   429   ar
  2159   619   620    1
  2160   660   674    1
  2161   407   408   ar
  2162   407   410   ar
  2163   683   694    1
  2164   683   681    1
  2165   408   409    2
  2166   746   748    1
  2167   411   410   ar
  2168   677   675    1
  2169   677   679    1
  2170   433   432   ar
  2171   399   400    1
  2172   675   676    1
  2173   425   430   ar
  2174   422   423    1
  2175   640   654    1
  2176   616   614    1
  2177   656   654    1
  2178   429   432   ar
  2179   429   430   ar
  2180   682   681    1
  2181   694   688   ar
  2182   694   693   ar
  2183   430   431    1
  2184   687   688   ar
  2185   687   685   ar
  2186   614   633    2
  2187   614   632    1
  2188   636   635    1
  2189   636   634    1
  2190   686   685    1
  2191   688   689   ar
  2192   742   740    1
  2193   742   743    1
  2194   693   692   ar
  2195   676   674    1
  2196   685   684   ar
  2197   620   634    1
  2198   681   679    1
  2199   748   743    1
  2200   748   759    1
  2201   674   695    2
  2202   674   696    1
  2203   654   672    2
  2204   654   673    1
  2205   689   692   ar
  2206   689   690   ar
  2207   740   741    1
  2208   684   690   ar
  2209   679   680    1
  2210   761   739    2
  2211   690   691    2
  2212   634   652    2
  2213   634   653    1
  2214   752   750   ar
  2215   752   753   ar
  2216   751   750    1
  2217   680   697    1
  2218   759   753   ar
  2219   759   758   ar
  2220   760   739    1
  2221   739   741    1
  2222   739   725    1
  2223   750   749   ar
  2224   753   754   ar
  2225   713   712    1
  2226   758   757   ar
  2227   707   712   ar
  2228   707   708   ar
  2229   712   711   ar
  2230   708   709   ar
  2231   749   755   ar
  2232   754   757   ar
  2233   754   755   ar
  2234   697   717    2
  2235   697   718    1
  2236   697   699    1
  2237   698   699    1
  2238   698   700    1
  2239   725   724    1
  2240   711   714   ar
  2241   711   710   ar
  2242   709   710   ar
  2243   755   756    2
  2244   714   715   ar
  2245   710   716   ar
  2246   701   700    1
  2247   701   706    1
  2248   727   726    1
  2249   715   716   ar
  2250   716   706    1
  2251   700   702    1
  2252   724   726    1
  2253   724   722    1
  2254   706   704    1
  2255   726   728    1
  2256   722   723    1
  2257   722   720    1
  2258   702   704    1
  2259   702   703    1
  2260   704   705    1
  2261   721   720    1
  2262   721   719    1
  2263   728   723    1
  2264   728   729    1
  2265   738   719    2
  2266   703   719    1
  2267   719   737    1
  2268   729   730   ar
  2269   729   736   ar
  2270   731   730    2
  2271   730   732   ar
  2272   736   735   ar
  2273   735   733   ar
  2274   732   733   ar
  2275   733   734    1
