ligand
  PyMOL2.2          3D                             0

 34 36  0  0  0  0  0  0  0  0999 V2000
    5.4300   41.0780   76.0940 N   0  0  0  0  0  0  0  0  0  0  0  0
    4.8830   40.5030   77.3450 C   0  0  0  0  0  0  0  0  0  0  0  0
    5.5680   42.3920   75.8740 C   0  0  0  0  0  0  0  0  0  0  0  0
    5.2550   43.2690   76.6840 O   0  0  0  0  0  0  0  0  0  0  0  0
   12.4250   43.9300   65.0090 N   0  0  0  0  0  0  0  0  0  0  0  0
    5.7640   40.9160   78.5360 C   0  0  0  0  0  0  0  0  0  0  0  0
    6.0770   39.7220   79.4480 C   0  0  0  0  0  0  0  0  0  0  0  0
    6.8140   40.1710   80.7190 C   0  0  0  0  0  0  0  0  0  0  0  0
    6.1860   40.9090   81.5140 O   0  0  0  0  0  0  0  0  0  0  0  0
    7.9890   39.7640   80.8690 O   0  0  0  0  0  0  0  0  0  0  0  0
   11.1140   42.5840   66.3610 N   0  0  0  0  0  0  0  0  0  0  0  0
    2.9450   41.8190   76.8350 O   0  0  0  0  0  0  0  0  0  0  0  0
   11.9770   43.6050   66.2190 C   0  0  0  0  0  0  0  0  0  0  0  0
    2.8260   40.3930   78.5500 O   0  0  0  0  0  0  0  0  0  0  0  0
   12.4120   44.3340   67.3330 N   0  0  0  0  0  0  0  0  0  0  0  0
   11.9340   43.9890   68.5900 C   0  0  0  0  0  0  0  0  0  0  0  0
   11.0190   42.9500   68.6980 C   0  0  0  0  0  0  0  0  0  0  0  0
   12.2930   44.6200   69.5810 O   0  0  0  0  0  0  0  0  0  0  0  0
   11.3820   42.6010   70.9890 C   0  0  0  0  0  0  0  0  0  0  0  0
   10.5660   42.5250   69.9420 N   0  0  0  0  0  0  0  0  0  0  0  0
   11.0320   42.1690   72.0850 O   0  0  0  0  0  0  0  0  0  0  0  0
    9.2830   41.8210   70.0440 C   0  0  0  0  0  0  0  0  0  0  0  0
    9.2540   40.6990   69.0030 C   0  0  0  0  0  0  0  0  0  0  0  0
   10.6420   42.2370   67.5680 C   0  0  0  0  0  0  0  0  0  0  0  0
    9.7540   41.1620   67.6850 N   0  0  0  0  0  0  0  0  0  0  0  0
    8.1190   42.7900   69.8100 C   0  0  0  0  0  0  0  0  0  0  0  0
    8.0220   43.7270   70.9360 N   0  0  0  0  0  0  0  0  0  0  0  0
    6.2080   42.7520   74.5210 C   0  0  0  0  0  0  0  0  0  0  0  0
    6.4700   44.0800   74.1930 C   0  0  0  0  0  0  0  0  0  0  0  0
    7.1000   44.4000   72.9920 C   0  0  0  0  0  0  0  0  0  0  0  0
    7.4340   43.3990   72.0860 C   0  0  0  0  0  0  0  0  0  0  0  0
    7.1650   42.0730   72.4080 C   0  0  0  0  0  0  0  0  0  0  0  0
    6.5670   41.7490   73.6250 C   0  0  0  0  0  0  0  0  0  0  0  0
    3.4260   40.9440   77.5950 C   0  0  0  0  0  0  0  0  0  0  0  0
  1  2  1  0  0  0  0
  2  6  1  0  0  0  0
  2 34  1  0  0  0  0
  1  3  1  0  0  0  0
  3  4  2  0  0  0  0
  6  7  1  0  0  0  0
  7  8  1  0  0  0  0
  8  9  4  0  0  0  0
  8 10  4  0  0  0  0
 11 13  4  0  0  0  0
 11 24  4  0  0  0  0
  5 13  1  0  0  0  0
 13 15  4  0  0  0  0
 15 16  4  0  0  0  0
 16 17  4  0  0  0  0
 16 18  2  0  0  0  0
 17 20  1  0  0  0  0
 17 24  4  0  0  0  0
 19 21  1  0  0  0  0
 19 20  1  0  0  0  0
 20 22  1  0  0  0  0
 22 23  1  0  0  0  0
 22 26  1  0  0  0  0
 23 25  1  0  0  0  0
 24 25  1  0  0  0  0
 26 27  1  0  0  0  0
 27 31  1  0  0  0  0
  3 28  1  0  0  0  0
 28 29  4  0  0  0  0
 28 33  4  0  0  0  0
 29 30  4  0  0  0  0
 30 31  4  0  0  0  0
 31 32  4  0  0  0  0
 32 33  4  0  0  0  0
 12 34  4  0  0  0  0
 14 34  4  0  0  0  0
M  END
$$$$
