ligand
 OpenBabel11021811483D
libRbt.so/2013.1/901 2013/11/27
 34 36  0  0  0  0  0  0  0  0999 V2000
    5.3934   40.7895   75.2319 N   0  0  0  0  0  0  0  0  0  0  0  0
    4.9786   40.1918   76.5224 C   0  0  1  0  0  0  0  0  0  0  0  0
    5.5858   42.1017   75.0443 C   0  0  0  0  0  0  0  0  0  0  0  0
    5.4383   42.9581   75.9207 O   0  0  0  0  0  0  0  0  0  0  0  0
   12.7976   43.9239   64.7423 N   0  0  0  0  0  0  0  0  0  0  0  0
    5.9550   40.6189   77.6312 C   0  0  0  0  0  0  0  0  0  0  0  0
    5.5944   39.9791   78.9788 C   0  0  0  0  0  0  0  0  0  0  0  0
    6.5777   40.4074   80.0787 C   0  0  0  0  0  0  0  0  0  0  0  0
    7.7112   39.8726   80.0727 O   0  0  0  0  0  0  0  0  0  0  0  0
    6.1748   41.2626   80.9004 O   0  0  0  0  0  0  0  0  0  0  0  0
   11.4944   42.5188   66.0407 N   0  0  0  0  0  0  0  0  0  0  0  0
    3.1579   41.7493   76.6061 O   0  0  0  0  0  0  0  0  0  0  0  0
   12.1949   43.6574   65.8982 C   0  0  0  0  0  0  0  0  0  0  0  0
    2.8547   39.7280   77.5069 O   0  0  0  0  0  0  0  0  0  0  0  0
   12.2985   44.5703   66.9553 N   0  0  0  0  0  0  0  0  0  0  0  0
   11.6614   44.2839   68.1552 C   0  0  0  0  0  0  0  0  0  0  0  0
   10.9195   43.1146   68.2585 C   0  0  0  0  0  0  0  0  0  0  0  0
   11.7292   45.0739   69.0935 O   0  0  0  0  0  0  0  0  0  0  0  0
   10.9114   43.0895   70.6041 C   0  0  0  0  0  0  0  0  0  0  0  0
   10.3218   42.7531   69.4608 N   0  0  0  0  0  0  0  0  0  0  0  0
   10.2763   43.6578   71.4895 O   0  0  0  0  0  0  0  0  0  0  0  0
    9.1705   41.8439   69.4529 C   0  0  2  0  0  0  0  0  0  0  0  0
    9.5102   40.6283   68.5867 C   0  0  0  0  0  0  0  0  0  0  0  0
   10.8725   42.2260   67.1929 C   0  0  0  0  0  0  0  0  0  0  0  0
   10.1610   41.0274   67.3143 N   0  0  0  0  0  0  0  0  0  0  0  0
    7.9290   42.5548   68.9033 C   0  0  0  0  0  0  0  0  0  0  0  0
    7.4490   43.5384   69.8817 N   0  0  0  0  0  0  0  0  0  0  0  0
    6.0655   42.4842   73.6324 C   0  0  0  0  0  0  0  0  0  0  0  0
    6.0734   43.8158   73.2242 C   0  0  0  0  0  0  0  0  0  0  0  0
    6.5600   44.1662   71.9663 C   0  0  0  0  0  0  0  0  0  0  0  0
    7.0018   43.1843   71.0860 C   0  0  0  0  0  0  0  0  0  0  0  0
    6.9863   41.8531   71.4887 C   0  0  0  0  0  0  0  0  0  0  0  0
    6.5329   41.5051   72.7603 C   0  0  0  0  0  0  0  0  0  0  0  0
    3.5403   40.5932   76.9094 C   0  0  0  0  0  0  0  0  0  0  0  0
  1  3  1  0  0  0  0
  2  1  1  6  0  0  0
  2  6  1  0  0  0  0
  2 34  1  0  0  0  0
  3  4  2  0  0  0  0
  3 28  1  0  0  0  0
  5 13  1  0  0  0  0
  6  7  1  0  0  0  0
  7  8  1  0  0  0  0
  8  9  1  0  0  0  0
  8 10  1  0  0  0  0
 11 13  2  0  0  0  0
 11 24  1  0  0  0  0
 12 34  1  0  0  0  0
 13 15  1  0  0  0  0
 14 34  1  0  0  0  0
 15 16  1  0  0  0  0
 16 17  1  0  0  0  0
 16 18  2  0  0  0  0
 17 20  1  0  0  0  0
 17 24  2  0  0  0  0
 19 21  1  0  0  0  0
 19 20  1  0  0  0  0
 20 22  1  0  0  0  0
 22 23  1  0  0  0  0
 22 26  1  6  0  0  0
 23 25  1  0  0  0  0
 24 25  1  0  0  0  0
 26 27  1  0  0  0  0
 27 31  1  0  0  0  0
 28 29  2  0  0  0  0
 28 33  1  0  0  0  0
 29 30  1  0  0  0  0
 30 31  2  0  0  0  0
 31 32  1  0  0  0  0
 32 33  2  0  0  0  0
M  END
>  <CHROM.1>
-54.75442537,-177.84785915,-35.32046977,179.79693467,-75.75131889,129.40504900
-71.48008998,-63.49795420,-179.94947706,168.33443036,7.97777193,42.20741590
72.40678293,2.07666506,0.13760114,1.72347228

>  <Name>
ligand

>  <RI>
0

>  <Rbt.Current_Directory>
/home/itssahil/PROJECTS/Mol_Feturizer/New_Systems/rnas/3SUH

>  <Rbt.Executable>
rbdock ($Id: //depot/dev/client3/rdock/2013.1/src/exe/rbdock.cxx#4 $)

>  <Rbt.Library>
libRbt.so (2013.1, Build901 2013/11/27)

>  <Rbt.Parameter_File>
/export/apps/rDock/src/rDock_2013.1_src/data/scripts/dock_solv.prm

>  <Rbt.Receptor>
prm/pocket_docking_2.prm

>  <SCORE>
-10.5212

>  <SCORE.INTER>
-7.85684

>  <SCORE.INTER.CONST>
1

>  <SCORE.INTER.POLAR>
0

>  <SCORE.INTER.ROT>
10

>  <SCORE.INTER.SOLV>
29.0806

>  <SCORE.INTER.VDW>
-25.1981

>  <SCORE.INTER.norm>
-0.231084

>  <SCORE.INTRA>
-2.66435

>  <SCORE.INTRA.DIHEDRAL>
-5.48626

>  <SCORE.INTRA.DIHEDRAL.0>
12.2703

>  <SCORE.INTRA.POLAR>
0

>  <SCORE.INTRA.POLAR.0>
0

>  <SCORE.INTRA.REPUL>
0

>  <SCORE.INTRA.REPUL.0>
0

>  <SCORE.INTRA.SOLV>
0.351758

>  <SCORE.INTRA.SOLV.lig_0>
-64.3214

>  <SCORE.INTRA.VDW>
-0.097094

>  <SCORE.INTRA.VDW.0>
-1.67301

>  <SCORE.INTRA.norm>
-0.0783631

>  <SCORE.RESTR>
0

>  <SCORE.RESTR.CAVITY>
0

>  <SCORE.RESTR.norm>
0

>  <SCORE.SYSTEM>
0

>  <SCORE.SYSTEM.CONST>
0

>  <SCORE.SYSTEM.DIHEDRAL>
0

>  <SCORE.SYSTEM.SOLV>
0

>  <SCORE.SYSTEM.norm>
0

>  <SCORE.heavy>
34

>  <SCORE.norm>
-0.309447

>  <RMSD>
0.853

$$$$
ligand
 OpenBabel11021811483D
libRbt.so/2013.1/901 2013/11/27
 34 36  0  0  0  0  0  0  0  0999 V2000
    5.1987   40.4956   75.4425 N   0  0  0  0  0  0  0  0  0  0  0  0
    4.5880   39.6478   76.4928 C   0  0  1  0  0  0  0  0  0  0  0  0
    5.3994   41.8138   75.5699 C   0  0  0  0  0  0  0  0  0  0  0  0
    5.0981   42.4691   76.5714 O   0  0  0  0  0  0  0  0  0  0  0  0
   12.5658   44.1419   65.1883 N   0  0  0  0  0  0  0  0  0  0  0  0
    5.6637   39.2163   77.5037 C   0  0  0  0  0  0  0  0  0  0  0  0
    6.1956   40.4109   78.3071 C   0  0  0  0  0  0  0  0  0  0  0  0
    6.9827   39.9449   79.5414 C   0  0  0  0  0  0  0  0  0  0  0  0
    6.4294   39.1050   80.2894 O   0  0  0  0  0  0  0  0  0  0  0  0
    8.1222   40.4372   79.7085 O   0  0  0  0  0  0  0  0  0  0  0  0
   10.7547   43.1845   66.2662 N   0  0  0  0  0  0  0  0  0  0  0  0
    3.2003   40.0309   78.4100 O   0  0  0  0  0  0  0  0  0  0  0  0
   11.9688   43.7598   66.3144 C   0  0  0  0  0  0  0  0  0  0  0  0
    2.8284   41.2577   76.5809 O   0  0  0  0  0  0  0  0  0  0  0  0
   12.6158   43.9629   67.5399 N   0  0  0  0  0  0  0  0  0  0  0  0
   11.9812   43.5647   68.7087 C   0  0  0  0  0  0  0  0  0  0  0  0
   10.7139   43.0030   68.6262 C   0  0  0  0  0  0  0  0  0  0  0  0
   12.5241   43.7416   69.7964 O   0  0  0  0  0  0  0  0  0  0  0  0
   10.7950   42.0133   70.7514 C   0  0  0  0  0  0  0  0  0  0  0  0
   10.0694   42.5270   69.7626 N   0  0  0  0  0  0  0  0  0  0  0  0
   11.4567   40.9930   70.5743 O   0  0  0  0  0  0  0  0  0  0  0  0
    8.6068   42.4138   69.7721 C   0  0  2  0  0  0  0  0  0  0  0  0
    8.1625   41.6798   68.5043 C   0  0  0  0  0  0  0  0  0  0  0  0
   10.1270   42.7937   67.3856 C   0  0  0  0  0  0  0  0  0  0  0  0
    8.8688   42.1870   67.3021 N   0  0  0  0  0  0  0  0  0  0  0  0
    7.9614   43.8024   69.8332 C   0  0  0  0  0  0  0  0  0  0  0  0
    8.0240   44.3165   71.2069 N   0  0  0  0  0  0  0  0  0  0  0  0
    6.0972   42.4754   74.3678 C   0  0  0  0  0  0  0  0  0  0  0  0
    5.6400   43.6913   73.8653 C   0  0  0  0  0  0  0  0  0  0  0  0
    6.3063   44.3162   72.8130 C   0  0  0  0  0  0  0  0  0  0  0  0
    7.4099   43.7101   72.2223 C   0  0  0  0  0  0  0  0  0  0  0  0
    7.8624   42.4915   72.7169 C   0  0  0  0  0  0  0  0  0  0  0  0
    7.2179   41.8828   73.7929 C   0  0  0  0  0  0  0  0  0  0  0  0
    3.4418   40.3736   77.2272 C   0  0  0  0  0  0  0  0  0  0  0  0
  1  3  1  0  0  0  0
  2  1  1  6  0  0  0
  2  6  1  0  0  0  0
  2 34  1  0  0  0  0
  3  4  2  0  0  0  0
  3 28  1  0  0  0  0
  5 13  1  0  0  0  0
  6  7  1  0  0  0  0
  7  8  1  0  0  0  0
  8  9  1  0  0  0  0
  8 10  1  0  0  0  0
 11 13  2  0  0  0  0
 11 24  1  0  0  0  0
 12 34  1  0  0  0  0
 13 15  1  0  0  0  0
 14 34  1  0  0  0  0
 15 16  1  0  0  0  0
 16 17  1  0  0  0  0
 16 18  2  0  0  0  0
 17 20  1  0  0  0  0
 17 24  2  0  0  0  0
 19 21  1  0  0  0  0
 19 20  1  0  0  0  0
 20 22  1  0  0  0  0
 22 23  1  0  0  0  0
 22 26  1  6  0  0  0
 23 25  1  0  0  0  0
 24 25  1  0  0  0  0
 26 27  1  0  0  0  0
 27 31  1  0  0  0  0
 28 29  2  0  0  0  0
 28 33  1  0  0  0  0
 29 30  1  0  0  0  0
 30 31  2  0  0  0  0
 31 32  1  0  0  0  0
 32 33  2  0  0  0  0
M  END
>  <CHROM.1>
-84.14466661,67.01892160,-152.71423486,165.28981617,-50.50989109,-63.97051732
-78.13072794,-62.49775771,-110.17675427,136.07912382,7.95693105,42.06132230
72.71972793,2.08365039,-0.14388579,1.92223304

>  <Name>
ligand

>  <RI>
0

>  <Rbt.Current_Directory>
/home/itssahil/PROJECTS/Mol_Feturizer/New_Systems/rnas/3SUH

>  <Rbt.Executable>
rbdock ($Id: //depot/dev/client3/rdock/2013.1/src/exe/rbdock.cxx#4 $)

>  <Rbt.Library>
libRbt.so (2013.1, Build901 2013/11/27)

>  <Rbt.Parameter_File>
/export/apps/rDock/src/rDock_2013.1_src/data/scripts/dock_solv.prm

>  <Rbt.Receptor>
prm/pocket_docking_2.prm

>  <SCORE>
-6.75968

>  <SCORE.INTER>
-5.48272

>  <SCORE.INTER.CONST>
1

>  <SCORE.INTER.POLAR>
0

>  <SCORE.INTER.ROT>
10

>  <SCORE.INTER.SOLV>
23.7789

>  <SCORE.INTER.VDW>
-21.8481

>  <SCORE.INTER.norm>
-0.161256

>  <SCORE.INTRA>
-1.30365

>  <SCORE.INTRA.DIHEDRAL>
-3.46316

>  <SCORE.INTRA.DIHEDRAL.0>
12.2703

>  <SCORE.INTRA.POLAR>
0

>  <SCORE.INTRA.POLAR.0>
0

>  <SCORE.INTRA.REPUL>
0

>  <SCORE.INTRA.REPUL.0>
0

>  <SCORE.INTRA.SOLV>
0.086857

>  <SCORE.INTRA.SOLV.lig_0>
-64.3214

>  <SCORE.INTRA.VDW>
0.384509

>  <SCORE.INTRA.VDW.0>
-1.67301

>  <SCORE.INTRA.norm>
-0.0383425

>  <SCORE.RESTR>
0.0266868

>  <SCORE.RESTR.CAVITY>
0.0266868

>  <SCORE.RESTR.norm>
0.000784905

>  <SCORE.SYSTEM>
0

>  <SCORE.SYSTEM.CONST>
0

>  <SCORE.SYSTEM.DIHEDRAL>
0

>  <SCORE.SYSTEM.SOLV>
0

>  <SCORE.SYSTEM.norm>
0

>  <SCORE.heavy>
34

>  <SCORE.norm>
-0.198814

>  <RMSD>
1.026

$$$$
ligand
 OpenBabel11021811483D
libRbt.so/2013.1/901 2013/11/27
 34 36  0  0  0  0  0  0  0  0999 V2000
    5.4807   40.5919   75.5151 N   0  0  0  0  0  0  0  0  0  0  0  0
    5.2464   39.8648   76.7845 C   0  0  1  0  0  0  0  0  0  0  0  0
    6.0118   41.8195   75.4448 C   0  0  0  0  0  0  0  0  0  0  0  0
    6.3631   42.4821   76.4250 O   0  0  0  0  0  0  0  0  0  0  0  0
   12.6805   44.1004   64.8672 N   0  0  0  0  0  0  0  0  0  0  0  0
    6.5637   39.7522   77.5701 C   0  0  0  0  0  0  0  0  0  0  0  0
    6.3708   38.9944   78.8907 C   0  0  0  0  0  0  0  0  0  0  0  0
    5.7965   39.9127   79.9802 C   0  0  0  0  0  0  0  0  0  0  0  0
    4.9436   39.4181   80.7542 O   0  0  0  0  0  0  0  0  0  0  0  0
    6.2251   41.0890   80.0168 O   0  0  0  0  0  0  0  0  0  0  0  0
   10.9492   43.1488   66.0736 N   0  0  0  0  0  0  0  0  0  0  0  0
    4.2635   41.7953   77.8116 O   0  0  0  0  0  0  0  0  0  0  0  0
   12.1262   43.7976   66.0383 C   0  0  0  0  0  0  0  0  0  0  0  0
    3.2905   39.8137   78.1509 O   0  0  0  0  0  0  0  0  0  0  0  0
   12.7788   44.1604   67.2233 N   0  0  0  0  0  0  0  0  0  0  0  0
   12.1885   43.8435   68.4393 C   0  0  0  0  0  0  0  0  0  0  0  0
   10.9571   43.2016   68.4404 C   0  0  0  0  0  0  0  0  0  0  0  0
   12.7366   44.1602   69.4921 O   0  0  0  0  0  0  0  0  0  0  0  0
   11.1327   42.4355   70.6505 C   0  0  0  0  0  0  0  0  0  0  0  0
   10.3613   42.8037   69.6320 N   0  0  0  0  0  0  0  0  0  0  0  0
   10.8350   42.7453   71.8019 O   0  0  0  0  0  0  0  0  0  0  0  0
    8.9088   42.6047   69.6846 C   0  0  2  0  0  0  0  0  0  0  0  0
    8.4906   41.7226   68.5054 C   0  0  0  0  0  0  0  0  0  0  0  0
   10.3646   42.8348   67.2396 C   0  0  0  0  0  0  0  0  0  0  0  0
    9.1452   42.1487   67.2439 N   0  0  0  0  0  0  0  0  0  0  0  0
    8.1799   43.9513   69.6225 C   0  0  0  0  0  0  0  0  0  0  0  0
    6.8362   43.8130   70.1975 N   0  0  0  0  0  0  0  0  0  0  0  0
    6.2085   42.3523   74.0139 C   0  0  0  0  0  0  0  0  0  0  0  0
    6.0693   43.7105   73.7390 C   0  0  0  0  0  0  0  0  0  0  0  0
    6.3021   44.1989   72.4549 C   0  0  0  0  0  0  0  0  0  0  0  0
    6.6326   43.3282   71.4219 C   0  0  0  0  0  0  0  0  0  0  0  0
    6.7633   41.9703   71.6928 C   0  0  0  0  0  0  0  0  0  0  0  0
    6.5654   41.4855   72.9848 C   0  0  0  0  0  0  0  0  0  0  0  0
    4.1755   40.5534   77.6557 C   0  0  0  0  0  0  0  0  0  0  0  0
  1  3  1  0  0  0  0
  2  1  1  6  0  0  0
  2  6  1  0  0  0  0
  2 34  1  0  0  0  0
  3  4  2  0  0  0  0
  3 28  1  0  0  0  0
  5 13  1  0  0  0  0
  6  7  1  0  0  0  0
  7  8  1  0  0  0  0
  8  9  1  0  0  0  0
  8 10  1  0  0  0  0
 11 13  2  0  0  0  0
 11 24  1  0  0  0  0
 12 34  1  0  0  0  0
 13 15  1  0  0  0  0
 14 34  1  0  0  0  0
 15 16  1  0  0  0  0
 16 17  1  0  0  0  0
 16 18  2  0  0  0  0
 17 20  1  0  0  0  0
 17 24  2  0  0  0  0
 19 21  1  0  0  0  0
 19 20  1  0  0  0  0
 20 22  1  0  0  0  0
 22 23  1  0  0  0  0
 22 26  1  6  0  0  0
 23 25  1  0  0  0  0
 24 25  1  0  0  0  0
 26 27  1  0  0  0  0
 27 31  1  0  0  0  0
 28 29  2  0  0  0  0
 28 33  1  0  0  0  0
 29 30  1  0  0  0  0
 30 31  2  0  0  0  0
 31 32  1  0  0  0  0
 32 33  2  0  0  0  0
M  END
>  <CHROM.1>
-56.23124114,-179.54475153,-46.66109706,-81.03952251,141.20490313,141.31402266
-157.55101955,54.34939527,104.72501078,146.48995022,7.98718807,42.16220866
72.67012272,2.05953338,-0.02913545,1.85886827

>  <Name>
ligand

>  <RI>
0

>  <Rbt.Current_Directory>
/home/itssahil/PROJECTS/Mol_Feturizer/New_Systems/rnas/3SUH

>  <Rbt.Executable>
rbdock ($Id: //depot/dev/client3/rdock/2013.1/src/exe/rbdock.cxx#4 $)

>  <Rbt.Library>
libRbt.so (2013.1, Build901 2013/11/27)

>  <Rbt.Parameter_File>
/export/apps/rDock/src/rDock_2013.1_src/data/scripts/dock_solv.prm

>  <Rbt.Receptor>
prm/pocket_docking_2.prm

>  <SCORE>
-11.1697

>  <SCORE.INTER>
-8.67294

>  <SCORE.INTER.CONST>
1

>  <SCORE.INTER.POLAR>
0

>  <SCORE.INTER.ROT>
10

>  <SCORE.INTER.SOLV>
27.1667

>  <SCORE.INTER.VDW>
-25.1042

>  <SCORE.INTER.norm>
-0.255087

>  <SCORE.INTRA>
-2.51942

>  <SCORE.INTRA.DIHEDRAL>
-2.83177

>  <SCORE.INTRA.DIHEDRAL.0>
12.2703

>  <SCORE.INTRA.POLAR>
0

>  <SCORE.INTRA.POLAR.0>
0

>  <SCORE.INTRA.REPUL>
0

>  <SCORE.INTRA.REPUL.0>
0

>  <SCORE.INTRA.SOLV>
-0.741348

>  <SCORE.INTRA.SOLV.lig_0>
-64.3214

>  <SCORE.INTRA.VDW>
-0.732864

>  <SCORE.INTRA.VDW.0>
-1.67301

>  <SCORE.INTRA.norm>
-0.0741007

>  <SCORE.RESTR>
0.0226213

>  <SCORE.RESTR.CAVITY>
0.0226213

>  <SCORE.RESTR.norm>
0.000665332

>  <SCORE.SYSTEM>
0

>  <SCORE.SYSTEM.CONST>
0

>  <SCORE.SYSTEM.DIHEDRAL>
0

>  <SCORE.SYSTEM.SOLV>
0

>  <SCORE.SYSTEM.norm>
0

>  <SCORE.heavy>
34

>  <SCORE.norm>
-0.328522

>  <RMSD>
1.061

$$$$
ligand
 OpenBabel11021811483D
libRbt.so/2013.1/901 2013/11/27
 34 36  0  0  0  0  0  0  0  0999 V2000
    4.8228   41.4901   75.8178 N   0  0  0  0  0  0  0  0  0  0  0  0
    4.3221   40.9324   77.0957 C   0  0  1  0  0  0  0  0  0  0  0  0
    5.8833   41.0075   75.1570 C   0  0  0  0  0  0  0  0  0  0  0  0
    6.5617   40.0490   75.5368 O   0  0  0  0  0  0  0  0  0  0  0  0
   12.5372   43.9708   64.7423 N   0  0  0  0  0  0  0  0  0  0  0  0
    5.3485   41.1876   78.2122 C   0  0  0  0  0  0  0  0  0  0  0  0
    5.0105   40.3952   79.4823 C   0  0  0  0  0  0  0  0  0  0  0  0
    6.0312   40.6695   80.5973 C   0  0  0  0  0  0  0  0  0  0  0  0
    7.1707   40.1639   80.4669 O   0  0  0  0  0  0  0  0  0  0  0  0
    5.6501   41.3813   81.5548 O   0  0  0  0  0  0  0  0  0  0  0  0
   11.0048   43.0067   66.1847 N   0  0  0  0  0  0  0  0  0  0  0  0
    2.2401   40.8726   78.2829 O   0  0  0  0  0  0  0  0  0  0  0  0
   12.1113   43.7429   65.9821 C   0  0  0  0  0  0  0  0  0  0  0  0
    2.6625   42.6441   76.9898 O   0  0  0  0  0  0  0  0  0  0  0  0
   12.8241   44.2752   67.0638 N   0  0  0  0  0  0  0  0  0  0  0  0
   12.3675   44.0349   68.3527 C   0  0  0  0  0  0  0  0  0  0  0  0
   11.2035   43.2977   68.5257 C   0  0  0  0  0  0  0  0  0  0  0  0
   12.9698   44.4998   69.3172 O   0  0  0  0  0  0  0  0  0  0  0  0
   11.6297   42.7748   70.7723 C   0  0  0  0  0  0  0  0  0  0  0  0
   10.7466   42.9741   69.7985 N   0  0  0  0  0  0  0  0  0  0  0  0
   12.5340   41.9538   70.6356 O   0  0  0  0  0  0  0  0  0  0  0  0
    9.3274   42.6630   70.0014 C   0  0  2  0  0  0  0  0  0  0  0  0
    8.8947   41.6355   68.9524 C   0  0  0  0  0  0  0  0  0  0  0  0
   10.5494   42.7646   67.4232 C   0  0  0  0  0  0  0  0  0  0  0  0
    9.4015   41.9848   67.6024 N   0  0  0  0  0  0  0  0  0  0  0  0
    8.4772   43.9323   69.8810 C   0  0  0  0  0  0  0  0  0  0  0  0
    7.0948   43.6409   70.2799 N   0  0  0  0  0  0  0  0  0  0  0  0
    6.1852   41.7160   73.8241 C   0  0  0  0  0  0  0  0  0  0  0  0
    6.1099   43.1033   73.7270 C   0  0  0  0  0  0  0  0  0  0  0  0
    6.4375   43.7470   72.5353 C   0  0  0  0  0  0  0  0  0  0  0  0
    6.8002   43.0074   71.4147 C   0  0  0  0  0  0  0  0  0  0  0  0
    6.8673   41.6213   71.5073 C   0  0  0  0  0  0  0  0  0  0  0  0
    6.5742   40.9787   72.7093 C   0  0  0  0  0  0  0  0  0  0  0  0
    2.9577   41.5326   77.4930 C   0  0  0  0  0  0  0  0  0  0  0  0
  1  3  1  0  0  0  0
  2  1  1  6  0  0  0
  2  6  1  0  0  0  0
  2 34  1  0  0  0  0
  3  4  2  0  0  0  0
  3 28  1  0  0  0  0
  5 13  1  0  0  0  0
  6  7  1  0  0  0  0
  7  8  1  0  0  0  0
  8  9  1  0  0  0  0
  8 10  1  0  0  0  0
 11 13  2  0  0  0  0
 11 24  1  0  0  0  0
 12 34  1  0  0  0  0
 13 15  1  0  0  0  0
 14 34  1  0  0  0  0
 15 16  1  0  0  0  0
 16 17  1  0  0  0  0
 16 18  2  0  0  0  0
 17 20  1  0  0  0  0
 17 24  2  0  0  0  0
 19 21  1  0  0  0  0
 19 20  1  0  0  0  0
 20 22  1  0  0  0  0
 22 23  1  0  0  0  0
 22 26  1  6  0  0  0
 23 25  1  0  0  0  0
 24 25  1  0  0  0  0
 26 27  1  0  0  0  0
 27 31  1  0  0  0  0
 28 29  2  0  0  0  0
 28 33  1  0  0  0  0
 29 30  1  0  0  0  0
 30 31  2  0  0  0  0
 31 32  1  0  0  0  0
 32 33  2  0  0  0  0
M  END
>  <CHROM.1>
67.49702132,-168.74682385,157.79583953,-179.30875294,-72.94022708,-54.66901267
-171.70855595,49.43106454,97.55405163,42.30979226,7.97421630,42.26019007
72.70718982,2.11496390,0.01163449,1.77486549

>  <Name>
ligand

>  <RI>
0

>  <Rbt.Current_Directory>
/home/itssahil/PROJECTS/Mol_Feturizer/New_Systems/rnas/3SUH

>  <Rbt.Executable>
rbdock ($Id: //depot/dev/client3/rdock/2013.1/src/exe/rbdock.cxx#4 $)

>  <Rbt.Library>
libRbt.so (2013.1, Build901 2013/11/27)

>  <Rbt.Parameter_File>
/export/apps/rDock/src/rDock_2013.1_src/data/scripts/dock_solv.prm

>  <Rbt.Receptor>
prm/pocket_docking_2.prm

>  <SCORE>
-11.9826

>  <SCORE.INTER>
-8.22834

>  <SCORE.INTER.CONST>
1

>  <SCORE.INTER.POLAR>
0

>  <SCORE.INTER.ROT>
10

>  <SCORE.INTER.SOLV>
26.5926

>  <SCORE.INTER.VDW>
-24.6164

>  <SCORE.INTER.norm>
-0.24201

>  <SCORE.INTRA>
-3.75426

>  <SCORE.INTRA.DIHEDRAL>
-5.07015

>  <SCORE.INTRA.DIHEDRAL.0>
12.2703

>  <SCORE.INTRA.POLAR>
0

>  <SCORE.INTRA.POLAR.0>
0

>  <SCORE.INTRA.REPUL>
0

>  <SCORE.INTRA.REPUL.0>
0

>  <SCORE.INTRA.SOLV>
-0.957818

>  <SCORE.INTRA.SOLV.lig_0>
-64.3214

>  <SCORE.INTRA.VDW>
-0.740276

>  <SCORE.INTRA.VDW.0>
-1.67301

>  <SCORE.INTRA.norm>
-0.110419

>  <SCORE.RESTR>
0

>  <SCORE.RESTR.CAVITY>
0

>  <SCORE.RESTR.norm>
0

>  <SCORE.SYSTEM>
0

>  <SCORE.SYSTEM.CONST>
0

>  <SCORE.SYSTEM.DIHEDRAL>
0

>  <SCORE.SYSTEM.SOLV>
0

>  <SCORE.SYSTEM.norm>
0

>  <SCORE.heavy>
34

>  <SCORE.norm>
-0.352429

>  <RMSD>
1.123

$$$$
ligand
 OpenBabel11021811483D
libRbt.so/2013.1/901 2013/11/27
 34 36  0  0  0  0  0  0  0  0999 V2000
    6.3054   40.7176   75.7950 N   0  0  0  0  0  0  0  0  0  0  0  0
    6.1856   40.0504   77.1124 C   0  0  1  0  0  0  0  0  0  0  0  0
    5.6230   41.8173   75.4502 C   0  0  0  0  0  0  0  0  0  0  0  0
    4.8193   42.3961   76.1866 O   0  0  0  0  0  0  0  0  0  0  0  0
   12.5694   44.1720   64.8809 N   0  0  0  0  0  0  0  0  0  0  0  0
    6.5380   41.0437   78.2324 C   0  0  0  0  0  0  0  0  0  0  0  0
    6.8841   40.3202   79.5408 C   0  0  0  0  0  0  0  0  0  0  0  0
    6.2160   40.9998   80.7458 C   0  0  0  0  0  0  0  0  0  0  0  0
    6.9680   41.5715   81.5697 O   0  0  0  0  0  0  0  0  0  0  0  0
    4.9671   40.9349   80.8153 O   0  0  0  0  0  0  0  0  0  0  0  0
   10.8333   43.2526   66.1052 N   0  0  0  0  0  0  0  0  0  0  0  0
    3.9300   39.6186   76.4241 O   0  0  0  0  0  0  0  0  0  0  0  0
   12.0529   43.8159   66.0543 C   0  0  0  0  0  0  0  0  0  0  0  0
    4.5635   38.9198   78.4488 O   0  0  0  0  0  0  0  0  0  0  0  0
   12.7895   44.0338   67.2255 N   0  0  0  0  0  0  0  0  0  0  0  0
   12.2384   43.6628   68.4445 C   0  0  0  0  0  0  0  0  0  0  0  0
   10.9634   43.1129   68.4649 C   0  0  0  0  0  0  0  0  0  0  0  0
   12.8609   43.8531   69.4864 O   0  0  0  0  0  0  0  0  0  0  0  0
   11.1905   42.1599   70.5962 C   0  0  0  0  0  0  0  0  0  0  0  0
   10.3993   42.6637   69.6538 N   0  0  0  0  0  0  0  0  0  0  0  0
   10.8294   42.1446   71.7709 O   0  0  0  0  0  0  0  0  0  0  0  0
    8.9404   42.5658   69.7719 C   0  0  2  0  0  0  0  0  0  0  0  0
    8.3980   41.8143   68.5535 C   0  0  0  0  0  0  0  0  0  0  0  0
   10.2855   42.8879   67.2744 C   0  0  0  0  0  0  0  0  0  0  0  0
    9.0192   42.2930   67.2939 N   0  0  0  0  0  0  0  0  0  0  0  0
    8.3138   43.9619   69.8545 C   0  0  0  0  0  0  0  0  0  0  0  0
    6.9247   43.8536   70.3172 N   0  0  0  0  0  0  0  0  0  0  0  0
    5.9500   42.3616   74.0478 C   0  0  0  0  0  0  0  0  0  0  0  0
    5.8309   43.7213   73.7708 C   0  0  0  0  0  0  0  0  0  0  0  0
    6.1805   44.2203   72.5176 C   0  0  0  0  0  0  0  0  0  0  0  0
    6.6099   43.3587   71.5138 C   0  0  0  0  0  0  0  0  0  0  0  0
    6.7208   41.9993   71.7859 C   0  0  0  0  0  0  0  0  0  0  0  0
    6.4053   41.5040   73.0503 C   0  0  0  0  0  0  0  0  0  0  0  0
    4.7710   39.4806   77.3451 C   0  0  0  0  0  0  0  0  0  0  0  0
  1  3  1  0  0  0  0
  2  1  1  6  0  0  0
  2  6  1  0  0  0  0
  2 34  1  0  0  0  0
  3  4  2  0  0  0  0
  3 28  1  0  0  0  0
  5 13  1  0  0  0  0
  6  7  1  0  0  0  0
  7  8  1  0  0  0  0
  8  9  1  0  0  0  0
  8 10  1  0  0  0  0
 11 13  2  0  0  0  0
 11 24  1  0  0  0  0
 12 34  1  0  0  0  0
 13 15  1  0  0  0  0
 14 34  1  0  0  0  0
 15 16  1  0  0  0  0
 16 17  1  0  0  0  0
 16 18  2  0  0  0  0
 17 20  1  0  0  0  0
 17 24  2  0  0  0  0
 19 21  1  0  0  0  0
 19 20  1  0  0  0  0
 20 22  1  0  0  0  0
 22 23  1  0  0  0  0
 22 26  1  6  0  0  0
 23 25  1  0  0  0  0
 24 25  1  0  0  0  0
 26 27  1  0  0  0  0
 27 31  1  0  0  0  0
 28 29  2  0  0  0  0
 28 33  1  0  0  0  0
 29 30  1  0  0  0  0
 30 31  2  0  0  0  0
 31 32  1  0  0  0  0
 32 33  2  0  0  0  0
M  END
>  <CHROM.1>
-57.94805405,-161.07015026,1.27220657,-136.05328350,-112.35457664,157.10311031
-165.36338604,62.05755293,106.70604140,-150.97614789,8.05232700,42.17395357
72.77671410,2.02804847,0.11003305,1.75606365

>  <Name>
ligand

>  <RI>
0

>  <Rbt.Current_Directory>
/home/itssahil/PROJECTS/Mol_Feturizer/New_Systems/rnas/3SUH

>  <Rbt.Executable>
rbdock ($Id: //depot/dev/client3/rdock/2013.1/src/exe/rbdock.cxx#4 $)

>  <Rbt.Library>
libRbt.so (2013.1, Build901 2013/11/27)

>  <Rbt.Parameter_File>
/export/apps/rDock/src/rDock_2013.1_src/data/scripts/dock_solv.prm

>  <Rbt.Receptor>
prm/pocket_docking_2.prm

>  <SCORE>
-8.47318

>  <SCORE.INTER>
-8.09367

>  <SCORE.INTER.CONST>
1

>  <SCORE.INTER.POLAR>
0

>  <SCORE.INTER.ROT>
10

>  <SCORE.INTER.SOLV>
27.2336

>  <SCORE.INTER.VDW>
-24.7403

>  <SCORE.INTER.norm>
-0.238049

>  <SCORE.INTRA>
-0.395649

>  <SCORE.INTRA.DIHEDRAL>
1.05974

>  <SCORE.INTRA.DIHEDRAL.0>
12.2703

>  <SCORE.INTRA.POLAR>
0

>  <SCORE.INTRA.POLAR.0>
0

>  <SCORE.INTRA.REPUL>
0

>  <SCORE.INTRA.REPUL.0>
0

>  <SCORE.INTRA.SOLV>
-0.75696

>  <SCORE.INTRA.SOLV.lig_0>
-64.3214

>  <SCORE.INTRA.VDW>
-0.54704

>  <SCORE.INTRA.VDW.0>
-1.67301

>  <SCORE.INTRA.norm>
-0.0116367

>  <SCORE.RESTR>
0.016137

>  <SCORE.RESTR.CAVITY>
0.016137

>  <SCORE.RESTR.norm>
0.000474617

>  <SCORE.SYSTEM>
0

>  <SCORE.SYSTEM.CONST>
0

>  <SCORE.SYSTEM.DIHEDRAL>
0

>  <SCORE.SYSTEM.SOLV>
0

>  <SCORE.SYSTEM.norm>
0

>  <SCORE.heavy>
34

>  <SCORE.norm>
-0.249211

>  <RMSD>
1.152

$$$$
ligand
 OpenBabel11021811483D
libRbt.so/2013.1/901 2013/11/27
 34 36  0  0  0  0  0  0  0  0999 V2000
    4.8499   41.6546   75.7456 N   0  0  0  0  0  0  0  0  0  0  0  0
    4.1665   40.9459   76.8527 C   0  0  1  0  0  0  0  0  0  0  0  0
    5.9332   41.1840   75.1139 C   0  0  0  0  0  0  0  0  0  0  0  0
    6.4835   40.1124   75.3822 O   0  0  0  0  0  0  0  0  0  0  0  0
   12.7601   44.1681   64.9174 N   0  0  0  0  0  0  0  0  0  0  0  0
    4.9958   41.0726   78.1417 C   0  0  0  0  0  0  0  0  0  0  0  0
    4.3994   40.2357   79.2816 C   0  0  0  0  0  0  0  0  0  0  0  0
    5.2453   40.3524   80.5588 C   0  0  0  0  0  0  0  0  0  0  0  0
    6.1569   39.5075   80.7205 O   0  0  0  0  0  0  0  0  0  0  0  0
    4.9632   41.2862   81.3445 O   0  0  0  0  0  0  0  0  0  0  0  0
   11.0044   43.1799   66.0573 N   0  0  0  0  0  0  0  0  0  0  0  0
    2.5656   42.7250   76.9928 O   0  0  0  0  0  0  0  0  0  0  0  0
   12.1734   43.8437   66.0668 C   0  0  0  0  0  0  0  0  0  0  0  0
    1.8580   40.6414   77.3758 O   0  0  0  0  0  0  0  0  0  0  0  0
   12.7838   44.2000   67.2760 N   0  0  0  0  0  0  0  0  0  0  0  0
   12.1600   43.8606   68.4690 C   0  0  0  0  0  0  0  0  0  0  0  0
   10.9375   43.2033   68.4236 C   0  0  0  0  0  0  0  0  0  0  0  0
   12.6707   44.1711   69.5422 O   0  0  0  0  0  0  0  0  0  0  0  0
   11.0538   42.4122   70.6288 C   0  0  0  0  0  0  0  0  0  0  0  0
   10.3100   42.7832   69.5911 N   0  0  0  0  0  0  0  0  0  0  0  0
   10.7689   42.7841   71.7650 O   0  0  0  0  0  0  0  0  0  0  0  0
    8.8592   42.5653   69.5956 C   0  0  2  0  0  0  0  0  0  0  0  0
    8.4896   41.6927   68.3933 C   0  0  0  0  0  0  0  0  0  0  0  0
   10.3877   42.8440   67.2005 C   0  0  0  0  0  0  0  0  0  0  0  0
    9.1777   42.1426   67.1582 N   0  0  0  0  0  0  0  0  0  0  0  0
    8.1153   43.9033   69.5268 C   0  0  0  0  0  0  0  0  0  0  0  0
    7.8951   44.4167   70.8845 N   0  0  0  0  0  0  0  0  0  0  0  0
    6.4383   42.0697   73.9606 C   0  0  0  0  0  0  0  0  0  0  0  0
    6.9781   43.3275   74.2182 C   0  0  0  0  0  0  0  0  0  0  0  0
    7.4857   44.1048   73.1791 C   0  0  0  0  0  0  0  0  0  0  0  0
    7.4181   43.6518   71.8658 C   0  0  0  0  0  0  0  0  0  0  0  0
    6.8713   42.3997   71.6057 C   0  0  0  0  0  0  0  0  0  0  0  0
    6.3955   41.6062   72.6486 C   0  0  0  0  0  0  0  0  0  0  0  0
    2.7418   41.4867   77.0927 C   0  0  0  0  0  0  0  0  0  0  0  0
  1  3  1  0  0  0  0
  2  1  1  6  0  0  0
  2  6  1  0  0  0  0
  2 34  1  0  0  0  0
  3  4  2  0  0  0  0
  3 28  1  0  0  0  0
  5 13  1  0  0  0  0
  6  7  1  0  0  0  0
  7  8  1  0  0  0  0
  8  9  1  0  0  0  0
  8 10  1  0  0  0  0
 11 13  2  0  0  0  0
 11 24  1  0  0  0  0
 12 34  1  0  0  0  0
 13 15  1  0  0  0  0
 14 34  1  0  0  0  0
 15 16  1  0  0  0  0
 16 17  1  0  0  0  0
 16 18  2  0  0  0  0
 17 20  1  0  0  0  0
 17 24  2  0  0  0  0
 19 21  1  0  0  0  0
 19 20  1  0  0  0  0
 20 22  1  0  0  0  0
 22 23  1  0  0  0  0
 22 26  1  6  0  0  0
 23 25  1  0  0  0  0
 24 25  1  0  0  0  0
 26 27  1  0  0  0  0
 27 31  1  0  0  0  0
 28 29  2  0  0  0  0
 28 33  1  0  0  0  0
 29 30  1  0  0  0  0
 30 31  2  0  0  0  0
 31 32  1  0  0  0  0
 32 33  2  0  0  0  0
M  END
>  <CHROM.1>
75.13852471,-174.25845979,-38.81318429,179.18794556,-91.07625829,136.09603667
-88.78556338,-47.26853672,166.97824472,67.24465011,7.77595041,42.33454230
72.69461778,2.12042772,0.04357927,1.77337685

>  <Name>
ligand

>  <RI>
0

>  <Rbt.Current_Directory>
/home/itssahil/PROJECTS/Mol_Feturizer/New_Systems/rnas/3SUH

>  <Rbt.Executable>
rbdock ($Id: //depot/dev/client3/rdock/2013.1/src/exe/rbdock.cxx#4 $)

>  <Rbt.Library>
libRbt.so (2013.1, Build901 2013/11/27)

>  <Rbt.Parameter_File>
/export/apps/rDock/src/rDock_2013.1_src/data/scripts/dock_solv.prm

>  <Rbt.Receptor>
prm/pocket_docking_2.prm

>  <SCORE>
-9.38841

>  <SCORE.INTER>
-7.35031

>  <SCORE.INTER.CONST>
1

>  <SCORE.INTER.POLAR>
0

>  <SCORE.INTER.ROT>
10

>  <SCORE.INTER.SOLV>
24.5778

>  <SCORE.INTER.VDW>
-23.3595

>  <SCORE.INTER.norm>
-0.216186

>  <SCORE.INTRA>
-2.05594

>  <SCORE.INTRA.DIHEDRAL>
-3.10747

>  <SCORE.INTRA.DIHEDRAL.0>
12.2703

>  <SCORE.INTRA.POLAR>
0

>  <SCORE.INTRA.POLAR.0>
0

>  <SCORE.INTRA.REPUL>
0

>  <SCORE.INTRA.REPUL.0>
0

>  <SCORE.INTRA.SOLV>
-0.529588

>  <SCORE.INTRA.SOLV.lig_0>
-64.3214

>  <SCORE.INTRA.VDW>
-0.237414

>  <SCORE.INTRA.VDW.0>
-1.67301

>  <SCORE.INTRA.norm>
-0.0604689

>  <SCORE.RESTR>
0.0178408

>  <SCORE.RESTR.CAVITY>
0.0178408

>  <SCORE.RESTR.norm>
0.00052473

>  <SCORE.SYSTEM>
0

>  <SCORE.SYSTEM.CONST>
0

>  <SCORE.SYSTEM.DIHEDRAL>
0

>  <SCORE.SYSTEM.SOLV>
0

>  <SCORE.SYSTEM.norm>
0

>  <SCORE.heavy>
34

>  <SCORE.norm>
-0.27613

>  <RMSD>
1.166

$$$$
ligand
 OpenBabel11021811483D
libRbt.so/2013.1/901 2013/11/27
 34 36  0  0  0  0  0  0  0  0999 V2000
    5.0695   41.3049   75.7356 N   0  0  0  0  0  0  0  0  0  0  0  0
    4.3529   40.6333   76.8448 C   0  0  1  0  0  0  0  0  0  0  0  0
    4.6505   42.4353   75.1520 C   0  0  0  0  0  0  0  0  0  0  0  0
    3.6236   43.0421   75.4693 O   0  0  0  0  0  0  0  0  0  0  0  0
   12.6600   44.1925   65.1063 N   0  0  0  0  0  0  0  0  0  0  0  0
    5.0589   39.3130   77.1962 C   0  0  0  0  0  0  0  0  0  0  0  0
    6.4844   39.5543   77.7112 C   0  0  0  0  0  0  0  0  0  0  0  0
    6.4818   39.9255   79.2020 C   0  0  0  0  0  0  0  0  0  0  0  0
    6.9766   41.0333   79.5166 O   0  0  0  0  0  0  0  0  0  0  0  0
    5.9824   39.0940   79.9944 O   0  0  0  0  0  0  0  0  0  0  0  0
   10.8666   43.2056   66.1871 N   0  0  0  0  0  0  0  0  0  0  0  0
    3.5673   41.1128   79.0585 O   0  0  0  0  0  0  0  0  0  0  0  0
   12.0579   43.8268   66.2351 C   0  0  0  0  0  0  0  0  0  0  0  0
    4.8909   42.6126   78.0647 O   0  0  0  0  0  0  0  0  0  0  0  0
   12.6756   44.0951   67.4631 N   0  0  0  0  0  0  0  0  0  0  0  0
   12.0357   43.7133   68.6346 C   0  0  0  0  0  0  0  0  0  0  0  0
   10.7914   43.1025   68.5510 C   0  0  0  0  0  0  0  0  0  0  0  0
   12.5527   43.9469   69.7242 O   0  0  0  0  0  0  0  0  0  0  0  0
   10.8715   42.1890   70.7100 C   0  0  0  0  0  0  0  0  0  0  0  0
   10.1450   42.6416   69.6926 N   0  0  0  0  0  0  0  0  0  0  0  0
   11.3712   41.0669   70.6689 O   0  0  0  0  0  0  0  0  0  0  0  0
    8.6876   42.4746   69.6823 C   0  0  2  0  0  0  0  0  0  0  0  0
    8.2926   41.6821   68.4335 C   0  0  0  0  0  0  0  0  0  0  0  0
   10.2342   42.8297   67.3090 C   0  0  0  0  0  0  0  0  0  0  0  0
    9.0007   42.1743   67.2261 N   0  0  0  0  0  0  0  0  0  0  0  0
    7.9909   43.8395   69.6851 C   0  0  0  0  0  0  0  0  0  0  0  0
    8.0230   44.4080   71.0383 N   0  0  0  0  0  0  0  0  0  0  0  0
    5.5861   42.9761   74.0556 C   0  0  0  0  0  0  0  0  0  0  0  0
    6.3229   42.1023   73.2597 C   0  0  0  0  0  0  0  0  0  0  0  0
    7.1265   42.5906   72.2314 C   0  0  0  0  0  0  0  0  0  0  0  0
    7.2371   43.9603   72.0170 C   0  0  0  0  0  0  0  0  0  0  0  0
    6.5090   44.8348   72.8166 C   0  0  0  0  0  0  0  0  0  0  0  0
    5.6771   44.3454   73.8227 C   0  0  0  0  0  0  0  0  0  0  0  0
    4.2616   41.5270   78.0989 C   0  0  0  0  0  0  0  0  0  0  0  0
  1  3  1  0  0  0  0
  2  1  1  6  0  0  0
  2  6  1  0  0  0  0
  2 34  1  0  0  0  0
  3  4  2  0  0  0  0
  3 28  1  0  0  0  0
  5 13  1  0  0  0  0
  6  7  1  0  0  0  0
  7  8  1  0  0  0  0
  8  9  1  0  0  0  0
  8 10  1  0  0  0  0
 11 13  2  0  0  0  0
 11 24  1  0  0  0  0
 12 34  1  0  0  0  0
 13 15  1  0  0  0  0
 14 34  1  0  0  0  0
 15 16  1  0  0  0  0
 16 17  1  0  0  0  0
 16 18  2  0  0  0  0
 17 20  1  0  0  0  0
 17 24  2  0  0  0  0
 19 21  1  0  0  0  0
 19 20  1  0  0  0  0
 20 22  1  0  0  0  0
 22 23  1  0  0  0  0
 22 26  1  6  0  0  0
 23 25  1  0  0  0  0
 24 25  1  0  0  0  0
 26 27  1  0  0  0  0
 27 31  1  0  0  0  0
 28 29  2  0  0  0  0
 28 33  1  0  0  0  0
 29 30  1  0  0  0  0
 30 31  2  0  0  0  0
 31 32  1  0  0  0  0
 32 33  2  0  0  0  0
M  END
>  <CHROM.1>
175.82006046,63.25522829,173.43500401,82.05400465,-120.79128512,-77.65280065
-77.54893959,-74.74294887,46.91605028,32.86346940,7.87996380,42.35784834
72.65764397,2.13938893,-0.39499998,2.03670598

>  <Name>
ligand

>  <RI>
0

>  <Rbt.Current_Directory>
/home/itssahil/PROJECTS/Mol_Feturizer/New_Systems/rnas/3SUH

>  <Rbt.Executable>
rbdock ($Id: //depot/dev/client3/rdock/2013.1/src/exe/rbdock.cxx#4 $)

>  <Rbt.Library>
libRbt.so (2013.1, Build901 2013/11/27)

>  <Rbt.Parameter_File>
/export/apps/rDock/src/rDock_2013.1_src/data/scripts/dock_solv.prm

>  <Rbt.Receptor>
prm/pocket_docking_2.prm

>  <SCORE>
-9.67737

>  <SCORE.INTER>
-6.71284

>  <SCORE.INTER.CONST>
1

>  <SCORE.INTER.POLAR>
0

>  <SCORE.INTER.ROT>
10

>  <SCORE.INTER.SOLV>
25.2001

>  <SCORE.INTER.VDW>
-23.1419

>  <SCORE.INTER.norm>
-0.197436

>  <SCORE.INTRA>
-3.46765

>  <SCORE.INTRA.DIHEDRAL>
-3.10989

>  <SCORE.INTRA.DIHEDRAL.0>
12.2703

>  <SCORE.INTRA.POLAR>
0

>  <SCORE.INTRA.POLAR.0>
0

>  <SCORE.INTRA.REPUL>
0

>  <SCORE.INTRA.REPUL.0>
0

>  <SCORE.INTRA.SOLV>
-0.635454

>  <SCORE.INTRA.SOLV.lig_0>
-64.3214

>  <SCORE.INTRA.VDW>
-1.59498

>  <SCORE.INTRA.VDW.0>
-1.67301

>  <SCORE.INTRA.norm>
-0.10199

>  <SCORE.RESTR>
0.503123

>  <SCORE.RESTR.CAVITY>
0.503123

>  <SCORE.RESTR.norm>
0.0147977

>  <SCORE.SYSTEM>
0

>  <SCORE.SYSTEM.CONST>
0

>  <SCORE.SYSTEM.DIHEDRAL>
0

>  <SCORE.SYSTEM.SOLV>
0

>  <SCORE.SYSTEM.norm>
0

>  <SCORE.heavy>
34

>  <SCORE.norm>
-0.284628

>  <RMSD>
1.227

$$$$
ligand
 OpenBabel11021811483D
libRbt.so/2013.1/901 2013/11/27
 34 36  0  0  0  0  0  0  0  0999 V2000
    5.2636   40.1004   76.3730 N   0  0  0  0  0  0  0  0  0  0  0  0
    4.5709   39.4321   77.4993 C   0  0  1  0  0  0  0  0  0  0  0  0
    4.8137   41.2098   75.7724 C   0  0  0  0  0  0  0  0  0  0  0  0
    3.7750   41.7977   76.0863 O   0  0  0  0  0  0  0  0  0  0  0  0
   12.5126   44.3621   65.7323 N   0  0  0  0  0  0  0  0  0  0  0  0
    5.6068   38.8232   78.4592 C   0  0  0  0  0  0  0  0  0  0  0  0
    6.5078   39.9017   79.0761 C   0  0  0  0  0  0  0  0  0  0  0  0
    7.3652   39.3262   80.2136 C   0  0  0  0  0  0  0  0  0  0  0  0
    6.7611   38.7670   81.1588 O   0  0  0  0  0  0  0  0  0  0  0  0
    8.6068   39.4561   80.1116 O   0  0  0  0  0  0  0  0  0  0  0  0
   10.6801   43.2386   66.5915 N   0  0  0  0  0  0  0  0  0  0  0  0
    4.1183   41.5260   78.5758 O   0  0  0  0  0  0  0  0  0  0  0  0
   11.9251   43.7233   66.7409 C   0  0  0  0  0  0  0  0  0  0  0  0
    2.4963   39.9909   78.5380 O   0  0  0  0  0  0  0  0  0  0  0  0
   12.6143   43.5641   67.9498 N   0  0  0  0  0  0  0  0  0  0  0  0
   11.9894   42.9003   68.9969 C   0  0  0  0  0  0  0  0  0  0  0  0
   10.6912   42.4402   68.8201 C   0  0  0  0  0  0  0  0  0  0  0  0
   12.5696   42.7571   70.0702 O   0  0  0  0  0  0  0  0  0  0  0  0
   10.7729   40.9200   70.6047 C   0  0  0  0  0  0  0  0  0  0  0  0
   10.0513   41.7105   69.8159 N   0  0  0  0  0  0  0  0  0  0  0  0
   10.6101   40.9378   71.8227 O   0  0  0  0  0  0  0  0  0  0  0  0
    8.5854   41.6670   69.8536 C   0  0  2  0  0  0  0  0  0  0  0  0
    8.0681   41.3167   68.4561 C   0  0  0  0  0  0  0  0  0  0  0  0
   10.0612   42.5946   67.5927 C   0  0  0  0  0  0  0  0  0  0  0  0
    8.7697   42.0910   67.4027 N   0  0  0  0  0  0  0  0  0  0  0  0
    8.0198   43.0182   70.3039 C   0  0  0  0  0  0  0  0  0  0  0  0
    8.2688   43.2048   71.7386 N   0  0  0  0  0  0  0  0  0  0  0  0
    5.7286   41.7527   74.6596 C   0  0  0  0  0  0  0  0  0  0  0  0
    6.0831   43.0992   74.6288 C   0  0  0  0  0  0  0  0  0  0  0  0
    6.9557   43.5779   73.6536 C   0  0  0  0  0  0  0  0  0  0  0  0
    7.4476   42.7244   72.6717 C   0  0  0  0  0  0  0  0  0  0  0  0
    7.0876   41.3812   72.6957 C   0  0  0  0  0  0  0  0  0  0  0  0
    6.2428   40.8941   73.6921 C   0  0  0  0  0  0  0  0  0  0  0  0
    3.6514   40.4022   78.2695 C   0  0  0  0  0  0  0  0  0  0  0  0
  1  3  1  0  0  0  0
  2  1  1  6  0  0  0
  2  6  1  0  0  0  0
  2 34  1  0  0  0  0
  3  4  2  0  0  0  0
  3 28  1  0  0  0  0
  5 13  1  0  0  0  0
  6  7  1  0  0  0  0
  7  8  1  0  0  0  0
  8  9  1  0  0  0  0
  8 10  1  0  0  0  0
 11 13  2  0  0  0  0
 11 24  1  0  0  0  0
 12 34  1  0  0  0  0
 13 15  1  0  0  0  0
 14 34  1  0  0  0  0
 15 16  1  0  0  0  0
 16 17  1  0  0  0  0
 16 18  2  0  0  0  0
 17 20  1  0  0  0  0
 17 24  2  0  0  0  0
 19 21  1  0  0  0  0
 19 20  1  0  0  0  0
 20 22  1  0  0  0  0
 22 23  1  0  0  0  0
 22 26  1  6  0  0  0
 23 25  1  0  0  0  0
 24 25  1  0  0  0  0
 26 27  1  0  0  0  0
 27 31  1  0  0  0  0
 28 29  2  0  0  0  0
 28 33  1  0  0  0  0
 29 30  1  0  0  0  0
 30 31  2  0  0  0  0
 31 32  1  0  0  0  0
 32 33  2  0  0  0  0
M  END
>  <CHROM.1>
-145.71793589,62.02979122,-46.47259428,169.82885701,-56.42540213,133.28193602
-72.44630482,-85.35580066,-127.24109365,-130.98703521,7.91002605,41.56237168
73.18868977,2.05373113,-0.12647410,1.89841306

>  <Name>
ligand

>  <RI>
0

>  <Rbt.Current_Directory>
/home/itssahil/PROJECTS/Mol_Feturizer/New_Systems/rnas/3SUH

>  <Rbt.Executable>
rbdock ($Id: //depot/dev/client3/rdock/2013.1/src/exe/rbdock.cxx#4 $)

>  <Rbt.Library>
libRbt.so (2013.1, Build901 2013/11/27)

>  <Rbt.Parameter_File>
/export/apps/rDock/src/rDock_2013.1_src/data/scripts/dock_solv.prm

>  <Rbt.Receptor>
prm/pocket_docking_2.prm

>  <SCORE>
-4.37495

>  <SCORE.INTER>
-2.70574

>  <SCORE.INTER.CONST>
1

>  <SCORE.INTER.POLAR>
0

>  <SCORE.INTER.ROT>
10

>  <SCORE.INTER.SOLV>
23.4056

>  <SCORE.INTER.VDW>
-19.8724

>  <SCORE.INTER.norm>
-0.0795805

>  <SCORE.INTRA>
-1.66921

>  <SCORE.INTRA.DIHEDRAL>
-3.77784

>  <SCORE.INTRA.DIHEDRAL.0>
12.2703

>  <SCORE.INTRA.POLAR>
0

>  <SCORE.INTRA.POLAR.0>
0

>  <SCORE.INTRA.REPUL>
0

>  <SCORE.INTRA.REPUL.0>
0

>  <SCORE.INTRA.SOLV>
0.341837

>  <SCORE.INTRA.SOLV.lig_0>
-64.3214

>  <SCORE.INTRA.VDW>
0.0487888

>  <SCORE.INTRA.VDW.0>
-1.67301

>  <SCORE.INTRA.norm>
-0.0490945

>  <SCORE.RESTR>
0

>  <SCORE.RESTR.CAVITY>
0

>  <SCORE.RESTR.norm>
0

>  <SCORE.SYSTEM>
0

>  <SCORE.SYSTEM.CONST>
0

>  <SCORE.SYSTEM.DIHEDRAL>
0

>  <SCORE.SYSTEM.SOLV>
0

>  <SCORE.SYSTEM.norm>
0

>  <SCORE.heavy>
34

>  <SCORE.norm>
-0.128675

>  <RMSD>
1.250

$$$$
ligand
 OpenBabel11021811483D
libRbt.so/2013.1/901 2013/11/27
 34 36  0  0  0  0  0  0  0  0999 V2000
    4.7192   41.3128   75.7670 N   0  0  0  0  0  0  0  0  0  0  0  0
    4.1479   40.7358   77.0062 C   0  0  1  0  0  0  0  0  0  0  0  0
    5.8770   40.9158   75.2232 C   0  0  0  0  0  0  0  0  0  0  0  0
    6.5971   40.0295   75.6913 O   0  0  0  0  0  0  0  0  0  0  0  0
   12.7040   43.9251   64.9616 N   0  0  0  0  0  0  0  0  0  0  0  0
    4.6118   41.5541   78.2229 C   0  0  0  0  0  0  0  0  0  0  0  0
    4.7438   40.6779   79.4760 C   0  0  0  0  0  0  0  0  0  0  0  0
    5.9733   39.7611   79.3867 C   0  0  0  0  0  0  0  0  0  0  0  0
    6.9751   40.2051   78.7780 O   0  0  0  0  0  0  0  0  0  0  0  0
    5.8853   38.6368   79.9316 O   0  0  0  0  0  0  0  0  0  0  0  0
   11.2954   42.5887   66.2217 N   0  0  0  0  0  0  0  0  0  0  0  0
    2.0377   39.7401   77.5570 O   0  0  0  0  0  0  0  0  0  0  0  0
   12.1193   43.6465   66.1239 C   0  0  0  0  0  0  0  0  0  0  0  0
    2.0311   41.6088   76.3335 O   0  0  0  0  0  0  0  0  0  0  0  0
   12.3709   44.4623   67.2342 N   0  0  0  0  0  0  0  0  0  0  0  0
   11.7513   44.1647   68.4405 C   0  0  0  0  0  0  0  0  0  0  0  0
   10.8812   43.0841   68.4993 C   0  0  0  0  0  0  0  0  0  0  0  0
   11.9483   44.8715   69.4259 O   0  0  0  0  0  0  0  0  0  0  0  0
   10.9609   42.8899   70.8356 C   0  0  0  0  0  0  0  0  0  0  0  0
   10.2919   42.7075   69.7011 N   0  0  0  0  0  0  0  0  0  0  0  0
   10.3906   43.3275   71.8324 O   0  0  0  0  0  0  0  0  0  0  0  0
    9.0419   41.9398   69.6858 C   0  0  2  0  0  0  0  0  0  0  0  0
    9.2019   40.7593   68.7245 C   0  0  0  0  0  0  0  0  0  0  0  0
   10.6884   42.2866   67.3795 C   0  0  0  0  0  0  0  0  0  0  0  0
    9.8455   41.1722   67.4529 N   0  0  0  0  0  0  0  0  0  0  0  0
    7.8727   42.8268   69.2444 C   0  0  0  0  0  0  0  0  0  0  0  0
    7.3268   43.5393   70.4062 N   0  0  0  0  0  0  0  0  0  0  0  0
    6.2433   41.6240   73.9063 C   0  0  0  0  0  0  0  0  0  0  0  0
    6.2843   43.0145   73.8382 C   0  0  0  0  0  0  0  0  0  0  0  0
    6.6699   43.6532   72.6613 C   0  0  0  0  0  0  0  0  0  0  0  0
    6.9751   42.9092   71.5265 C   0  0  0  0  0  0  0  0  0  0  0  0
    6.9261   41.5207   71.5901 C   0  0  0  0  0  0  0  0  0  0  0  0
    6.5748   40.8801   72.7775 C   0  0  0  0  0  0  0  0  0  0  0  0
    2.6065   40.6889   76.9647 C   0  0  0  0  0  0  0  0  0  0  0  0
  1  3  1  0  0  0  0
  2  1  1  6  0  0  0
  2  6  1  0  0  0  0
  2 34  1  0  0  0  0
  3  4  2  0  0  0  0
  3 28  1  0  0  0  0
  5 13  1  0  0  0  0
  6  7  1  0  0  0  0
  7  8  1  0  0  0  0
  8  9  1  0  0  0  0
  8 10  1  0  0  0  0
 11 13  2  0  0  0  0
 11 24  1  0  0  0  0
 12 34  1  0  0  0  0
 13 15  1  0  0  0  0
 14 34  1  0  0  0  0
 15 16  1  0  0  0  0
 16 17  1  0  0  0  0
 16 18  2  0  0  0  0
 17 20  1  0  0  0  0
 17 24  2  0  0  0  0
 19 21  1  0  0  0  0
 19 20  1  0  0  0  0
 20 22  1  0  0  0  0
 22 23  1  0  0  0  0
 22 26  1  6  0  0  0
 23 25  1  0  0  0  0
 24 25  1  0  0  0  0
 26 27  1  0  0  0  0
 27 31  1  0  0  0  0
 28 29  2  0  0  0  0
 28 33  1  0  0  0  0
 29 30  1  0  0  0  0
 30 31  2  0  0  0  0
 31 32  1  0  0  0  0
 32 33  2  0  0  0  0
M  END
>  <CHROM.1>
92.17873114,-148.69877010,147.18288473,72.85919596,33.03999750,137.41153823
-85.88514351,-51.63156459,169.69265314,53.80837233,7.75625123,41.95915375
72.54325120,2.13825784,0.08560491,1.78815669

>  <Name>
ligand

>  <RI>
0

>  <Rbt.Current_Directory>
/home/itssahil/PROJECTS/Mol_Feturizer/New_Systems/rnas/3SUH

>  <Rbt.Executable>
rbdock ($Id: //depot/dev/client3/rdock/2013.1/src/exe/rbdock.cxx#4 $)

>  <Rbt.Library>
libRbt.so (2013.1, Build901 2013/11/27)

>  <Rbt.Parameter_File>
/export/apps/rDock/src/rDock_2013.1_src/data/scripts/dock_solv.prm

>  <Rbt.Receptor>
prm/pocket_docking_2.prm

>  <SCORE>
-7.58508

>  <SCORE.INTER>
-7.07337

>  <SCORE.INTER.CONST>
1

>  <SCORE.INTER.POLAR>
0

>  <SCORE.INTER.ROT>
10

>  <SCORE.INTER.SOLV>
27.0023

>  <SCORE.INTER.VDW>
-23.983

>  <SCORE.INTER.norm>
-0.20804

>  <SCORE.INTRA>
-0.553977

>  <SCORE.INTRA.DIHEDRAL>
0.466818

>  <SCORE.INTRA.DIHEDRAL.0>
12.2703

>  <SCORE.INTRA.POLAR>
0

>  <SCORE.INTRA.POLAR.0>
0

>  <SCORE.INTRA.REPUL>
0

>  <SCORE.INTRA.REPUL.0>
0

>  <SCORE.INTRA.SOLV>
-0.30826

>  <SCORE.INTRA.SOLV.lig_0>
-64.3214

>  <SCORE.INTRA.VDW>
-0.633256

>  <SCORE.INTRA.VDW.0>
-1.67301

>  <SCORE.INTRA.norm>
-0.0162934

>  <SCORE.RESTR>
0.0422667

>  <SCORE.RESTR.CAVITY>
0.0422667

>  <SCORE.RESTR.norm>
0.00124314

>  <SCORE.SYSTEM>
0

>  <SCORE.SYSTEM.CONST>
0

>  <SCORE.SYSTEM.DIHEDRAL>
0

>  <SCORE.SYSTEM.SOLV>
0

>  <SCORE.SYSTEM.norm>
0

>  <SCORE.heavy>
34

>  <SCORE.norm>
-0.223091

>  <RMSD>
1.256

$$$$
ligand
 OpenBabel11021811483D
libRbt.so/2013.1/901 2013/11/27
 34 36  0  0  0  0  0  0  0  0999 V2000
    5.2084   41.3307   75.2942 N   0  0  0  0  0  0  0  0  0  0  0  0
    4.5396   40.7546   76.4840 C   0  0  1  0  0  0  0  0  0  0  0  0
    5.0317   42.5905   74.8751 C   0  0  0  0  0  0  0  0  0  0  0  0
    4.2938   43.4102   75.4289 O   0  0  0  0  0  0  0  0  0  0  0  0
   12.9872   43.8583   64.6238 N   0  0  0  0  0  0  0  0  0  0  0  0
    5.1830   39.4036   76.8391 C   0  0  0  0  0  0  0  0  0  0  0  0
    6.5845   39.5852   77.4375 C   0  0  0  0  0  0  0  0  0  0  0  0
    6.5137   39.8552   78.9482 C   0  0  0  0  0  0  0  0  0  0  0  0
    5.9946   38.9671   79.6644 O   0  0  0  0  0  0  0  0  0  0  0  0
    6.9828   40.9432   79.3542 O   0  0  0  0  0  0  0  0  0  0  0  0
   11.4847   42.6715   65.9247 N   0  0  0  0  0  0  0  0  0  0  0  0
    5.4819   42.6011   77.6883 O   0  0  0  0  0  0  0  0  0  0  0  0
   12.4535   43.5970   65.8143 C   0  0  0  0  0  0  0  0  0  0  0  0
    3.7781   41.4977   78.6201 O   0  0  0  0  0  0  0  0  0  0  0  0
   12.9098   44.2927   66.9410 N   0  0  0  0  0  0  0  0  0  0  0  0
   12.3421   44.0153   68.1773 C   0  0  0  0  0  0  0  0  0  0  0  0
   11.3213   43.0768   68.2515 C   0  0  0  0  0  0  0  0  0  0  0  0
   12.7184   44.6196   69.1784 O   0  0  0  0  0  0  0  0  0  0  0  0
   11.5417   42.7234   70.5599 C   0  0  0  0  0  0  0  0  0  0  0  0
   10.7708   42.7170   69.4766 N   0  0  0  0  0  0  0  0  0  0  0  0
   12.5987   42.0967   70.5767 O   0  0  0  0  0  0  0  0  0  0  0  0
    9.4190   42.1492   69.5247 C   0  0  2  0  0  0  0  0  0  0  0  0
    9.3225   41.0221   68.4933 C   0  0  0  0  0  0  0  0  0  0  0  0
   10.9250   42.3908   67.1113 C   0  0  0  0  0  0  0  0  0  0  0  0
    9.9269   41.4138   67.1961 N   0  0  0  0  0  0  0  0  0  0  0  0
    8.3725   43.2288   69.2281 C   0  0  0  0  0  0  0  0  0  0  0  0
    8.1957   44.0833   70.4087 N   0  0  0  0  0  0  0  0  0  0  0  0
    5.8719   42.9813   73.6457 C   0  0  0  0  0  0  0  0  0  0  0  0
    5.7359   44.2407   73.0668 C   0  0  0  0  0  0  0  0  0  0  0  0
    6.5366   44.6129   71.9888 C   0  0  0  0  0  0  0  0  0  0  0  0
    7.4502   43.7136   71.4495 C   0  0  0  0  0  0  0  0  0  0  0  0
    7.5810   42.4522   72.0207 C   0  0  0  0  0  0  0  0  0  0  0  0
    6.8055   42.0916   73.1217 C   0  0  0  0  0  0  0  0  0  0  0  0
    4.6073   41.7014   77.7000 C   0  0  0  0  0  0  0  0  0  0  0  0
  1  3  1  0  0  0  0
  2  1  1  6  0  0  0
  2  6  1  0  0  0  0
  2 34  1  0  0  0  0
  3  4  2  0  0  0  0
  3 28  1  0  0  0  0
  5 13  1  0  0  0  0
  6  7  1  0  0  0  0
  7  8  1  0  0  0  0
  8  9  1  0  0  0  0
  8 10  1  0  0  0  0
 11 13  2  0  0  0  0
 11 24  1  0  0  0  0
 12 34  1  0  0  0  0
 13 15  1  0  0  0  0
 14 34  1  0  0  0  0
 15 16  1  0  0  0  0
 16 17  1  0  0  0  0
 16 18  2  0  0  0  0
 17 20  1  0  0  0  0
 17 24  2  0  0  0  0
 19 21  1  0  0  0  0
 19 20  1  0  0  0  0
 20 22  1  0  0  0  0
 22 23  1  0  0  0  0
 22 26  1  6  0  0  0
 23 25  1  0  0  0  0
 24 25  1  0  0  0  0
 26 27  1  0  0  0  0
 27 31  1  0  0  0  0
 28 29  2  0  0  0  0
 28 33  1  0  0  0  0
 29 30  1  0  0  0  0
 30 31  2  0  0  0  0
 31 32  1  0  0  0  0
 32 33  2  0  0  0  0
M  END
>  <CHROM.1>
-168.34420749,72.04964894,-19.50522137,84.71199234,60.80433885,-53.87422630
-76.50024265,-79.55561021,-133.30140301,176.83959001,8.27694617,42.33830273
72.32485081,2.17299494,-0.40951397,2.04847665

>  <Name>
ligand

>  <RI>
0

>  <Rbt.Current_Directory>
/home/itssahil/PROJECTS/Mol_Feturizer/New_Systems/rnas/3SUH

>  <Rbt.Executable>
rbdock ($Id: //depot/dev/client3/rdock/2013.1/src/exe/rbdock.cxx#4 $)

>  <Rbt.Library>
libRbt.so (2013.1, Build901 2013/11/27)

>  <Rbt.Parameter_File>
/export/apps/rDock/src/rDock_2013.1_src/data/scripts/dock_solv.prm

>  <Rbt.Receptor>
prm/pocket_docking_2.prm

>  <SCORE>
-7.58823

>  <SCORE.INTER>
-5.60494

>  <SCORE.INTER.CONST>
1

>  <SCORE.INTER.POLAR>
0

>  <SCORE.INTER.ROT>
10

>  <SCORE.INTER.SOLV>
27.4387

>  <SCORE.INTER.VDW>
-23.1495

>  <SCORE.INTER.norm>
-0.164851

>  <SCORE.INTRA>
-2.10925

>  <SCORE.INTRA.DIHEDRAL>
-1.78851

>  <SCORE.INTRA.DIHEDRAL.0>
12.2703

>  <SCORE.INTRA.POLAR>
0

>  <SCORE.INTRA.POLAR.0>
0

>  <SCORE.INTRA.REPUL>
0

>  <SCORE.INTRA.REPUL.0>
0

>  <SCORE.INTRA.SOLV>
-0.477497

>  <SCORE.INTRA.SOLV.lig_0>
-64.3214

>  <SCORE.INTRA.VDW>
-0.97624

>  <SCORE.INTRA.VDW.0>
-1.67301

>  <SCORE.INTRA.norm>
-0.0620366

>  <SCORE.RESTR>
0.125955

>  <SCORE.RESTR.CAVITY>
0.125955

>  <SCORE.RESTR.norm>
0.00370455

>  <SCORE.SYSTEM>
0

>  <SCORE.SYSTEM.CONST>
0

>  <SCORE.SYSTEM.DIHEDRAL>
0

>  <SCORE.SYSTEM.SOLV>
0

>  <SCORE.SYSTEM.norm>
0

>  <SCORE.heavy>
34

>  <SCORE.norm>
-0.223183

>  <RMSD>
1.303

$$$$
ligand
 OpenBabel11021811483D
libRbt.so/2013.1/901 2013/11/27
 34 36  0  0  0  0  0  0  0  0999 V2000
    5.0254   41.7145   75.7007 N   0  0  0  0  0  0  0  0  0  0  0  0
    4.2916   41.1046   76.8340 C   0  0  1  0  0  0  0  0  0  0  0  0
    4.6537   42.8498   75.0948 C   0  0  0  0  0  0  0  0  0  0  0  0
    3.6612   43.5127   75.4092 O   0  0  0  0  0  0  0  0  0  0  0  0
   12.7014   44.2073   65.0414 N   0  0  0  0  0  0  0  0  0  0  0  0
    4.8264   39.6869   77.0973 C   0  0  0  0  0  0  0  0  0  0  0  0
    6.3403   39.6920   77.3492 C   0  0  0  0  0  0  0  0  0  0  0  0
    6.6693   40.2288   78.7505 C   0  0  0  0  0  0  0  0  0  0  0  0
    7.2720   41.3258   78.8160 O   0  0  0  0  0  0  0  0  0  0  0  0
    6.3083   39.5311   79.7261 O   0  0  0  0  0  0  0  0  0  0  0  0
   10.8351   43.2999   66.0669 N   0  0  0  0  0  0  0  0  0  0  0  0
    3.7571   41.5716   79.1240 O   0  0  0  0  0  0  0  0  0  0  0  0
   12.0608   43.8458   66.1501 C   0  0  0  0  0  0  0  0  0  0  0  0
    5.1360   42.9699   78.0600 O   0  0  0  0  0  0  0  0  0  0  0  0
   12.6743   44.0399   67.3942 N   0  0  0  0  0  0  0  0  0  0  0  0
   11.9942   43.6634   68.5446 C   0  0  0  0  0  0  0  0  0  0  0  0
   10.7168   43.1321   68.4253 C   0  0  0  0  0  0  0  0  0  0  0  0
   12.5073   43.8330   69.6478 O   0  0  0  0  0  0  0  0  0  0  0  0
   10.7078   42.1523   70.5566 C   0  0  0  0  0  0  0  0  0  0  0  0
   10.0260   42.6780   69.5434 N   0  0  0  0  0  0  0  0  0  0  0  0
   11.1716   41.0172   70.4738 O   0  0  0  0  0  0  0  0  0  0  0  0
    8.5615   42.6002   69.5079 C   0  0  2  0  0  0  0  0  0  0  0  0
    8.1390   41.8703   68.2303 C   0  0  0  0  0  0  0  0  0  0  0  0
   10.1636   42.9303   67.1681 C   0  0  0  0  0  0  0  0  0  0  0  0
    8.8943   42.3538   67.0483 N   0  0  0  0  0  0  0  0  0  0  0  0
    7.9484   44.0043   69.5424 C   0  0  0  0  0  0  0  0  0  0  0  0
    8.0639   44.5609   70.8960 N   0  0  0  0  0  0  0  0  0  0  0  0
    5.6001   43.3187   73.9750 C   0  0  0  0  0  0  0  0  0  0  0  0
    6.2737   42.3917   73.1832 C   0  0  0  0  0  0  0  0  0  0  0  0
    7.0866   42.8169   72.1343 C   0  0  0  0  0  0  0  0  0  0  0  0
    7.2702   44.1745   71.8943 C   0  0  0  0  0  0  0  0  0  0  0  0
    6.6054   45.1017   72.6896 C   0  0  0  0  0  0  0  0  0  0  0  0
    5.7639   44.6767   73.7167 C   0  0  0  0  0  0  0  0  0  0  0  0
    4.4035   41.9522   78.1181 C   0  0  0  0  0  0  0  0  0  0  0  0
  1  3  1  0  0  0  0
  2  1  1  6  0  0  0
  2  6  1  0  0  0  0
  2 34  1  0  0  0  0
  3  4  2  0  0  0  0
  3 28  1  0  0  0  0
  5 13  1  0  0  0  0
  6  7  1  0  0  0  0
  7  8  1  0  0  0  0
  8  9  1  0  0  0  0
  8 10  1  0  0  0  0
 11 13  2  0  0  0  0
 11 24  1  0  0  0  0
 12 34  1  0  0  0  0
 13 15  1  0  0  0  0
 14 34  1  0  0  0  0
 15 16  1  0  0  0  0
 16 17  1  0  0  0  0
 16 18  2  0  0  0  0
 17 20  1  0  0  0  0
 17 24  2  0  0  0  0
 19 21  1  0  0  0  0
 19 20  1  0  0  0  0
 20 22  1  0  0  0  0
 22 23  1  0  0  0  0
 22 26  1  6  0  0  0
 23 25  1  0  0  0  0
 24 25  1  0  0  0  0
 26 27  1  0  0  0  0
 27 31  1  0  0  0  0
 28 29  2  0  0  0  0
 28 33  1  0  0  0  0
 29 30  1  0  0  0  0
 30 31  2  0  0  0  0
 31 32  1  0  0  0  0
 32 33  2  0  0  0  0
M  END
>  <CHROM.1>
168.92062674,56.03086617,176.02785411,74.96784695,-112.73228458,-75.60812018
-74.28977609,-76.17096486,48.97814702,33.50650114,7.88259788,42.56476639
72.51739793,2.15130190,-0.44799610,2.03829328

>  <Name>
ligand

>  <RI>
0

>  <Rbt.Current_Directory>
/home/itssahil/PROJECTS/Mol_Feturizer/New_Systems/rnas/3SUH

>  <Rbt.Executable>
rbdock ($Id: //depot/dev/client3/rdock/2013.1/src/exe/rbdock.cxx#4 $)

>  <Rbt.Library>
libRbt.so (2013.1, Build901 2013/11/27)

>  <Rbt.Parameter_File>
/export/apps/rDock/src/rDock_2013.1_src/data/scripts/dock_solv.prm

>  <Rbt.Receptor>
prm/pocket_docking_3.prm

>  <SCORE>
-11.5191

>  <SCORE.INTER>
-7.32421

>  <SCORE.INTER.CONST>
1

>  <SCORE.INTER.POLAR>
0

>  <SCORE.INTER.ROT>
10

>  <SCORE.INTER.SOLV>
26.0186

>  <SCORE.INTER.VDW>
-23.8223

>  <SCORE.INTER.norm>
-0.215418

>  <SCORE.INTRA>
-4.19493

>  <SCORE.INTRA.DIHEDRAL>
-4.21536

>  <SCORE.INTRA.DIHEDRAL.0>
12.2703

>  <SCORE.INTRA.POLAR>
0

>  <SCORE.INTRA.POLAR.0>
0

>  <SCORE.INTRA.REPUL>
0

>  <SCORE.INTRA.REPUL.0>
0

>  <SCORE.INTRA.SOLV>
-0.555054

>  <SCORE.INTRA.SOLV.lig_0>
-64.3214

>  <SCORE.INTRA.VDW>
-1.80972

>  <SCORE.INTRA.VDW.0>
-1.67301

>  <SCORE.INTRA.norm>
-0.12338

>  <SCORE.RESTR>
0

>  <SCORE.RESTR.CAVITY>
0

>  <SCORE.RESTR.norm>
0

>  <SCORE.SYSTEM>
0

>  <SCORE.SYSTEM.CONST>
0

>  <SCORE.SYSTEM.DIHEDRAL>
0

>  <SCORE.SYSTEM.SOLV>
0

>  <SCORE.SYSTEM.norm>
0

>  <SCORE.heavy>
34

>  <SCORE.norm>
-0.338798

>  <RMSD>
1.411

$$$$
ligand
 OpenBabel11021811483D
libRbt.so/2013.1/901 2013/11/27
 34 36  0  0  0  0  0  0  0  0999 V2000
    4.5892   42.2485   75.4522 N   0  0  0  0  0  0  0  0  0  0  0  0
    4.0100   41.7344   76.7151 C   0  0  1  0  0  0  0  0  0  0  0  0
    5.7769   41.8660   74.9652 C   0  0  0  0  0  0  0  0  0  0  0  0
    6.5209   41.0468   75.5116 O   0  0  0  0  0  0  0  0  0  0  0  0
   12.7709   44.0837   64.5454 N   0  0  0  0  0  0  0  0  0  0  0  0
    4.8825   42.1722   77.9036 C   0  0  0  0  0  0  0  0  0  0  0  0
    4.4776   41.4522   79.1971 C   0  0  0  0  0  0  0  0  0  0  0  0
    5.3844   41.8603   80.3681 C   0  0  0  0  0  0  0  0  0  0  0  0
    6.4016   41.1579   80.5758 O   0  0  0  0  0  0  0  0  0  0  0  0
    5.0418   42.8677   81.0286 O   0  0  0  0  0  0  0  0  0  0  0  0
   11.0541   43.2363   65.8467 N   0  0  0  0  0  0  0  0  0  0  0  0
    2.2959   43.4084   76.6287 O   0  0  0  0  0  0  0  0  0  0  0  0
   12.2467   43.8487   65.7456 C   0  0  0  0  0  0  0  0  0  0  0  0
    1.7468   41.3792   77.3836 O   0  0  0  0  0  0  0  0  0  0  0  0
   12.9470   44.2442   66.8923 N   0  0  0  0  0  0  0  0  0  0  0  0
   12.3880   43.9983   68.1391 C   0  0  0  0  0  0  0  0  0  0  0  0
   11.1401   43.3928   68.2073 C   0  0  0  0  0  0  0  0  0  0  0  0
   12.9784   44.3450   69.1590 O   0  0  0  0  0  0  0  0  0  0  0  0
   11.3662   42.7199   70.4430 C   0  0  0  0  0  0  0  0  0  0  0  0
   10.5726   43.0650   69.4336 N   0  0  0  0  0  0  0  0  0  0  0  0
   11.2224   43.2301   71.5518 O   0  0  0  0  0  0  0  0  0  0  0  0
    9.1176   42.9105   69.5403 C   0  0  2  0  0  0  0  0  0  0  0  0
    8.6374   41.9899   68.4155 C   0  0  0  0  0  0  0  0  0  0  0  0
   10.4992   42.9908   67.0433 C   0  0  0  0  0  0  0  0  0  0  0  0
    9.2622   42.3410   67.1163 N   0  0  0  0  0  0  0  0  0  0  0  0
    8.4244   44.2736   69.4406 C   0  0  0  0  0  0  0  0  0  0  0  0
    7.0468   44.1649   69.9362 N   0  0  0  0  0  0  0  0  0  0  0  0
    6.1479   42.4965   73.6107 C   0  0  0  0  0  0  0  0  0  0  0  0
    6.5530   41.6966   72.5449 C   0  0  0  0  0  0  0  0  0  0  0  0
    6.8348   42.2634   71.3035 C   0  0  0  0  0  0  0  0  0  0  0  0
    6.7582   43.6408   71.1270 C   0  0  0  0  0  0  0  0  0  0  0  0
    6.3625   44.4420   72.1928 C   0  0  0  0  0  0  0  0  0  0  0  0
    6.0459   43.8723   73.4252 C   0  0  0  0  0  0  0  0  0  0  0  0
    2.5602   42.2180   76.9250 C   0  0  0  0  0  0  0  0  0  0  0  0
  1  3  1  0  0  0  0
  2  1  1  6  0  0  0
  2  6  1  0  0  0  0
  2 34  1  0  0  0  0
  3  4  2  0  0  0  0
  3 28  1  0  0  0  0
  5 13  1  0  0  0  0
  6  7  1  0  0  0  0
  7  8  1  0  0  0  0
  8  9  1  0  0  0  0
  8 10  1  0  0  0  0
 11 13  2  0  0  0  0
 11 24  1  0  0  0  0
 12 34  1  0  0  0  0
 13 15  1  0  0  0  0
 14 34  1  0  0  0  0
 15 16  1  0  0  0  0
 16 17  1  0  0  0  0
 16 18  2  0  0  0  0
 17 20  1  0  0  0  0
 17 24  2  0  0  0  0
 19 21  1  0  0  0  0
 19 20  1  0  0  0  0
 20 22  1  0  0  0  0
 22 23  1  0  0  0  0
 22 26  1  6  0  0  0
 23 25  1  0  0  0  0
 24 25  1  0  0  0  0
 26 27  1  0  0  0  0
 27 31  1  0  0  0  0
 28 29  2  0  0  0  0
 28 33  1  0  0  0  0
 29 30  1  0  0  0  0
 30 31  2  0  0  0  0
 31 32  1  0  0  0  0
 32 33  2  0  0  0  0
M  END
>  <CHROM.1>
65.07380684,-169.35025579,-40.83897163,178.09177651,-91.60010394,131.47662074
-163.37315527,52.04142746,-74.43839295,-128.59827989,7.74631376,42.82738186
72.42963532,2.14437461,0.04491461,1.68363018

>  <Name>
ligand

>  <RI>
0

>  <Rbt.Current_Directory>
/home/itssahil/PROJECTS/Mol_Feturizer/New_Systems/rnas/3SUH

>  <Rbt.Executable>
rbdock ($Id: //depot/dev/client3/rdock/2013.1/src/exe/rbdock.cxx#4 $)

>  <Rbt.Library>
libRbt.so (2013.1, Build901 2013/11/27)

>  <Rbt.Parameter_File>
/export/apps/rDock/src/rDock_2013.1_src/data/scripts/dock_solv.prm

>  <Rbt.Receptor>
prm/pocket_docking_3.prm

>  <SCORE>
-13.5588

>  <SCORE.INTER>
-9.8633

>  <SCORE.INTER.CONST>
1

>  <SCORE.INTER.POLAR>
0

>  <SCORE.INTER.ROT>
10

>  <SCORE.INTER.SOLV>
28.88

>  <SCORE.INTER.VDW>
-26.4689

>  <SCORE.INTER.norm>
-0.290097

>  <SCORE.INTRA>
-3.69666

>  <SCORE.INTRA.DIHEDRAL>
-4.47203

>  <SCORE.INTRA.DIHEDRAL.0>
12.2703

>  <SCORE.INTRA.POLAR>
0

>  <SCORE.INTRA.POLAR.0>
0

>  <SCORE.INTRA.REPUL>
0

>  <SCORE.INTRA.REPUL.0>
0

>  <SCORE.INTRA.SOLV>
-1.10794

>  <SCORE.INTRA.SOLV.lig_0>
-64.3214

>  <SCORE.INTRA.VDW>
-0.906676

>  <SCORE.INTRA.VDW.0>
-1.67301

>  <SCORE.INTRA.norm>
-0.108725

>  <SCORE.RESTR>
0.00112716

>  <SCORE.RESTR.CAVITY>
0.00112716

>  <SCORE.RESTR.norm>
3.31517e-05

>  <SCORE.SYSTEM>
0

>  <SCORE.SYSTEM.CONST>
0

>  <SCORE.SYSTEM.DIHEDRAL>
0

>  <SCORE.SYSTEM.SOLV>
0

>  <SCORE.SYSTEM.norm>
0

>  <SCORE.heavy>
34

>  <SCORE.norm>
-0.398789

>  <RMSD>
1.443

$$$$
ligand
 OpenBabel11021811483D
libRbt.so/2013.1/901 2013/11/27
 34 36  0  0  0  0  0  0  0  0999 V2000
    5.1210   42.1006   76.1128 N   0  0  0  0  0  0  0  0  0  0  0  0
    4.3528   41.7098   77.3179 C   0  0  1  0  0  0  0  0  0  0  0  0
    5.5651   41.2310   75.1960 C   0  0  0  0  0  0  0  0  0  0  0  0
    5.3873   40.0109   75.2515 O   0  0  0  0  0  0  0  0  0  0  0  0
   12.7699   44.0125   64.7707 N   0  0  0  0  0  0  0  0  0  0  0  0
    4.2070   42.9193   78.2565 C   0  0  0  0  0  0  0  0  0  0  0  0
    3.5377   42.5289   79.5813 C   0  0  0  0  0  0  0  0  0  0  0  0
    4.3772   41.4933   80.3446 C   0  0  0  0  0  0  0  0  0  0  0  0
    4.1509   40.2841   80.1045 O   0  0  0  0  0  0  0  0  0  0  0  0
    5.2292   41.9339   81.1501 O   0  0  0  0  0  0  0  0  0  0  0  0
   11.4045   42.6483   66.0486 N   0  0  0  0  0  0  0  0  0  0  0  0
    2.6530   40.0213   77.4023 O   0  0  0  0  0  0  0  0  0  0  0  0
   12.3027   43.6447   65.9610 C   0  0  0  0  0  0  0  0  0  0  0  0
    2.2289   41.8832   76.2436 O   0  0  0  0  0  0  0  0  0  0  0  0
   12.7546   44.3034   67.1115 N   0  0  0  0  0  0  0  0  0  0  0  0
   12.2565   43.9144   68.3477 C   0  0  0  0  0  0  0  0  0  0  0  0
   11.3059   42.9034   68.4001 C   0  0  0  0  0  0  0  0  0  0  0  0
   12.6299   44.4838   69.3701 O   0  0  0  0  0  0  0  0  0  0  0  0
   11.6410   42.4313   70.6732 C   0  0  0  0  0  0  0  0  0  0  0  0
   10.8301   42.4343   69.6195 N   0  0  0  0  0  0  0  0  0  0  0  0
   12.4871   41.5500   70.8064 O   0  0  0  0  0  0  0  0  0  0  0  0
    9.5232   41.7707   69.6804 C   0  0  2  0  0  0  0  0  0  0  0  0
    9.4632   40.7023   68.5857 C   0  0  0  0  0  0  0  0  0  0  0  0
   10.9126   42.2595   67.2347 C   0  0  0  0  0  0  0  0  0  0  0  0
    9.9877   41.2112   67.2945 N   0  0  0  0  0  0  0  0  0  0  0  0
    8.3945   42.7894   69.4878 C   0  0  0  0  0  0  0  0  0  0  0  0
    8.1923   43.5438   70.7309 N   0  0  0  0  0  0  0  0  0  0  0  0
    6.2946   41.8740   74.0026 C   0  0  0  0  0  0  0  0  0  0  0  0
    7.3170   41.1921   73.3472 C   0  0  0  0  0  0  0  0  0  0  0  0
    7.9385   41.7521   72.2328 C   0  0  0  0  0  0  0  0  0  0  0  0
    7.5752   43.0192   71.7891 C   0  0  0  0  0  0  0  0  0  0  0  0
    6.5606   43.7054   72.4479 C   0  0  0  0  0  0  0  0  0  0  0  0
    5.9138   43.1309   73.5413 C   0  0  0  0  0  0  0  0  0  0  0  0
    2.9586   41.1550   76.9598 C   0  0  0  0  0  0  0  0  0  0  0  0
  1  3  1  0  0  0  0
  2  1  1  6  0  0  0
  2  6  1  0  0  0  0
  2 34  1  0  0  0  0
  3  4  2  0  0  0  0
  3 28  1  0  0  0  0
  5 13  1  0  0  0  0
  6  7  1  0  0  0  0
  7  8  1  0  0  0  0
  8  9  1  0  0  0  0
  8 10  1  0  0  0  0
 11 13  2  0  0  0  0
 11 24  1  0  0  0  0
 12 34  1  0  0  0  0
 13 15  1  0  0  0  0
 14 34  1  0  0  0  0
 15 16  1  0  0  0  0
 16 17  1  0  0  0  0
 16 18  2  0  0  0  0
 17 20  1  0  0  0  0
 17 24  2  0  0  0  0
 19 21  1  0  0  0  0
 19 20  1  0  0  0  0
 20 22  1  0  0  0  0
 22 23  1  0  0  0  0
 22 26  1  6  0  0  0
 23 25  1  0  0  0  0
 24 25  1  0  0  0  0
 26 27  1  0  0  0  0
 27 31  1  0  0  0  0
 28 29  2  0  0  0  0
 28 33  1  0  0  0  0
 29 30  1  0  0  0  0
 30 31  2  0  0  0  0
 31 32  1  0  0  0  0
 32 33  2  0  0  0  0
M  END
>  <CHROM.1>
170.82190729,-174.40828142,125.56251824,61.61513973,-89.55196499,-78.83052114
-77.39351272,-75.44225465,47.64852527,149.08085554,7.85336019,42.22082995
72.61820605,2.22113121,0.30666862,1.48910491

>  <Name>
ligand

>  <RI>
0

>  <Rbt.Current_Directory>
/home/itssahil/PROJECTS/Mol_Feturizer/New_Systems/rnas/3SUH

>  <Rbt.Executable>
rbdock ($Id: //depot/dev/client3/rdock/2013.1/src/exe/rbdock.cxx#4 $)

>  <Rbt.Library>
libRbt.so (2013.1, Build901 2013/11/27)

>  <Rbt.Parameter_File>
/export/apps/rDock/src/rDock_2013.1_src/data/scripts/dock_solv.prm

>  <Rbt.Receptor>
prm/pocket_docking_3.prm

>  <SCORE>
-9.96216

>  <SCORE.INTER>
-5.35788

>  <SCORE.INTER.CONST>
1

>  <SCORE.INTER.POLAR>
0

>  <SCORE.INTER.ROT>
10

>  <SCORE.INTER.SOLV>
26.2257

>  <SCORE.INTER.VDW>
-22.5805

>  <SCORE.INTER.norm>
-0.157585

>  <SCORE.INTRA>
-4.60429

>  <SCORE.INTRA.DIHEDRAL>
-4.80484

>  <SCORE.INTRA.DIHEDRAL.0>
12.2703

>  <SCORE.INTRA.POLAR>
0

>  <SCORE.INTRA.POLAR.0>
0

>  <SCORE.INTRA.REPUL>
0

>  <SCORE.INTRA.REPUL.0>
0

>  <SCORE.INTRA.SOLV>
-0.935187

>  <SCORE.INTRA.SOLV.lig_0>
-64.3214

>  <SCORE.INTRA.VDW>
-1.73427

>  <SCORE.INTRA.VDW.0>
-1.67301

>  <SCORE.INTRA.norm>
-0.13542

>  <SCORE.RESTR>
0

>  <SCORE.RESTR.CAVITY>
0

>  <SCORE.RESTR.norm>
0

>  <SCORE.SYSTEM>
0

>  <SCORE.SYSTEM.CONST>
0

>  <SCORE.SYSTEM.DIHEDRAL>
0

>  <SCORE.SYSTEM.SOLV>
0

>  <SCORE.SYSTEM.norm>
0

>  <SCORE.heavy>
34

>  <SCORE.norm>
-0.293005

>  <RMSD>
1.527

$$$$
ligand
 OpenBabel11021811483D
libRbt.so/2013.1/901 2013/11/27
 34 36  0  0  0  0  0  0  0  0999 V2000
    4.6596   42.4929   75.6455 N   0  0  0  0  0  0  0  0  0  0  0  0
    3.9099   42.0073   76.8274 C   0  0  1  0  0  0  0  0  0  0  0  0
    4.4226   43.6641   75.0403 C   0  0  0  0  0  0  0  0  0  0  0  0
    3.5556   44.4672   75.3959 O   0  0  0  0  0  0  0  0  0  0  0  0
   12.7522   44.0808   65.0802 N   0  0  0  0  0  0  0  0  0  0  0  0
    4.0120   43.0354   77.9666 C   0  0  0  0  0  0  0  0  0  0  0  0
    5.4660   43.2431   78.4115 C   0  0  0  0  0  0  0  0  0  0  0  0
    6.0641   41.9474   78.9804 C   0  0  0  0  0  0  0  0  0  0  0  0
    6.8054   41.2785   78.2228 O   0  0  0  0  0  0  0  0  0  0  0  0
    5.7688   41.6555   80.1621 O   0  0  0  0  0  0  0  0  0  0  0  0
   10.8549   43.2545   66.1173 N   0  0  0  0  0  0  0  0  0  0  0  0
    1.8901   42.4398   75.6103 O   0  0  0  0  0  0  0  0  0  0  0  0
   12.0808   43.8009   66.1943 C   0  0  0  0  0  0  0  0  0  0  0  0
    1.8620   40.8264   77.1546 O   0  0  0  0  0  0  0  0  0  0  0  0
   12.6623   44.0806   67.4374 N   0  0  0  0  0  0  0  0  0  0  0  0
   11.9503   43.7889   68.5930 C   0  0  0  0  0  0  0  0  0  0  0  0
   10.6737   43.2547   68.4777 C   0  0  0  0  0  0  0  0  0  0  0  0
   12.4350   44.0345   69.6947 O   0  0  0  0  0  0  0  0  0  0  0  0
   10.6036   42.4284   70.6719 C   0  0  0  0  0  0  0  0  0  0  0  0
    9.9514   42.8832   69.6063 N   0  0  0  0  0  0  0  0  0  0  0  0
   11.0865   41.2982   70.6720 O   0  0  0  0  0  0  0  0  0  0  0  0
    8.4879   42.8079   69.5374 C   0  0  2  0  0  0  0  0  0  0  0  0
    8.0954   41.9908   68.3039 C   0  0  0  0  0  0  0  0  0  0  0  0
   10.1528   42.9661   67.2236 C   0  0  0  0  0  0  0  0  0  0  0  0
    8.8841   42.3868   67.1111 N   0  0  0  0  0  0  0  0  0  0  0  0
    7.8815   44.2130   69.4562 C   0  0  0  0  0  0  0  0  0  0  0  0
    7.9610   44.8624   70.7704 N   0  0  0  0  0  0  0  0  0  0  0  0
    5.3629   43.9794   73.8629 C   0  0  0  0  0  0  0  0  0  0  0  0
    5.4659   45.2769   73.3674 C   0  0  0  0  0  0  0  0  0  0  0  0
    6.3584   45.5714   72.3386 C   0  0  0  0  0  0  0  0  0  0  0  0
    7.1246   44.5630   71.7637 C   0  0  0  0  0  0  0  0  0  0  0  0
    7.0164   43.2650   72.2513 C   0  0  0  0  0  0  0  0  0  0  0  0
    6.1498   42.9761   73.3045 C   0  0  0  0  0  0  0  0  0  0  0  0
    2.4270   41.7360   76.4996 C   0  0  0  0  0  0  0  0  0  0  0  0
  1  3  1  0  0  0  0
  2  1  1  6  0  0  0
  2  6  1  0  0  0  0
  2 34  1  0  0  0  0
  3  4  2  0  0  0  0
  3 28  1  0  0  0  0
  5 13  1  0  0  0  0
  6  7  1  0  0  0  0
  7  8  1  0  0  0  0
  8  9  1  0  0  0  0
  8 10  1  0  0  0  0
 11 13  2  0  0  0  0
 11 24  1  0  0  0  0
 12 34  1  0  0  0  0
 13 15  1  0  0  0  0
 14 34  1  0  0  0  0
 15 16  1  0  0  0  0
 16 17  1  0  0  0  0
 16 18  2  0  0  0  0
 17 20  1  0  0  0  0
 17 24  2  0  0  0  0
 19 21  1  0  0  0  0
 19 20  1  0  0  0  0
 20 22  1  0  0  0  0
 22 23  1  0  0  0  0
 22 26  1  6  0  0  0
 23 25  1  0  0  0  0
 24 25  1  0  0  0  0
 26 27  1  0  0  0  0
 27 31  1  0  0  0  0
 28 29  2  0  0  0  0
 28 33  1  0  0  0  0
 29 30  1  0  0  0  0
 30 31  2  0  0  0  0
 31 32  1  0  0  0  0
 32 33  2  0  0  0  0
M  END
>  <CHROM.1>
-56.89650093,-61.53311513,-30.74323763,-62.74391818,100.25179179,-74.15438142
-74.43671736,-77.16684417,-122.77137120,-163.45943794,7.47098740,43.08539765
72.38117824,2.20164140,-0.16338577,1.79110808

>  <Name>
ligand

>  <RI>
0

>  <Rbt.Current_Directory>
/home/itssahil/PROJECTS/Mol_Feturizer/New_Systems/rnas/3SUH

>  <Rbt.Executable>
rbdock ($Id: //depot/dev/client3/rdock/2013.1/src/exe/rbdock.cxx#4 $)

>  <Rbt.Library>
libRbt.so (2013.1, Build901 2013/11/27)

>  <Rbt.Parameter_File>
/export/apps/rDock/src/rDock_2013.1_src/data/scripts/dock_solv.prm

>  <Rbt.Receptor>
prm/pocket_docking_3.prm

>  <SCORE>
-11.379

>  <SCORE.INTER>
-7.51117

>  <SCORE.INTER.CONST>
1

>  <SCORE.INTER.POLAR>
0

>  <SCORE.INTER.ROT>
10

>  <SCORE.INTER.SOLV>
25.7406

>  <SCORE.INTER.VDW>
-23.8543

>  <SCORE.INTER.norm>
-0.220917

>  <SCORE.INTRA>
-3.86786

>  <SCORE.INTRA.DIHEDRAL>
-5.05084

>  <SCORE.INTRA.DIHEDRAL.0>
12.2703

>  <SCORE.INTRA.POLAR>
0

>  <SCORE.INTRA.POLAR.0>
0

>  <SCORE.INTRA.REPUL>
0

>  <SCORE.INTRA.REPUL.0>
0

>  <SCORE.INTRA.SOLV>
0.0131908

>  <SCORE.INTRA.SOLV.lig_0>
-64.3214

>  <SCORE.INTRA.VDW>
-1.34904

>  <SCORE.INTRA.VDW.0>
-1.67301

>  <SCORE.INTRA.norm>
-0.113761

>  <SCORE.RESTR>
0

>  <SCORE.RESTR.CAVITY>
0

>  <SCORE.RESTR.norm>
0

>  <SCORE.SYSTEM>
0

>  <SCORE.SYSTEM.CONST>
0

>  <SCORE.SYSTEM.DIHEDRAL>
0

>  <SCORE.SYSTEM.SOLV>
0

>  <SCORE.SYSTEM.norm>
0

>  <SCORE.heavy>
34

>  <SCORE.norm>
-0.334677

>  <RMSD>
1.693

$$$$
ligand
 OpenBabel11021811483D
libRbt.so/2013.1/901 2013/11/27
 34 36  0  0  0  0  0  0  0  0999 V2000
    4.6400   41.8299   75.6398 N   0  0  0  0  0  0  0  0  0  0  0  0
    3.8639   41.2804   76.7758 C   0  0  1  0  0  0  0  0  0  0  0  0
    5.2151   43.0395   75.6440 C   0  0  0  0  0  0  0  0  0  0  0  0
    5.1626   43.8309   76.5897 O   0  0  0  0  0  0  0  0  0  0  0  0
   12.7064   44.2165   65.1878 N   0  0  0  0  0  0  0  0  0  0  0  0
    4.6941   41.3749   78.0670 C   0  0  0  0  0  0  0  0  0  0  0  0
    4.5302   40.1212   78.9370 C   0  0  0  0  0  0  0  0  0  0  0  0
    3.0481   39.8262   79.2140 C   0  0  0  0  0  0  0  0  0  0  0  0
    2.4915   40.4922   80.1182 O   0  0  0  0  0  0  0  0  0  0  0  0
    2.5034   38.9424   78.5133 O   0  0  0  0  0  0  0  0  0  0  0  0
   10.9004   43.1758   66.1946 N   0  0  0  0  0  0  0  0  0  0  0  0
    1.9466   42.4505   75.9375 O   0  0  0  0  0  0  0  0  0  0  0  0
   12.0925   43.7901   66.2886 C   0  0  0  0  0  0  0  0  0  0  0  0
    2.0953   42.1188   78.1413 O   0  0  0  0  0  0  0  0  0  0  0  0
   12.6987   43.9881   67.5356 N   0  0  0  0  0  0  0  0  0  0  0  0
   12.0465   43.5435   68.6777 C   0  0  0  0  0  0  0  0  0  0  0  0
   10.8018   42.9416   68.5483 C   0  0  0  0  0  0  0  0  0  0  0  0
   12.5534   43.7147   69.7836 O   0  0  0  0  0  0  0  0  0  0  0  0
   10.8588   41.9092   70.6538 C   0  0  0  0  0  0  0  0  0  0  0  0
   10.1433   42.4197   69.6561 N   0  0  0  0  0  0  0  0  0  0  0  0
   10.4210   41.9158   71.8021 O   0  0  0  0  0  0  0  0  0  0  0  0
    8.6856   42.2574   69.6225 C   0  0  2  0  0  0  0  0  0  0  0  0
    8.3012   41.5368   68.3278 C   0  0  0  0  0  0  0  0  0  0  0  0
   10.2562   42.7399   67.2877 C   0  0  0  0  0  0  0  0  0  0  0  0
    9.0222   42.0935   67.1566 N   0  0  0  0  0  0  0  0  0  0  0  0
    7.9919   43.6220   69.6945 C   0  0  0  0  0  0  0  0  0  0  0  0
    8.2485   44.2385   71.0019 N   0  0  0  0  0  0  0  0  0  0  0  0
    6.0140   43.3743   74.3714 C   0  0  0  0  0  0  0  0  0  0  0  0
    6.7446   44.5569   74.2849 C   0  0  0  0  0  0  0  0  0  0  0  0
    7.5117   44.8324   73.1547 C   0  0  0  0  0  0  0  0  0  0  0  0
    7.5207   43.9495   72.0801 C   0  0  0  0  0  0  0  0  0  0  0  0
    6.7845   42.7723   72.1611 C   0  0  0  0  0  0  0  0  0  0  0  0
    6.0450   42.4789   73.3060 C   0  0  0  0  0  0  0  0  0  0  0  0
    2.5190   42.0122   76.9646 C   0  0  0  0  0  0  0  0  0  0  0  0
  1  3  1  0  0  0  0
  2  1  1  6  0  0  0
  2  6  1  0  0  0  0
  2 34  1  0  0  0  0
  3  4  2  0  0  0  0
  3 28  1  0  0  0  0
  5 13  1  0  0  0  0
  6  7  1  0  0  0  0
  7  8  1  0  0  0  0
  8  9  1  0  0  0  0
  8 10  1  0  0  0  0
 11 13  2  0  0  0  0
 11 24  1  0  0  0  0
 12 34  1  0  0  0  0
 13 15  1  0  0  0  0
 14 34  1  0  0  0  0
 15 16  1  0  0  0  0
 16 17  1  0  0  0  0
 16 18  2  0  0  0  0
 17 20  1  0  0  0  0
 17 24  2  0  0  0  0
 19 21  1  0  0  0  0
 19 20  1  0  0  0  0
 20 22  1  0  0  0  0
 22 23  1  0  0  0  0
 22 26  1  6  0  0  0
 23 25  1  0  0  0  0
 24 25  1  0  0  0  0
 26 27  1  0  0  0  0
 27 31  1  0  0  0  0
 28 29  2  0  0  0  0
 28 33  1  0  0  0  0
 29 30  1  0  0  0  0
 30 31  2  0  0  0  0
 31 32  1  0  0  0  0
 32 33  2  0  0  0  0
M  END
>  <CHROM.1>
-52.24084015,-139.87693526,32.66517713,-53.59096187,-80.07326275,151.92141506
-66.01926085,-83.68264255,-159.82226048,-175.16723022,7.32361070,42.52609773
72.67045678,2.22097460,-0.03593634,1.79151085

>  <Name>
ligand

>  <RI>
0

>  <Rbt.Current_Directory>
/home/itssahil/PROJECTS/Mol_Feturizer/New_Systems/rnas/3SUH

>  <Rbt.Executable>
rbdock ($Id: //depot/dev/client3/rdock/2013.1/src/exe/rbdock.cxx#4 $)

>  <Rbt.Library>
libRbt.so (2013.1, Build901 2013/11/27)

>  <Rbt.Parameter_File>
/export/apps/rDock/src/rDock_2013.1_src/data/scripts/dock_solv.prm

>  <Rbt.Receptor>
prm/pocket_docking_2.prm

>  <SCORE>
-3.98604

>  <SCORE.INTER>
-4.46455

>  <SCORE.INTER.CONST>
1

>  <SCORE.INTER.POLAR>
0

>  <SCORE.INTER.ROT>
10

>  <SCORE.INTER.SOLV>
23.9563

>  <SCORE.INTER.VDW>
-21.2285

>  <SCORE.INTER.norm>
-0.13131

>  <SCORE.INTRA>
0.179

>  <SCORE.INTRA.DIHEDRAL>
-1.04205

>  <SCORE.INTRA.DIHEDRAL.0>
12.2703

>  <SCORE.INTRA.POLAR>
0

>  <SCORE.INTRA.POLAR.0>
0

>  <SCORE.INTRA.REPUL>
0

>  <SCORE.INTRA.REPUL.0>
0

>  <SCORE.INTRA.SOLV>
0.236632

>  <SCORE.INTRA.SOLV.lig_0>
-64.3214

>  <SCORE.INTRA.VDW>
0.581708

>  <SCORE.INTRA.VDW.0>
-1.67301

>  <SCORE.INTRA.norm>
0.00526471

>  <SCORE.RESTR>
0.299509

>  <SCORE.RESTR.CAVITY>
0.299509

>  <SCORE.RESTR.norm>
0.0088091

>  <SCORE.SYSTEM>
0

>  <SCORE.SYSTEM.CONST>
0

>  <SCORE.SYSTEM.DIHEDRAL>
0

>  <SCORE.SYSTEM.SOLV>
0

>  <SCORE.SYSTEM.norm>
0

>  <SCORE.heavy>
34

>  <SCORE.norm>
-0.117236

>  <RMSD>
1.701

$$$$
ligand
 OpenBabel11021811483D
libRbt.so/2013.1/901 2013/11/27
 34 36  0  0  0  0  0  0  0  0999 V2000
    4.6660   41.5226   75.6305 N   0  0  0  0  0  0  0  0  0  0  0  0
    3.8859   40.9428   76.7486 C   0  0  1  0  0  0  0  0  0  0  0  0
    4.6097   42.8113   75.2700 C   0  0  0  0  0  0  0  0  0  0  0  0
    3.9035   43.6580   75.8246 O   0  0  0  0  0  0  0  0  0  0  0  0
   12.6838   44.2412   65.1260 N   0  0  0  0  0  0  0  0  0  0  0  0
    3.9748   39.4081   76.7040 C   0  0  0  0  0  0  0  0  0  0  0  0
    5.3802   38.9349   76.3084 C   0  0  0  0  0  0  0  0  0  0  0  0
    6.4612   39.6571   77.1269 C   0  0  0  0  0  0  0  0  0  0  0  0
    6.6233   39.2869   78.3133 O   0  0  0  0  0  0  0  0  0  0  0  0
    7.1040   40.5623   76.5469 O   0  0  0  0  0  0  0  0  0  0  0  0
   10.9004   43.2112   66.1827 N   0  0  0  0  0  0  0  0  0  0  0  0
    4.8097   42.6298   78.1798 O   0  0  0  0  0  0  0  0  0  0  0  0
   12.0898   43.8348   66.2451 C   0  0  0  0  0  0  0  0  0  0  0  0
    4.2992   40.6509   79.0808 O   0  0  0  0  0  0  0  0  0  0  0  0
   12.7138   44.0633   67.4780 N   0  0  0  0  0  0  0  0  0  0  0  0
   12.0822   43.6392   68.6393 C   0  0  0  0  0  0  0  0  0  0  0  0
   10.8396   43.0270   68.5422 C   0  0  0  0  0  0  0  0  0  0  0  0
   12.6049   43.8373   69.7333 O   0  0  0  0  0  0  0  0  0  0  0  0
   10.9358   42.0403   70.6681 C   0  0  0  0  0  0  0  0  0  0  0  0
   10.2017   42.5248   69.6710 N   0  0  0  0  0  0  0  0  0  0  0  0
   11.5005   40.9545   70.5562 O   0  0  0  0  0  0  0  0  0  0  0  0
    8.7448   42.3528   69.6635 C   0  0  2  0  0  0  0  0  0  0  0  0
    8.3452   41.6021   68.3906 C   0  0  0  0  0  0  0  0  0  0  0  0
   10.2760   42.7948   67.2948 C   0  0  0  0  0  0  0  0  0  0  0  0
    9.0444   42.1380   67.1967 N   0  0  0  0  0  0  0  0  0  0  0  0
    8.0433   43.7142   69.7172 C   0  0  0  0  0  0  0  0  0  0  0  0
    8.1398   44.2668   71.0738 N   0  0  0  0  0  0  0  0  0  0  0  0
    5.5488   43.1951   74.1122 C   0  0  0  0  0  0  0  0  0  0  0  0
    5.5685   44.4973   73.6187 C   0  0  0  0  0  0  0  0  0  0  0  0
    6.4584   44.8567   72.6085 C   0  0  0  0  0  0  0  0  0  0  0  0
    7.3069   43.9068   72.0497 C   0  0  0  0  0  0  0  0  0  0  0  0
    7.2823   42.6037   72.5352 C   0  0  0  0  0  0  0  0  0  0  0  0
    6.4173   42.2517   73.5703 C   0  0  0  0  0  0  0  0  0  0  0  0
    4.3730   41.4550   78.1198 C   0  0  0  0  0  0  0  0  0  0  0  0
  1  3  1  0  0  0  0
  2  1  1  6  0  0  0
  2  6  1  0  0  0  0
  2 34  1  0  0  0  0
  3  4  2  0  0  0  0
  3 28  1  0  0  0  0
  5 13  1  0  0  0  0
  6  7  1  0  0  0  0
  7  8  1  0  0  0  0
  8  9  1  0  0  0  0
  8 10  1  0  0  0  0
 11 13  2  0  0  0  0
 11 24  1  0  0  0  0
 12 34  1  0  0  0  0
 13 15  1  0  0  0  0
 14 34  1  0  0  0  0
 15 16  1  0  0  0  0
 16 17  1  0  0  0  0
 16 18  2  0  0  0  0
 17 20  1  0  0  0  0
 17 24  2  0  0  0  0
 19 21  1  0  0  0  0
 19 20  1  0  0  0  0
 20 22  1  0  0  0  0
 22 23  1  0  0  0  0
 22 26  1  6  0  0  0
 23 25  1  0  0  0  0
 24 25  1  0  0  0  0
 26 27  1  0  0  0  0
 27 31  1  0  0  0  0
 28 29  2  0  0  0  0
 28 33  1  0  0  0  0
 29 30  1  0  0  0  0
 30 31  2  0  0  0  0
 31 32  1  0  0  0  0
 32 33  2  0  0  0  0
M  END
>  <CHROM.1>
168.75633118,38.93935996,33.26249934,48.24976641,76.05803019,-73.58085593
-74.74592512,-82.20167484,-116.27494198,178.58375537,7.87840115,42.33283955
72.40217378,2.29774426,-0.60610251,2.26657796

>  <Name>
ligand

>  <RI>
0

>  <Rbt.Current_Directory>
/home/itssahil/PROJECTS/Mol_Feturizer/New_Systems/rnas/3SUH

>  <Rbt.Executable>
rbdock ($Id: //depot/dev/client3/rdock/2013.1/src/exe/rbdock.cxx#4 $)

>  <Rbt.Library>
libRbt.so (2013.1, Build901 2013/11/27)

>  <Rbt.Parameter_File>
/export/apps/rDock/src/rDock_2013.1_src/data/scripts/dock_solv.prm

>  <Rbt.Receptor>
prm/pocket_docking_2.prm

>  <SCORE>
-7.6381

>  <SCORE.INTER>
-6.31032

>  <SCORE.INTER.CONST>
1

>  <SCORE.INTER.POLAR>
0

>  <SCORE.INTER.ROT>
10

>  <SCORE.INTER.SOLV>
25.1182

>  <SCORE.INTER.VDW>
-22.8463

>  <SCORE.INTER.norm>
-0.185598

>  <SCORE.INTRA>
-2.38868

>  <SCORE.INTRA.DIHEDRAL>
-2.69998

>  <SCORE.INTRA.DIHEDRAL.0>
12.2703

>  <SCORE.INTRA.POLAR>
0

>  <SCORE.INTRA.POLAR.0>
0

>  <SCORE.INTRA.REPUL>
0

>  <SCORE.INTRA.REPUL.0>
0

>  <SCORE.INTRA.SOLV>
-0.217292

>  <SCORE.INTRA.SOLV.lig_0>
-64.3214

>  <SCORE.INTRA.VDW>
-0.930048

>  <SCORE.INTRA.VDW.0>
-1.67301

>  <SCORE.INTRA.norm>
-0.0702554

>  <SCORE.RESTR>
1.06091

>  <SCORE.RESTR.CAVITY>
1.06091

>  <SCORE.RESTR.norm>
0.0312033

>  <SCORE.SYSTEM>
0

>  <SCORE.SYSTEM.CONST>
0

>  <SCORE.SYSTEM.DIHEDRAL>
0

>  <SCORE.SYSTEM.SOLV>
0

>  <SCORE.SYSTEM.norm>
0

>  <SCORE.heavy>
34

>  <SCORE.norm>
-0.22465

>  <RMSD>
1.710

$$$$
ligand
 OpenBabel11021811483D
libRbt.so/2013.1/901 2013/11/27
 34 36  0  0  0  0  0  0  0  0999 V2000
    5.3796   40.1752   75.4487 N   0  0  0  0  0  0  0  0  0  0  0  0
    4.8829   39.5568   76.7000 C   0  0  1  0  0  0  0  0  0  0  0  0
    6.1119   39.5259   74.5343 C   0  0  0  0  0  0  0  0  0  0  0  0
    6.4560   38.3446   74.6307 O   0  0  0  0  0  0  0  0  0  0  0  0
   12.7654   44.0514   64.6229 N   0  0  0  0  0  0  0  0  0  0  0  0
    6.0096   39.5230   77.7463 C   0  0  0  0  0  0  0  0  0  0  0  0
    5.5889   38.7519   79.0047 C   0  0  0  0  0  0  0  0  0  0  0  0
    6.7077   38.7526   80.0576 C   0  0  0  0  0  0  0  0  0  0  0  0
    7.4956   37.7778   80.0557 O   0  0  0  0  0  0  0  0  0  0  0  0
    6.7521   39.7297   80.8399 O   0  0  0  0  0  0  0  0  0  0  0  0
   11.3890   42.7871   65.9887 N   0  0  0  0  0  0  0  0  0  0  0  0
    2.7384   39.6204   77.7698 O   0  0  0  0  0  0  0  0  0  0  0  0
   12.3592   43.7060   65.8420 C   0  0  0  0  0  0  0  0  0  0  0  0
    3.6817   41.5600   77.1895 O   0  0  0  0  0  0  0  0  0  0  0  0
   12.9502   44.3070   66.9606 N   0  0  0  0  0  0  0  0  0  0  0  0
   12.5149   43.9424   68.2275 C   0  0  0  0  0  0  0  0  0  0  0  0
   11.4888   43.0139   68.3431 C   0  0  0  0  0  0  0  0  0  0  0  0
   13.0108   44.4629   69.2237 O   0  0  0  0  0  0  0  0  0  0  0  0
   11.9521   42.4809   70.5799 C   0  0  0  0  0  0  0  0  0  0  0  0
   11.0677   42.5678   69.5909 N   0  0  0  0  0  0  0  0  0  0  0  0
   12.7843   41.5768   70.5946 O   0  0  0  0  0  0  0  0  0  0  0  0
    9.7175   42.0152   69.7450 C   0  0  2  0  0  0  0  0  0  0  0  0
    9.4854   40.9722   68.6487 C   0  0  0  0  0  0  0  0  0  0  0  0
   10.9562   42.4229   67.2053 C   0  0  0  0  0  0  0  0  0  0  0  0
    9.9530   41.4550   67.3259 N   0  0  0  0  0  0  0  0  0  0  0  0
    8.6679   43.1276   69.6477 C   0  0  0  0  0  0  0  0  0  0  0  0
    7.3338   42.5723   69.9068 N   0  0  0  0  0  0  0  0  0  0  0  0
    6.4696   40.3586   73.2900 C   0  0  0  0  0  0  0  0  0  0  0  0
    6.9089   39.7361   72.1241 C   0  0  0  0  0  0  0  0  0  0  0  0
    7.1789   40.4863   70.9813 C   0  0  0  0  0  0  0  0  0  0  0  0
    7.0560   41.8714   71.0056 C   0  0  0  0  0  0  0  0  0  0  0  0
    6.6260   42.4956   72.1717 C   0  0  0  0  0  0  0  0  0  0  0  0
    6.3214   41.7426   73.3048 C   0  0  0  0  0  0  0  0  0  0  0  0
    3.6621   40.3076   77.2707 C   0  0  0  0  0  0  0  0  0  0  0  0
  1  3  1  0  0  0  0
  2  1  1  6  0  0  0
  2  6  1  0  0  0  0
  2 34  1  0  0  0  0
  3  4  2  0  0  0  0
  3 28  1  0  0  0  0
  5 13  1  0  0  0  0
  6  7  1  0  0  0  0
  7  8  1  0  0  0  0
  8  9  1  0  0  0  0
  8 10  1  0  0  0  0
 11 13  2  0  0  0  0
 11 24  1  0  0  0  0
 12 34  1  0  0  0  0
 13 15  1  0  0  0  0
 14 34  1  0  0  0  0
 15 16  1  0  0  0  0
 16 17  1  0  0  0  0
 16 18  2  0  0  0  0
 17 20  1  0  0  0  0
 17 24  2  0  0  0  0
 19 21  1  0  0  0  0
 19 20  1  0  0  0  0
 20 22  1  0  0  0  0
 22 23  1  0  0  0  0
 22 26  1  6  0  0  0
 23 25  1  0  0  0  0
 24 25  1  0  0  0  0
 26 27  1  0  0  0  0
 27 31  1  0  0  0  0
 28 29  2  0  0  0  0
 28 33  1  0  0  0  0
 29 30  1  0  0  0  0
 30 31  2  0  0  0  0
 31 32  1  0  0  0  0
 32 33  2  0  0  0  0
M  END
>  <CHROM.1>
80.02783188,-173.70568410,140.91738360,-178.61958982,-93.59208717,-74.15182228
-175.66861432,53.72561541,-92.42106223,-163.03466454,8.36458266,41.31762545
72.37536862,2.08906227,0.10127804,1.85176879

>  <Name>
ligand

>  <RI>
0

>  <Rbt.Current_Directory>
/home/itssahil/PROJECTS/Mol_Feturizer/New_Systems/rnas/3SUH

>  <Rbt.Executable>
rbdock ($Id: //depot/dev/client3/rdock/2013.1/src/exe/rbdock.cxx#4 $)

>  <Rbt.Library>
libRbt.so (2013.1, Build901 2013/11/27)

>  <Rbt.Parameter_File>
/export/apps/rDock/src/rDock_2013.1_src/data/scripts/dock_solv.prm

>  <Rbt.Receptor>
prm/pocket_docking_5.prm

>  <SCORE>
-14.3413

>  <SCORE.INTER>
-9.95466

>  <SCORE.INTER.CONST>
1

>  <SCORE.INTER.POLAR>
0

>  <SCORE.INTER.ROT>
10

>  <SCORE.INTER.SOLV>
28.921

>  <SCORE.INTER.VDW>
-26.5435

>  <SCORE.INTER.norm>
-0.292784

>  <SCORE.INTRA>
-4.38669

>  <SCORE.INTRA.DIHEDRAL>
-5.47939

>  <SCORE.INTRA.DIHEDRAL.0>
12.2703

>  <SCORE.INTRA.POLAR>
0

>  <SCORE.INTRA.POLAR.0>
0

>  <SCORE.INTRA.REPUL>
0

>  <SCORE.INTRA.REPUL.0>
0

>  <SCORE.INTRA.SOLV>
-1.06544

>  <SCORE.INTRA.SOLV.lig_0>
-64.3214

>  <SCORE.INTRA.VDW>
-1.11427

>  <SCORE.INTRA.VDW.0>
-1.67301

>  <SCORE.INTRA.norm>
-0.12902

>  <SCORE.RESTR>
0

>  <SCORE.RESTR.CAVITY>
0

>  <SCORE.RESTR.norm>
0

>  <SCORE.SYSTEM>
0

>  <SCORE.SYSTEM.CONST>
0

>  <SCORE.SYSTEM.DIHEDRAL>
0

>  <SCORE.SYSTEM.SOLV>
0

>  <SCORE.SYSTEM.norm>
0

>  <SCORE.heavy>
34

>  <SCORE.norm>
-0.421804

>  <RMSD>
1.759

$$$$
ligand
 OpenBabel11021811483D
libRbt.so/2013.1/901 2013/11/27
 34 36  0  0  0  0  0  0  0  0999 V2000
    4.9860   41.3388   75.6097 N   0  0  0  0  0  0  0  0  0  0  0  0
    4.4502   40.7335   76.8512 C   0  0  1  0  0  0  0  0  0  0  0  0
    5.5229   42.5644   75.5478 C   0  0  0  0  0  0  0  0  0  0  0  0
    5.6301   43.3258   76.5132 O   0  0  0  0  0  0  0  0  0  0  0  0
   12.6303   43.7310   64.9809 N   0  0  0  0  0  0  0  0  0  0  0  0
    2.9942   40.2913   76.6279 C   0  0  0  0  0  0  0  0  0  0  0  0
    2.4059   39.6306   77.8820 C   0  0  0  0  0  0  0  0  0  0  0  0
    2.4226   40.5943   79.0783 C   0  0  0  0  0  0  0  0  0  0  0  0
    3.5430   40.9105   79.5427 O   0  0  0  0  0  0  0  0  0  0  0  0
    1.3139   40.9959   79.5008 O   0  0  0  0  0  0  0  0  0  0  0  0
   11.1432   42.5417   66.2972 N   0  0  0  0  0  0  0  0  0  0  0  0
    5.4984   38.6069   76.4953 O   0  0  0  0  0  0  0  0  0  0  0  0
   12.0540   43.5213   66.1617 C   0  0  0  0  0  0  0  0  0  0  0  0
    5.7185   39.5650   78.5009 O   0  0  0  0  0  0  0  0  0  0  0  0
   12.4051   44.3272   67.2521 N   0  0  0  0  0  0  0  0  0  0  0  0
   11.7936   44.1023   68.4781 C   0  0  0  0  0  0  0  0  0  0  0  0
   10.8338   43.1036   68.5760 C   0  0  0  0  0  0  0  0  0  0  0  0
   12.0775   44.8027   69.4466 O   0  0  0  0  0  0  0  0  0  0  0  0
   10.9572   42.9358   70.9125 C   0  0  0  0  0  0  0  0  0  0  0  0
   10.2454   42.7973   69.7981 N   0  0  0  0  0  0  0  0  0  0  0  0
   10.4656   42.6608   72.0047 O   0  0  0  0  0  0  0  0  0  0  0  0
    8.9328   42.1427   69.8263 C   0  0  2  0  0  0  0  0  0  0  0  0
    8.9634   40.9393   68.8805 C   0  0  0  0  0  0  0  0  0  0  0  0
   10.5425   42.3106   67.4744 C   0  0  0  0  0  0  0  0  0  0  0  0
    9.6072   41.2759   67.5868 N   0  0  0  0  0  0  0  0  0  0  0  0
    7.8349   43.1230   69.3997 C   0  0  0  0  0  0  0  0  0  0  0  0
    7.5797   44.0809   70.4825 N   0  0  0  0  0  0  0  0  0  0  0  0
    6.0604   42.9598   74.1606 C   0  0  0  0  0  0  0  0  0  0  0  0
    5.7202   44.1851   73.5926 C   0  0  0  0  0  0  0  0  0  0  0  0
    6.2519   44.5653   72.3620 C   0  0  0  0  0  0  0  0  0  0  0  0
    7.0939   43.7052   71.6651 C   0  0  0  0  0  0  0  0  0  0  0  0
    7.4276   42.4774   72.2267 C   0  0  0  0  0  0  0  0  0  0  0  0
    6.9244   42.1111   73.4742 C   0  0  0  0  0  0  0  0  0  0  0  0
    5.2956   39.5311   77.3195 C   0  0  0  0  0  0  0  0  0  0  0  0
  1  3  1  0  0  0  0
  2  1  1  6  0  0  0
  2  6  1  0  0  0  0
  2 34  1  0  0  0  0
  3  4  2  0  0  0  0
  3 28  1  0  0  0  0
  5 13  1  0  0  0  0
  6  7  1  0  0  0  0
  7  8  1  0  0  0  0
  8  9  1  0  0  0  0
  8 10  1  0  0  0  0
 11 13  2  0  0  0  0
 11 24  1  0  0  0  0
 12 34  1  0  0  0  0
 13 15  1  0  0  0  0
 14 34  1  0  0  0  0
 15 16  1  0  0  0  0
 16 17  1  0  0  0  0
 16 18  2  0  0  0  0
 17 20  1  0  0  0  0
 17 24  2  0  0  0  0
 19 21  1  0  0  0  0
 19 20  1  0  0  0  0
 20 22  1  0  0  0  0
 22 23  1  0  0  0  0
 22 26  1  6  0  0  0
 23 25  1  0  0  0  0
 24 25  1  0  0  0  0
 26 27  1  0  0  0  0
 27 31  1  0  0  0  0
 28 29  2  0  0  0  0
 28 33  1  0  0  0  0
 29 30  1  0  0  0  0
 30 31  2  0  0  0  0
 31 32  1  0  0  0  0
 32 33  2  0  0  0  0
M  END
>  <CHROM.1>
124.92710321,178.82419845,-54.12609825,59.72084775,-67.76286292,-179.35276380
-74.25437992,-64.24286034,-146.77540178,131.05481676,7.53623147,42.20389457
72.59748969,-2.88925567,0.93083999,-0.05714083

>  <Name>
ligand

>  <RI>
0

>  <Rbt.Current_Directory>
/home/itssahil/PROJECTS/Mol_Feturizer/New_Systems/rnas/3SUH

>  <Rbt.Executable>
rbdock ($Id: //depot/dev/client3/rdock/2013.1/src/exe/rbdock.cxx#4 $)

>  <Rbt.Library>
libRbt.so (2013.1, Build901 2013/11/27)

>  <Rbt.Parameter_File>
/export/apps/rDock/src/rDock_2013.1_src/data/scripts/dock_solv.prm

>  <Rbt.Receptor>
prm/pocket_docking_2.prm

>  <SCORE>
-6.41831

>  <SCORE.INTER>
-4.14232

>  <SCORE.INTER.CONST>
1

>  <SCORE.INTER.POLAR>
0

>  <SCORE.INTER.ROT>
10

>  <SCORE.INTER.SOLV>
24.9006

>  <SCORE.INTER.VDW>
-21.3284

>  <SCORE.INTER.norm>
-0.121833

>  <SCORE.INTRA>
-2.65917

>  <SCORE.INTRA.DIHEDRAL>
-4.06751

>  <SCORE.INTRA.DIHEDRAL.0>
12.2703

>  <SCORE.INTRA.POLAR>
0

>  <SCORE.INTRA.POLAR.0>
0

>  <SCORE.INTRA.REPUL>
0

>  <SCORE.INTRA.REPUL.0>
0

>  <SCORE.INTRA.SOLV>
-0.529221

>  <SCORE.INTRA.SOLV.lig_0>
-64.3214

>  <SCORE.INTRA.VDW>
-0.360804

>  <SCORE.INTRA.VDW.0>
-1.67301

>  <SCORE.INTRA.norm>
-0.0782108

>  <SCORE.RESTR>
0.383176

>  <SCORE.RESTR.CAVITY>
0.383176

>  <SCORE.RESTR.norm>
0.0112699

>  <SCORE.SYSTEM>
0

>  <SCORE.SYSTEM.CONST>
0

>  <SCORE.SYSTEM.DIHEDRAL>
0

>  <SCORE.SYSTEM.SOLV>
0

>  <SCORE.SYSTEM.norm>
0

>  <SCORE.heavy>
34

>  <SCORE.norm>
-0.188774

>  <RMSD>
2.024

$$$$
ligand
 OpenBabel11021811483D
libRbt.so/2013.1/901 2013/11/27
 34 36  0  0  0  0  0  0  0  0999 V2000
    4.9023   40.6461   76.4970 N   0  0  0  0  0  0  0  0  0  0  0  0
    4.3766   40.0262   77.7356 C   0  0  1  0  0  0  0  0  0  0  0  0
    4.6356   41.9034   76.1199 C   0  0  0  0  0  0  0  0  0  0  0  0
    3.9235   42.6841   76.7576 O   0  0  0  0  0  0  0  0  0  0  0  0
   13.1001   45.4833   69.5000 N   0  0  0  0  0  0  0  0  0  0  0  0
    5.1702   40.5367   78.9500 C   0  0  0  0  0  0  0  0  0  0  0  0
    4.8745   39.7076   80.2072 C   0  0  0  0  0  0  0  0  0  0  0  0
    5.6677   40.2276   81.4157 C   0  0  0  0  0  0  0  0  0  0  0  0
    5.0104   40.5770   82.4241 O   0  0  0  0  0  0  0  0  0  0  0  0
    6.9149   40.2618   81.3055 O   0  0  0  0  0  0  0  0  0  0  0  0
   11.3660   44.0697   68.9056 N   0  0  0  0  0  0  0  0  0  0  0  0
    2.5597   41.3760   78.5260 O   0  0  0  0  0  0  0  0  0  0  0  0
   12.1530   44.6161   69.8487 C   0  0  0  0  0  0  0  0  0  0  0  0
    2.0716   39.4596   77.4879 O   0  0  0  0  0  0  0  0  0  0  0  0
   11.9878   44.2831   71.1990 N   0  0  0  0  0  0  0  0  0  0  0  0
   10.9931   43.3810   71.5516 C   0  0  0  0  0  0  0  0  0  0  0  0
   10.1767   42.8596   70.5565 C   0  0  0  0  0  0  0  0  0  0  0  0
   10.8220   43.0810   72.7305 O   0  0  0  0  0  0  0  0  0  0  0  0
    9.4428   41.0352   71.8353 C   0  0  0  0  0  0  0  0  0  0  0  0
    9.2135   41.9018   70.8533 N   0  0  0  0  0  0  0  0  0  0  0  0
   10.5379   40.4874   71.9404 O   0  0  0  0  0  0  0  0  0  0  0  0
    8.0611   41.7327   69.9613 C   0  0  2  0  0  0  0  0  0  0  0  0
    8.5671   41.6180   68.5211 C   0  0  0  0  0  0  0  0  0  0  0  0
   10.4001   43.1964   69.2283 C   0  0  0  0  0  0  0  0  0  0  0  0
    9.6049   42.6356   68.2228 N   0  0  0  0  0  0  0  0  0  0  0  0
    7.1022   42.9209   70.0922 C   0  0  0  0  0  0  0  0  0  0  0  0
    7.2955   43.5710   71.3942 N   0  0  0  0  0  0  0  0  0  0  0  0
    5.3351   42.3457   74.8218 C   0  0  0  0  0  0  0  0  0  0  0  0
    5.2716   43.6715   74.4000 C   0  0  0  0  0  0  0  0  0  0  0  0
    5.9513   44.0819   73.2549 C   0  0  0  0  0  0  0  0  0  0  0  0
    6.6650   43.1616   72.4945 C   0  0  0  0  0  0  0  0  0  0  0  0
    6.7221   41.8354   72.9094 C   0  0  0  0  0  0  0  0  0  0  0  0
    6.0717   41.4311   74.0744 C   0  0  0  0  0  0  0  0  0  0  0  0
    2.8743   40.3154   77.9339 C   0  0  0  0  0  0  0  0  0  0  0  0
  1  3  1  0  0  0  0
  2  1  1  6  0  0  0
  2  6  1  0  0  0  0
  2 34  1  0  0  0  0
  3  4  2  0  0  0  0
  3 28  1  0  0  0  0
  5 13  1  0  0  0  0
  6  7  1  0  0  0  0
  7  8  1  0  0  0  0
  8  9  1  0  0  0  0
  8 10  1  0  0  0  0
 11 13  2  0  0  0  0
 11 24  1  0  0  0  0
 12 34  1  0  0  0  0
 13 15  1  0  0  0  0
 14 34  1  0  0  0  0
 15 16  1  0  0  0  0
 16 17  1  0  0  0  0
 16 18  2  0  0  0  0
 17 20  1  0  0  0  0
 17 24  2  0  0  0  0
 19 21  1  0  0  0  0
 19 20  1  0  0  0  0
 20 22  1  0  0  0  0
 22 23  1  0  0  0  0
 22 26  1  6  0  0  0
 23 25  1  0  0  0  0
 24 25  1  0  0  0  0
 26 27  1  0  0  0  0
 27 31  1  0  0  0  0
 28 29  2  0  0  0  0
 28 33  1  0  0  0  0
 29 30  1  0  0  0  0
 30 31  2  0  0  0  0
 31 32  1  0  0  0  0
 32 33  2  0  0  0  0
M  END
>  <CHROM.1>
-77.05035963,-167.66532972,-86.94717978,-179.81010920,122.38319720,-44.24173039
-23.04291985,-86.29955727,-127.47680452,-172.46639574,7.32234399,42.04265097
74.04413948,2.13959313,0.15451814,1.75454368

>  <Name>
ligand

>  <RI>
0

>  <Rbt.Current_Directory>
/home/itssahil/PROJECTS/Mol_Feturizer/New_Systems/rnas/3SUH

>  <Rbt.Executable>
rbdock ($Id: //depot/dev/client3/rdock/2013.1/src/exe/rbdock.cxx#4 $)

>  <Rbt.Library>
libRbt.so (2013.1, Build901 2013/11/27)

>  <Rbt.Parameter_File>
/export/apps/rDock/src/rDock_2013.1_src/data/scripts/dock_solv.prm

>  <Rbt.Receptor>
prm/pocket_docking_2.prm

>  <SCORE>
1.93744

>  <SCORE.INTER>
2.00942

>  <SCORE.INTER.CONST>
1

>  <SCORE.INTER.POLAR>
0

>  <SCORE.INTER.ROT>
10

>  <SCORE.INTER.SOLV>
14.2371

>  <SCORE.INTER.VDW>
-13.6728

>  <SCORE.INTER.norm>
0.0591007

>  <SCORE.INTRA>
-0.0763284

>  <SCORE.INTRA.DIHEDRAL>
-0.825829

>  <SCORE.INTRA.DIHEDRAL.0>
12.2703

>  <SCORE.INTRA.POLAR>
0

>  <SCORE.INTRA.POLAR.0>
0

>  <SCORE.INTRA.REPUL>
0

>  <SCORE.INTRA.REPUL.0>
0

>  <SCORE.INTRA.SOLV>
1.28639

>  <SCORE.INTRA.SOLV.lig_0>
-64.3214

>  <SCORE.INTRA.VDW>
-0.306609

>  <SCORE.INTRA.VDW.0>
-1.67301

>  <SCORE.INTRA.norm>
-0.00224495

>  <SCORE.RESTR>
0.00434179

>  <SCORE.RESTR.CAVITY>
0.00434179

>  <SCORE.RESTR.norm>
0.0001277

>  <SCORE.SYSTEM>
0

>  <SCORE.SYSTEM.CONST>
0

>  <SCORE.SYSTEM.DIHEDRAL>
0

>  <SCORE.SYSTEM.SOLV>
0

>  <SCORE.SYSTEM.norm>
0

>  <SCORE.heavy>
34

>  <SCORE.norm>
0.0569834

>  <RMSD>
2.026

$$$$
ligand
 OpenBabel11021811483D
libRbt.so/2013.1/901 2013/11/27
 34 36  0  0  0  0  0  0  0  0999 V2000
    5.7679   42.0954   76.0118 N   0  0  0  0  0  0  0  0  0  0  0  0
    5.2925   41.8147   77.3865 C   0  0  1  0  0  0  0  0  0  0  0  0
    5.1233   42.8886   75.1461 C   0  0  0  0  0  0  0  0  0  0  0  0
    4.0641   43.4716   75.3936 O   0  0  0  0  0  0  0  0  0  0  0  0
   12.6289   44.0010   64.8263 N   0  0  0  0  0  0  0  0  0  0  0  0
    3.8743   41.2219   77.3355 C   0  0  0  0  0  0  0  0  0  0  0  0
    3.1464   41.3824   78.6771 C   0  0  0  0  0  0  0  0  0  0  0  0
    2.0757   40.2963   78.8624 C   0  0  0  0  0  0  0  0  0  0  0  0
    0.9449   40.5176   78.3693 O   0  0  0  0  0  0  0  0  0  0  0  0
    2.4127   39.2668   79.4912 O   0  0  0  0  0  0  0  0  0  0  0  0
   11.3581   42.5500   66.1061 N   0  0  0  0  0  0  0  0  0  0  0  0
    6.5480   41.1479   79.3170 O   0  0  0  0  0  0  0  0  0  0  0  0
   12.1049   43.6630   66.0017 C   0  0  0  0  0  0  0  0  0  0  0  0
    6.6237   39.8378   77.5096 O   0  0  0  0  0  0  0  0  0  0  0  0
   12.3392   44.4745   67.1189 N   0  0  0  0  0  0  0  0  0  0  0  0
   11.7833   44.1144   68.3392 C   0  0  0  0  0  0  0  0  0  0  0  0
   10.9905   42.9762   68.4056 C   0  0  0  0  0  0  0  0  0  0  0  0
   11.9661   44.8156   69.3312 O   0  0  0  0  0  0  0  0  0  0  0  0
   11.1641   42.7471   70.7336 C   0  0  0  0  0  0  0  0  0  0  0  0
   10.4700   42.5394   69.6187 N   0  0  0  0  0  0  0  0  0  0  0  0
   10.6062   43.1608   71.7475 O   0  0  0  0  0  0  0  0  0  0  0  0
    9.2748   41.6888   69.6300 C   0  0  2  0  0  0  0  0  0  0  0  0
    9.4807   40.5389   68.6407 C   0  0  0  0  0  0  0  0  0  0  0  0
   10.8133   42.1871   67.2772 C   0  0  0  0  0  0  0  0  0  0  0  0
   10.0505   41.0167   67.3567 N   0  0  0  0  0  0  0  0  0  0  0  0
    8.0339   42.5017   69.2454 C   0  0  0  0  0  0  0  0  0  0  0  0
    7.8358   43.5884   70.2124 N   0  0  0  0  0  0  0  0  0  0  0  0
    5.8345   43.0731   73.7933 C   0  0  0  0  0  0  0  0  0  0  0  0
    6.0658   44.3484   73.2834 C   0  0  0  0  0  0  0  0  0  0  0  0
    6.7587   44.5155   72.0861 C   0  0  0  0  0  0  0  0  0  0  0  0
    7.1883   43.4078   71.3631 C   0  0  0  0  0  0  0  0  0  0  0  0
    6.9504   42.1332   71.8664 C   0  0  0  0  0  0  0  0  0  0  0  0
    6.2885   41.9661   73.0819 C   0  0  0  0  0  0  0  0  0  0  0  0
    6.2346   40.8520   78.1386 C   0  0  0  0  0  0  0  0  0  0  0  0
  1  3  1  0  0  0  0
  2  1  1  6  0  0  0
  2  6  1  0  0  0  0
  2 34  1  0  0  0  0
  3  4  2  0  0  0  0
  3 28  1  0  0  0  0
  5 13  1  0  0  0  0
  6  7  1  0  0  0  0
  7  8  1  0  0  0  0
  8  9  1  0  0  0  0
  8 10  1  0  0  0  0
 11 13  2  0  0  0  0
 11 24  1  0  0  0  0
 12 34  1  0  0  0  0
 13 15  1  0  0  0  0
 14 34  1  0  0  0  0
 15 16  1  0  0  0  0
 16 17  1  0  0  0  0
 16 18  2  0  0  0  0
 17 20  1  0  0  0  0
 17 24  2  0  0  0  0
 19 21  1  0  0  0  0
 19 20  1  0  0  0  0
 20 22  1  0  0  0  0
 22 23  1  0  0  0  0
 22 26  1  6  0  0  0
 23 25  1  0  0  0  0
 24 25  1  0  0  0  0
 26 27  1  0  0  0  0
 27 31  1  0  0  0  0
 28 29  2  0  0  0  0
 28 33  1  0  0  0  0
 29 30  1  0  0  0  0
 30 31  2  0  0  0  0
 31 32  1  0  0  0  0
 32 33  2  0  0  0  0
M  END
>  <CHROM.1>
56.99974313,-159.40636281,134.22518385,-153.82847001,-85.65834736,135.50179630
-60.66415193,-84.60544144,-164.99953059,-128.48274522,7.67246872,42.33610954
72.51887212,-2.17891082,0.03993359,-1.33956722

>  <Name>
ligand

>  <RI>
0

>  <Rbt.Current_Directory>
/home/itssahil/PROJECTS/Mol_Feturizer/New_Systems/rnas/3SUH

>  <Rbt.Executable>
rbdock ($Id: //depot/dev/client3/rdock/2013.1/src/exe/rbdock.cxx#4 $)

>  <Rbt.Library>
libRbt.so (2013.1, Build901 2013/11/27)

>  <Rbt.Parameter_File>
/export/apps/rDock/src/rDock_2013.1_src/data/scripts/dock_solv.prm

>  <Rbt.Receptor>
prm/pocket_docking_2.prm

>  <SCORE>
-7.60362

>  <SCORE.INTER>
-6.18503

>  <SCORE.INTER.CONST>
1

>  <SCORE.INTER.POLAR>
0

>  <SCORE.INTER.ROT>
10

>  <SCORE.INTER.SOLV>
26.3746

>  <SCORE.INTER.VDW>
-23.1816

>  <SCORE.INTER.norm>
-0.181913

>  <SCORE.INTRA>
-1.77563

>  <SCORE.INTRA.DIHEDRAL>
-1.58503

>  <SCORE.INTRA.DIHEDRAL.0>
12.2703

>  <SCORE.INTRA.POLAR>
0

>  <SCORE.INTRA.POLAR.0>
0

>  <SCORE.INTRA.REPUL>
0

>  <SCORE.INTRA.REPUL.0>
0

>  <SCORE.INTRA.SOLV>
0.124862

>  <SCORE.INTRA.SOLV.lig_0>
-64.3214

>  <SCORE.INTRA.VDW>
-1.04555

>  <SCORE.INTRA.VDW.0>
-1.67301

>  <SCORE.INTRA.norm>
-0.0522244

>  <SCORE.RESTR>
0.357033

>  <SCORE.RESTR.CAVITY>
0.357033

>  <SCORE.RESTR.norm>
0.010501

>  <SCORE.SYSTEM>
0

>  <SCORE.SYSTEM.CONST>
0

>  <SCORE.SYSTEM.DIHEDRAL>
0

>  <SCORE.SYSTEM.SOLV>
0

>  <SCORE.SYSTEM.norm>
0

>  <SCORE.heavy>
34

>  <SCORE.norm>
-0.223636

>  <RMSD>
2.237

$$$$
ligand
 OpenBabel11021811483D
libRbt.so/2013.1/901 2013/11/27
 34 36  0  0  0  0  0  0  0  0999 V2000
    5.0038   41.4481   75.5329 N   0  0  0  0  0  0  0  0  0  0  0  0
    4.4472   41.0005   76.8309 C   0  0  1  0  0  0  0  0  0  0  0  0
    5.1970   42.7327   75.2064 C   0  0  0  0  0  0  0  0  0  0  0  0
    4.9329   43.6850   75.9457 O   0  0  0  0  0  0  0  0  0  0  0  0
   12.6093   43.9419   64.8679 N   0  0  0  0  0  0  0  0  0  0  0  0
    3.5831   39.7457   76.6213 C   0  0  0  0  0  0  0  0  0  0  0  0
    2.7731   39.4011   77.8785 C   0  0  0  0  0  0  0  0  0  0  0  0
    1.9556   40.6087   78.3619 C   0  0  0  0  0  0  0  0  0  0  0  0
    1.7289   40.6907   79.5919 O   0  0  0  0  0  0  0  0  0  0  0  0
    1.5775   41.4251   77.4906 O   0  0  0  0  0  0  0  0  0  0  0  0
   11.3418   42.5084   66.1706 N   0  0  0  0  0  0  0  0  0  0  0  0
    5.3693   41.0962   79.0418 O   0  0  0  0  0  0  0  0  0  0  0  0
   12.0602   43.6373   66.0410 C   0  0  0  0  0  0  0  0  0  0  0  0
    6.5685   40.0960   77.4449 O   0  0  0  0  0  0  0  0  0  0  0  0
   12.2385   44.5005   67.1295 N   0  0  0  0  0  0  0  0  0  0  0  0
   11.6568   44.1749   68.3474 C   0  0  0  0  0  0  0  0  0  0  0  0
   10.8944   43.0179   68.4388 C   0  0  0  0  0  0  0  0  0  0  0  0
   11.7905   44.9212   69.3139 O   0  0  0  0  0  0  0  0  0  0  0  0
   11.0050   42.8897   70.7784 C   0  0  0  0  0  0  0  0  0  0  0  0
   10.3504   42.6163   69.6538 N   0  0  0  0  0  0  0  0  0  0  0  0
   11.1457   42.0279   71.6431 O   0  0  0  0  0  0  0  0  0  0  0  0
    9.1795   41.7326   69.6665 C   0  0  2  0  0  0  0  0  0  0  0  0
    9.4466   40.5495   68.7326 C   0  0  0  0  0  0  0  0  0  0  0  0
   10.7727   42.1783   67.3398 C   0  0  0  0  0  0  0  0  0  0  0  0
   10.0408   40.9905   67.4465 N   0  0  0  0  0  0  0  0  0  0  0  0
    7.9284   42.4927   69.2131 C   0  0  0  0  0  0  0  0  0  0  0  0
    7.6413   43.5797   70.1571 N   0  0  0  0  0  0  0  0  0  0  0  0
    5.8357   42.9538   73.8233 C   0  0  0  0  0  0  0  0  0  0  0  0
    5.8994   44.2300   73.2690 C   0  0  0  0  0  0  0  0  0  0  0  0
    6.5273   44.4369   72.0424 C   0  0  0  0  0  0  0  0  0  0  0  0
    7.0585   43.3632   71.3357 C   0  0  0  0  0  0  0  0  0  0  0  0
    6.9878   42.0868   71.8836 C   0  0  0  0  0  0  0  0  0  0  0  0
    6.3913   41.8840   73.1273 C   0  0  0  0  0  0  0  0  0  0  0  0
    5.5546   40.7059   77.8637 C   0  0  0  0  0  0  0  0  0  0  0  0
  1  3  1  0  0  0  0
  2  1  1  6  0  0  0
  2  6  1  0  0  0  0
  2 34  1  0  0  0  0
  3  4  2  0  0  0  0
  3 28  1  0  0  0  0
  5 13  1  0  0  0  0
  6  7  1  0  0  0  0
  7  8  1  0  0  0  0
  8  9  1  0  0  0  0
  8 10  1  0  0  0  0
 11 13  2  0  0  0  0
 11 24  1  0  0  0  0
 12 34  1  0  0  0  0
 13 15  1  0  0  0  0
 14 34  1  0  0  0  0
 15 16  1  0  0  0  0
 16 17  1  0  0  0  0
 16 18  2  0  0  0  0
 17 20  1  0  0  0  0
 17 24  2  0  0  0  0
 19 21  1  0  0  0  0
 19 20  1  0  0  0  0
 20 22  1  0  0  0  0
 22 23  1  0  0  0  0
 22 26  1  6  0  0  0
 23 25  1  0  0  0  0
 24 25  1  0  0  0  0
 26 27  1  0  0  0  0
 27 31  1  0  0  0  0
 28 29  2  0  0  0  0
 28 33  1  0  0  0  0
 29 30  1  0  0  0  0
 30 31  2  0  0  0  0
 31 32  1  0  0  0  0
 32 33  2  0  0  0  0
M  END
>  <CHROM.1>
145.23486406,-169.13404709,137.98941388,53.25192492,-150.15821881,-134.28046236
-62.86707783,-78.03575020,-164.81910343,169.81942754,7.54095309,42.24227759
72.41421056,-2.45627907,0.69586856,-0.69206785

>  <Name>
ligand

>  <RI>
0

>  <Rbt.Current_Directory>
/home/itssahil/PROJECTS/Mol_Feturizer/New_Systems/rnas/3SUH

>  <Rbt.Executable>
rbdock ($Id: //depot/dev/client3/rdock/2013.1/src/exe/rbdock.cxx#4 $)

>  <Rbt.Library>
libRbt.so (2013.1, Build901 2013/11/27)

>  <Rbt.Parameter_File>
/export/apps/rDock/src/rDock_2013.1_src/data/scripts/dock_solv.prm

>  <Rbt.Receptor>
prm/pocket_docking_2.prm

>  <SCORE>
-8.83127

>  <SCORE.INTER>
-6.17628

>  <SCORE.INTER.CONST>
1

>  <SCORE.INTER.POLAR>
0

>  <SCORE.INTER.ROT>
10

>  <SCORE.INTER.SOLV>
27.4854

>  <SCORE.INTER.VDW>
-23.546

>  <SCORE.INTER.norm>
-0.181655

>  <SCORE.INTRA>
-2.65499

>  <SCORE.INTRA.DIHEDRAL>
-4.0154

>  <SCORE.INTRA.DIHEDRAL.0>
12.2703

>  <SCORE.INTRA.POLAR>
0

>  <SCORE.INTRA.POLAR.0>
0

>  <SCORE.INTRA.REPUL>
0

>  <SCORE.INTRA.REPUL.0>
0

>  <SCORE.INTRA.SOLV>
-0.785497

>  <SCORE.INTRA.SOLV.lig_0>
-64.3214

>  <SCORE.INTRA.VDW>
-0.254539

>  <SCORE.INTRA.VDW.0>
-1.67301

>  <SCORE.INTRA.norm>
-0.0780878

>  <SCORE.RESTR>
0

>  <SCORE.RESTR.CAVITY>
0

>  <SCORE.RESTR.norm>
0

>  <SCORE.SYSTEM>
0

>  <SCORE.SYSTEM.CONST>
0

>  <SCORE.SYSTEM.DIHEDRAL>
0

>  <SCORE.SYSTEM.SOLV>
0

>  <SCORE.SYSTEM.norm>
0

>  <SCORE.heavy>
34

>  <SCORE.norm>
-0.259743

>  <RMSD>
2.239

$$$$
ligand
 OpenBabel11021811483D
libRbt.so/2013.1/901 2013/11/27
 34 36  0  0  0  0  0  0  0  0999 V2000
    4.7251   43.1988   74.9696 N   0  0  0  0  0  0  0  0  0  0  0  0
    4.0702   43.0728   76.2925 C   0  0  1  0  0  0  0  0  0  0  0  0
    5.9279   42.6856   74.6800 C   0  0  0  0  0  0  0  0  0  0  0  0
    6.6248   42.0539   75.4790 O   0  0  0  0  0  0  0  0  0  0  0  0
   12.9644   43.9837   64.5427 N   0  0  0  0  0  0  0  0  0  0  0  0
    3.9829   41.5899   76.6906 C   0  0  0  0  0  0  0  0  0  0  0  0
    3.2451   41.4052   78.0236 C   0  0  0  0  0  0  0  0  0  0  0  0
    3.2407   39.9314   78.4574 C   0  0  0  0  0  0  0  0  0  0  0  0
    2.1282   39.3580   78.5241 O   0  0  0  0  0  0  0  0  0  0  0  0
    4.3509   39.4097   78.7105 O   0  0  0  0  0  0  0  0  0  0  0  0
   11.6912   42.5088   65.7925 N   0  0  0  0  0  0  0  0  0  0  0  0
    6.0385   43.6207   77.5469 O   0  0  0  0  0  0  0  0  0  0  0  0
   12.3177   43.6918   65.6683 C   0  0  0  0  0  0  0  0  0  0  0  0
    4.1444   44.6969   78.0396 O   0  0  0  0  0  0  0  0  0  0  0  0
   12.2981   44.6246   66.7128 N   0  0  0  0  0  0  0  0  0  0  0  0
   11.6160   44.3111   67.8808 C   0  0  0  0  0  0  0  0  0  0  0  0
   10.9526   43.0940   67.9642 C   0  0  0  0  0  0  0  0  0  0  0  0
   11.5759   45.1171   68.8070 O   0  0  0  0  0  0  0  0  0  0  0  0
   10.8144   43.1016   70.3058 C   0  0  0  0  0  0  0  0  0  0  0  0
   10.3148   42.7084   69.1381 N   0  0  0  0  0  0  0  0  0  0  0  0
   11.7625   42.5048   70.8112 O   0  0  0  0  0  0  0  0  0  0  0  0
    9.2318   41.7204   69.0832 C   0  0  2  0  0  0  0  0  0  0  0  0
    9.7033   40.5196   68.2591 C   0  0  0  0  0  0  0  0  0  0  0  0
   11.0274   42.1894   66.9138 C   0  0  0  0  0  0  0  0  0  0  0  0
   10.3952   40.9454   67.0176 N   0  0  0  0  0  0  0  0  0  0  0  0
    7.9767   42.3342   68.4533 C   0  0  0  0  0  0  0  0  0  0  0  0
    7.5019   43.4485   69.2829 N   0  0  0  0  0  0  0  0  0  0  0  0
    6.3821   42.8980   73.2245 C   0  0  0  0  0  0  0  0  0  0  0  0
    6.6673   41.8079   72.4058 C   0  0  0  0  0  0  0  0  0  0  0  0
    7.0244   41.9998   71.0727 C   0  0  0  0  0  0  0  0  0  0  0  0
    7.1441   43.2856   70.5562 C   0  0  0  0  0  0  0  0  0  0  0  0
    6.8685   44.3757   71.3748 C   0  0  0  0  0  0  0  0  0  0  0  0
    6.4765   44.1834   72.6988 C   0  0  0  0  0  0  0  0  0  0  0  0
    4.8182   43.8641   77.3854 C   0  0  0  0  0  0  0  0  0  0  0  0
  1  3  1  0  0  0  0
  2  1  1  6  0  0  0
  2  6  1  0  0  0  0
  2 34  1  0  0  0  0
  3  4  2  0  0  0  0
  3 28  1  0  0  0  0
  5 13  1  0  0  0  0
  6  7  1  0  0  0  0
  7  8  1  0  0  0  0
  8  9  1  0  0  0  0
  8 10  1  0  0  0  0
 11 13  2  0  0  0  0
 11 24  1  0  0  0  0
 12 34  1  0  0  0  0
 13 15  1  0  0  0  0
 14 34  1  0  0  0  0
 15 16  1  0  0  0  0
 16 17  1  0  0  0  0
 16 18  2  0  0  0  0
 17 20  1  0  0  0  0
 17 24  2  0  0  0  0
 19 21  1  0  0  0  0
 19 20  1  0  0  0  0
 20 22  1  0  0  0  0
 22 23  1  0  0  0  0
 22 26  1  6  0  0  0
 23 25  1  0  0  0  0
 24 25  1  0  0  0  0
 26 27  1  0  0  0  0
 27 31  1  0  0  0  0
 28 29  2  0  0  0  0
 28 33  1  0  0  0  0
 29 30  1  0  0  0  0
 30 31  2  0  0  0  0
 31 32  1  0  0  0  0
 32 33  2  0  0  0  0
M  END
>  <CHROM.1>
-54.73459526,-177.05226355,-54.94329350,-176.38875019,-115.93138598,-80.88752964
-62.19120563,-59.71336226,-9.64809175,-120.64998437,7.79877909,42.63075908
71.96633255,-2.85253265,-0.93180625,-2.65574730

>  <Name>
ligand

>  <RI>
0

>  <Rbt.Current_Directory>
/home/itssahil/PROJECTS/Mol_Feturizer/New_Systems/rnas/3SUH

>  <Rbt.Executable>
rbdock ($Id: //depot/dev/client3/rdock/2013.1/src/exe/rbdock.cxx#4 $)

>  <Rbt.Library>
libRbt.so (2013.1, Build901 2013/11/27)

>  <Rbt.Parameter_File>
/export/apps/rDock/src/rDock_2013.1_src/data/scripts/dock_solv.prm

>  <Rbt.Receptor>
prm/pocket_docking_2.prm

>  <SCORE>
-7.65733

>  <SCORE.INTER>
-5.11964

>  <SCORE.INTER.CONST>
1

>  <SCORE.INTER.POLAR>
0

>  <SCORE.INTER.ROT>
10

>  <SCORE.INTER.SOLV>
31.4167

>  <SCORE.INTER.VDW>
-24.152

>  <SCORE.INTER.norm>
-0.150578

>  <SCORE.INTRA>
-3.2058

>  <SCORE.INTRA.DIHEDRAL>
-6.00706

>  <SCORE.INTRA.DIHEDRAL.0>
12.2703

>  <SCORE.INTRA.POLAR>
0

>  <SCORE.INTRA.POLAR.0>
0

>  <SCORE.INTRA.REPUL>
0

>  <SCORE.INTRA.REPUL.0>
0

>  <SCORE.INTRA.SOLV>
-0.190007

>  <SCORE.INTRA.SOLV.lig_0>
-64.3214

>  <SCORE.INTRA.VDW>
-0.107265

>  <SCORE.INTRA.VDW.0>
-1.67301

>  <SCORE.INTRA.norm>
-0.0942882

>  <SCORE.RESTR>
0.66811

>  <SCORE.RESTR.CAVITY>
0.66811

>  <SCORE.RESTR.norm>
0.0196503

>  <SCORE.SYSTEM>
0

>  <SCORE.SYSTEM.CONST>
0

>  <SCORE.SYSTEM.DIHEDRAL>
0

>  <SCORE.SYSTEM.SOLV>
0

>  <SCORE.SYSTEM.norm>
0

>  <SCORE.heavy>
34

>  <SCORE.norm>
-0.225216

>  <RMSD>
2.286

$$$$
ligand
 OpenBabel11021811483D
libRbt.so/2013.1/901 2013/11/27
 34 36  0  0  0  0  0  0  0  0999 V2000
    5.4258   41.6081   76.2950 N   0  0  0  0  0  0  0  0  0  0  0  0
    4.7648   41.0354   77.4908 C   0  0  1  0  0  0  0  0  0  0  0  0
    4.7994   42.3693   75.3883 C   0  0  0  0  0  0  0  0  0  0  0  0
    3.6056   42.6772   75.4447 O   0  0  0  0  0  0  0  0  0  0  0  0
   12.6058   44.2242   65.2108 N   0  0  0  0  0  0  0  0  0  0  0  0
    3.9643   39.7838   77.0932 C   0  0  0  0  0  0  0  0  0  0  0  0
    2.8723   39.4612   78.1222 C   0  0  0  0  0  0  0  0  0  0  0  0
    1.8474   40.6013   78.2216 C   0  0  0  0  0  0  0  0  0  0  0  0
    1.5273   40.9842   79.3714 O   0  0  0  0  0  0  0  0  0  0  0  0
    1.4083   41.0670   77.1450 O   0  0  0  0  0  0  0  0  0  0  0  0
   10.8175   43.1982   66.2632 N   0  0  0  0  0  0  0  0  0  0  0  0
    6.7723   39.9823   78.2710 O   0  0  0  0  0  0  0  0  0  0  0  0
   12.0090   43.8175   66.3283 C   0  0  0  0  0  0  0  0  0  0  0  0
    5.5330   41.1085   79.7491 O   0  0  0  0  0  0  0  0  0  0  0  0
   12.6324   44.0410   67.5624 N   0  0  0  0  0  0  0  0  0  0  0  0
   11.9979   43.6166   68.7222 C   0  0  0  0  0  0  0  0  0  0  0  0
   10.7532   43.0091   68.6222 C   0  0  0  0  0  0  0  0  0  0  0  0
   12.5200   43.8105   69.8171 O   0  0  0  0  0  0  0  0  0  0  0  0
   10.8434   42.0174   70.7461 C   0  0  0  0  0  0  0  0  0  0  0  0
   10.1122   42.5067   69.7492 N   0  0  0  0  0  0  0  0  0  0  0  0
   10.4641   42.1272   71.9098 O   0  0  0  0  0  0  0  0  0  0  0  0
    8.6548   42.3399   69.7396 C   0  0  2  0  0  0  0  0  0  0  0  0
    8.2539   41.5935   68.4646 C   0  0  0  0  0  0  0  0  0  0  0  0
   10.1903   42.7816   67.3737 C   0  0  0  0  0  0  0  0  0  0  0  0
    8.9564   42.1295   67.2727 N   0  0  0  0  0  0  0  0  0  0  0  0
    7.9580   43.7037   69.7954 C   0  0  0  0  0  0  0  0  0  0  0  0
    8.0648   44.2582   71.1506 N   0  0  0  0  0  0  0  0  0  0  0  0
    5.7028   42.8947   74.2579 C   0  0  0  0  0  0  0  0  0  0  0  0
    6.6575   42.0668   73.6722 C   0  0  0  0  0  0  0  0  0  0  0  0
    7.4361   42.5263   72.6119 C   0  0  0  0  0  0  0  0  0  0  0  0
    7.2999   43.8330   72.1556 C   0  0  0  0  0  0  0  0  0  0  0  0
    6.3532   44.6640   72.7452 C   0  0  0  0  0  0  0  0  0  0  0  0
    5.5490   44.1939   73.7825 C   0  0  0  0  0  0  0  0  0  0  0  0
    5.7795   40.6774   78.5963 C   0  0  0  0  0  0  0  0  0  0  0  0
  1  3  1  0  0  0  0
  2  1  1  6  0  0  0
  2  6  1  0  0  0  0
  2 34  1  0  0  0  0
  3  4  2  0  0  0  0
  3 28  1  0  0  0  0
  5 13  1  0  0  0  0
  6  7  1  0  0  0  0
  7  8  1  0  0  0  0
  8  9  1  0  0  0  0
  8 10  1  0  0  0  0
 11 13  2  0  0  0  0
 11 24  1  0  0  0  0
 12 34  1  0  0  0  0
 13 15  1  0  0  0  0
 14 34  1  0  0  0  0
 15 16  1  0  0  0  0
 16 17  1  0  0  0  0
 16 18  2  0  0  0  0
 17 20  1  0  0  0  0
 17 24  2  0  0  0  0
 19 21  1  0  0  0  0
 19 20  1  0  0  0  0
 20 22  1  0  0  0  0
 22 23  1  0  0  0  0
 22 26  1  6  0  0  0
 23 25  1  0  0  0  0
 24 25  1  0  0  0  0
 26 27  1  0  0  0  0
 27 31  1  0  0  0  0
 28 29  2  0  0  0  0
 28 33  1  0  0  0  0
 29 30  1  0  0  0  0
 30 31  2  0  0  0  0
 31 32  1  0  0  0  0
 32 33  2  0  0  0  0
M  END
>  <CHROM.1>
79.34416799,-158.72976683,-50.60177152,62.00880809,-133.15278172,146.89442960
-74.27128164,-77.28260281,65.36833043,41.61309092,7.43579414,42.32882069
72.72522745,-2.19545845,0.08353445,-1.27757477

>  <Name>
ligand

>  <RI>
0

>  <Rbt.Current_Directory>
/home/itssahil/PROJECTS/Mol_Feturizer/New_Systems/rnas/3SUH

>  <Rbt.Executable>
rbdock ($Id: //depot/dev/client3/rdock/2013.1/src/exe/rbdock.cxx#4 $)

>  <Rbt.Library>
libRbt.so (2013.1, Build901 2013/11/27)

>  <Rbt.Parameter_File>
/export/apps/rDock/src/rDock_2013.1_src/data/scripts/dock_solv.prm

>  <Rbt.Receptor>
prm/pocket_docking_2.prm

>  <SCORE>
-9.31628

>  <SCORE.INTER>
-5.7263

>  <SCORE.INTER.CONST>
1

>  <SCORE.INTER.POLAR>
0

>  <SCORE.INTER.ROT>
10

>  <SCORE.INTER.SOLV>
24.2882

>  <SCORE.INTER.VDW>
-22.1803

>  <SCORE.INTER.norm>
-0.168421

>  <SCORE.INTRA>
-3.63199

>  <SCORE.INTRA.DIHEDRAL>
-3.37192

>  <SCORE.INTRA.DIHEDRAL.0>
12.2703

>  <SCORE.INTRA.POLAR>
0

>  <SCORE.INTRA.POLAR.0>
0

>  <SCORE.INTRA.REPUL>
0

>  <SCORE.INTRA.REPUL.0>
0

>  <SCORE.INTRA.SOLV>
-0.12597

>  <SCORE.INTRA.SOLV.lig_0>
-64.3214

>  <SCORE.INTRA.VDW>
-1.88304

>  <SCORE.INTRA.VDW.0>
-1.67301

>  <SCORE.INTRA.norm>
-0.106823

>  <SCORE.RESTR>
0.0420135

>  <SCORE.RESTR.CAVITY>
0.0420135

>  <SCORE.RESTR.norm>
0.00123569

>  <SCORE.SYSTEM>
0

>  <SCORE.SYSTEM.CONST>
0

>  <SCORE.SYSTEM.DIHEDRAL>
0

>  <SCORE.SYSTEM.SOLV>
0

>  <SCORE.SYSTEM.norm>
0

>  <SCORE.heavy>
34

>  <SCORE.norm>
-0.274008

>  <RMSD>
2.359

$$$$
ligand
 OpenBabel11021811483D
libRbt.so/2013.1/901 2013/11/27
 34 36  0  0  0  0  0  0  0  0999 V2000
    5.0233   41.7019   75.9019 N   0  0  0  0  0  0  0  0  0  0  0  0
    4.4209   41.2656   77.1831 C   0  0  1  0  0  0  0  0  0  0  0  0
    5.7521   40.9048   75.1097 C   0  0  0  0  0  0  0  0  0  0  0  0
    6.0048   39.7223   75.3567 O   0  0  0  0  0  0  0  0  0  0  0  0
   12.7292   44.0148   64.7940 N   0  0  0  0  0  0  0  0  0  0  0  0
    4.4363   42.4296   78.1881 C   0  0  0  0  0  0  0  0  0  0  0  0
    3.9259   43.7305   77.5537 C   0  0  0  0  0  0  0  0  0  0  0  0
    4.9292   44.2804   76.5284 C   0  0  0  0  0  0  0  0  0  0  0  0
    6.1043   44.4686   76.9219 O   0  0  0  0  0  0  0  0  0  0  0  0
    4.4994   44.4980   75.3723 O   0  0  0  0  0  0  0  0  0  0  0  0
   11.4233   42.5853   66.0626 N   0  0  0  0  0  0  0  0  0  0  0  0
    2.1818   41.4784   76.3531 O   0  0  0  0  0  0  0  0  0  0  0  0
   12.1914   43.6844   65.9653 C   0  0  0  0  0  0  0  0  0  0  0  0
    2.7026   39.6429   77.5143 O   0  0  0  0  0  0  0  0  0  0  0  0
   12.4334   44.4893   67.0857 N   0  0  0  0  0  0  0  0  0  0  0  0
   11.8630   44.1374   68.3016 C   0  0  0  0  0  0  0  0  0  0  0  0
   11.0487   43.0140   68.3606 C   0  0  0  0  0  0  0  0  0  0  0  0
   12.0523   44.8331   69.2961 O   0  0  0  0  0  0  0  0  0  0  0  0
   11.2028   42.7773   70.6892 C   0  0  0  0  0  0  0  0  0  0  0  0
   10.5123   42.5847   69.5694 N   0  0  0  0  0  0  0  0  0  0  0  0
   12.0850   41.9887   71.0212 O   0  0  0  0  0  0  0  0  0  0  0  0
    9.3014   41.7565   69.5712 C   0  0  2  0  0  0  0  0  0  0  0  0
    9.4923   40.6048   68.5810 C   0  0  0  0  0  0  0  0  0  0  0  0
   10.8642   42.2304   67.2295 C   0  0  0  0  0  0  0  0  0  0  0  0
   10.0793   41.0743   67.3017 N   0  0  0  0  0  0  0  0  0  0  0  0
    8.0784   42.5931   69.1803 C   0  0  0  0  0  0  0  0  0  0  0  0
    7.6103   43.3573   70.3431 N   0  0  0  0  0  0  0  0  0  0  0  0
    6.2312   41.5635   73.8033 C   0  0  0  0  0  0  0  0  0  0  0  0
    6.1577   42.9445   73.6387 C   0  0  0  0  0  0  0  0  0  0  0  0
    6.6430   43.5444   72.4784 C   0  0  0  0  0  0  0  0  0  0  0  0
    7.1655   42.7657   71.4512 C   0  0  0  0  0  0  0  0  0  0  0  0
    7.2314   41.3856   71.6103 C   0  0  0  0  0  0  0  0  0  0  0  0
    6.7789   40.7877   72.7856 C   0  0  0  0  0  0  0  0  0  0  0  0
    2.9775   40.7537   76.9983 C   0  0  0  0  0  0  0  0  0  0  0  0
  1  3  1  0  0  0  0
  2  1  1  6  0  0  0
  2  6  1  0  0  0  0
  2 34  1  0  0  0  0
  3  4  2  0  0  0  0
  3 28  1  0  0  0  0
  5 13  1  0  0  0  0
  6  7  1  0  0  0  0
  7  8  1  0  0  0  0
  8  9  1  0  0  0  0
  8 10  1  0  0  0  0
 11 13  2  0  0  0  0
 11 24  1  0  0  0  0
 12 34  1  0  0  0  0
 13 15  1  0  0  0  0
 14 34  1  0  0  0  0
 15 16  1  0  0  0  0
 16 17  1  0  0  0  0
 16 18  2  0  0  0  0
 17 20  1  0  0  0  0
 17 24  2  0  0  0  0
 19 21  1  0  0  0  0
 19 20  1  0  0  0  0
 20 22  1  0  0  0  0
 22 23  1  0  0  0  0
 22 26  1  6  0  0  0
 23 25  1  0  0  0  0
 24 25  1  0  0  0  0
 26 27  1  0  0  0  0
 27 31  1  0  0  0  0
 28 29  2  0  0  0  0
 28 33  1  0  0  0  0
 29 30  1  0  0  0  0
 30 31  2  0  0  0  0
 31 32  1  0  0  0  0
 32 33  2  0  0  0  0
M  END
>  <CHROM.1>
145.38228558,47.03053815,-49.78713477,-70.31127771,-54.67794417,-83.05001818
-80.36366970,-62.47912793,-175.21340039,13.73849976,7.80030148,42.46003219
72.08176347,2.76775264,0.84097692,0.60774967

>  <Name>
ligand

>  <RI>
0

>  <Rbt.Current_Directory>
/home/itssahil/PROJECTS/Mol_Feturizer/New_Systems/rnas/3SUH

>  <Rbt.Executable>
rbdock ($Id: //depot/dev/client3/rdock/2013.1/src/exe/rbdock.cxx#4 $)

>  <Rbt.Library>
libRbt.so (2013.1, Build901 2013/11/27)

>  <Rbt.Parameter_File>
/export/apps/rDock/src/rDock_2013.1_src/data/scripts/dock_solv.prm

>  <Rbt.Receptor>
prm/pocket_docking_2.prm

>  <SCORE>
-9.20862

>  <SCORE.INTER>
-7.60704

>  <SCORE.INTER.CONST>
1

>  <SCORE.INTER.POLAR>
0

>  <SCORE.INTER.ROT>
10

>  <SCORE.INTER.SOLV>
27.6888

>  <SCORE.INTER.VDW>
-24.5676

>  <SCORE.INTER.norm>
-0.223736

>  <SCORE.INTRA>
-2.32123

>  <SCORE.INTRA.DIHEDRAL>
-2.982

>  <SCORE.INTRA.DIHEDRAL.0>
12.2703

>  <SCORE.INTRA.POLAR>
0

>  <SCORE.INTRA.POLAR.0>
0

>  <SCORE.INTRA.REPUL>
0

>  <SCORE.INTRA.REPUL.0>
0

>  <SCORE.INTRA.SOLV>
-0.461697

>  <SCORE.INTRA.SOLV.lig_0>
-64.3214

>  <SCORE.INTRA.VDW>
-0.599383

>  <SCORE.INTRA.VDW.0>
-1.67301

>  <SCORE.INTRA.norm>
-0.0682715

>  <SCORE.RESTR>
0.719652

>  <SCORE.RESTR.CAVITY>
0.719652

>  <SCORE.RESTR.norm>
0.0211662

>  <SCORE.SYSTEM>
0

>  <SCORE.SYSTEM.CONST>
0

>  <SCORE.SYSTEM.DIHEDRAL>
0

>  <SCORE.SYSTEM.SOLV>
0

>  <SCORE.SYSTEM.norm>
0

>  <SCORE.heavy>
34

>  <SCORE.norm>
-0.270842

>  <RMSD>
2.410

$$$$
ligand
 OpenBabel11021811483D
libRbt.so/2013.1/901 2013/11/27
 34 36  0  0  0  0  0  0  0  0999 V2000
    4.4800   43.0491   75.0420 N   0  0  0  0  0  0  0  0  0  0  0  0
    3.7970   43.1005   76.3557 C   0  0  1  0  0  0  0  0  0  0  0  0
    5.6875   42.5025   74.8490 C   0  0  0  0  0  0  0  0  0  0  0  0
    6.3659   41.9836   75.7399 O   0  0  0  0  0  0  0  0  0  0  0  0
   13.1555   43.9113   64.3013 N   0  0  0  0  0  0  0  0  0  0  0  0
    3.5354   41.6722   76.8622 C   0  0  0  0  0  0  0  0  0  0  0  0
    2.6036   41.6670   78.0816 C   0  0  0  0  0  0  0  0  0  0  0  0
    2.4767   40.2572   78.6788 C   0  0  0  0  0  0  0  0  0  0  0  0
    3.3346   39.9156   79.5264 O   0  0  0  0  0  0  0  0  0  0  0  0
    1.5226   39.5527   78.2763 O   0  0  0  0  0  0  0  0  0  0  0  0
   11.7425   42.6576   65.6392 N   0  0  0  0  0  0  0  0  0  0  0  0
    5.7998   43.5218   77.6045 O   0  0  0  0  0  0  0  0  0  0  0  0
   12.6599   43.6310   65.5039 C   0  0  0  0  0  0  0  0  0  0  0  0
    4.0307   44.8323   77.9811 O   0  0  0  0  0  0  0  0  0  0  0  0
   13.1019   44.3569   66.6171 N   0  0  0  0  0  0  0  0  0  0  0  0
   12.5741   44.0590   67.8662 C   0  0  0  0  0  0  0  0  0  0  0  0
   11.6048   43.0696   67.9664 C   0  0  0  0  0  0  0  0  0  0  0  0
   12.9385   44.6887   68.8560 O   0  0  0  0  0  0  0  0  0  0  0  0
   11.8892   42.7437   70.2719 C   0  0  0  0  0  0  0  0  0  0  0  0
   11.0982   42.6903   69.2045 N   0  0  0  0  0  0  0  0  0  0  0  0
   11.5276   43.3347   71.2870 O   0  0  0  0  0  0  0  0  0  0  0  0
    9.7788   42.0539   69.2832 C   0  0  2  0  0  0  0  0  0  0  0  0
    9.7201   40.9164   68.2605 C   0  0  0  0  0  0  0  0  0  0  0  0
   11.2219   42.3564   66.8385 C   0  0  0  0  0  0  0  0  0  0  0  0
   10.2775   41.3299   66.9491 N   0  0  0  0  0  0  0  0  0  0  0  0
    8.6722   43.0761   69.0017 C   0  0  0  0  0  0  0  0  0  0  0  0
    7.3777   42.5345   69.4333 N   0  0  0  0  0  0  0  0  0  0  0  0
    6.1728   42.5188   73.3882 C   0  0  0  0  0  0  0  0  0  0  0  0
    6.5171   41.3332   72.7435 C   0  0  0  0  0  0  0  0  0  0  0  0
    6.9029   41.3434   71.4046 C   0  0  0  0  0  0  0  0  0  0  0  0
    6.9919   42.5444   70.7088 C   0  0  0  0  0  0  0  0  0  0  0  0
    6.6570   43.7303   71.3536 C   0  0  0  0  0  0  0  0  0  0  0  0
    6.2367   43.7172   72.6828 C   0  0  0  0  0  0  0  0  0  0  0  0
    4.6156   43.8844   77.4022 C   0  0  0  0  0  0  0  0  0  0  0  0
  1  3  1  0  0  0  0
  2  1  1  6  0  0  0
  2  6  1  0  0  0  0
  2 34  1  0  0  0  0
  3  4  2  0  0  0  0
  3 28  1  0  0  0  0
  5 13  1  0  0  0  0
  6  7  1  0  0  0  0
  7  8  1  0  0  0  0
  8  9  1  0  0  0  0
  8 10  1  0  0  0  0
 11 13  2  0  0  0  0
 11 24  1  0  0  0  0
 12 34  1  0  0  0  0
 13 15  1  0  0  0  0
 14 34  1  0  0  0  0
 15 16  1  0  0  0  0
 16 17  1  0  0  0  0
 16 18  2  0  0  0  0
 17 20  1  0  0  0  0
 17 24  2  0  0  0  0
 19 21  1  0  0  0  0
 19 20  1  0  0  0  0
 20 22  1  0  0  0  0
 22 23  1  0  0  0  0
 22 26  1  6  0  0  0
 23 25  1  0  0  0  0
 24 25  1  0  0  0  0
 26 27  1  0  0  0  0
 27 31  1  0  0  0  0
 28 29  2  0  0  0  0
 28 33  1  0  0  0  0
 29 30  1  0  0  0  0
 30 31  2  0  0  0  0
 31 32  1  0  0  0  0
 32 33  2  0  0  0  0
M  END
>  <CHROM.1>
-62.00200446,-169.31970519,-54.62928261,-173.46352510,87.05081109,128.09317108
-164.75271050,79.75574876,-110.66206160,-122.89434870,7.82633086,42.59754633
72.06368077,-2.48663894,-0.67925085,-2.13042258

>  <Name>
ligand

>  <RI>
0

>  <Rbt.Current_Directory>
/home/itssahil/PROJECTS/Mol_Feturizer/New_Systems/rnas/3SUH

>  <Rbt.Executable>
rbdock ($Id: //depot/dev/client3/rdock/2013.1/src/exe/rbdock.cxx#4 $)

>  <Rbt.Library>
libRbt.so (2013.1, Build901 2013/11/27)

>  <Rbt.Parameter_File>
/export/apps/rDock/src/rDock_2013.1_src/data/scripts/dock_solv.prm

>  <Rbt.Receptor>
prm/pocket_docking_2.prm

>  <SCORE>
-10.3564

>  <SCORE.INTER>
-7.84023

>  <SCORE.INTER.CONST>
1

>  <SCORE.INTER.POLAR>
0

>  <SCORE.INTER.ROT>
10

>  <SCORE.INTER.SOLV>
31.1311

>  <SCORE.INTER.VDW>
-25.8705

>  <SCORE.INTER.norm>
-0.230595

>  <SCORE.INTRA>
-3.24198

>  <SCORE.INTRA.DIHEDRAL>
-4.18311

>  <SCORE.INTRA.DIHEDRAL.0>
12.2703

>  <SCORE.INTRA.POLAR>
0

>  <SCORE.INTRA.POLAR.0>
0

>  <SCORE.INTRA.REPUL>
0

>  <SCORE.INTRA.REPUL.0>
0

>  <SCORE.INTRA.SOLV>
-0.689085

>  <SCORE.INTRA.SOLV.lig_0>
-64.3214

>  <SCORE.INTRA.VDW>
-0.805876

>  <SCORE.INTRA.VDW.0>
-1.67301

>  <SCORE.INTRA.norm>
-0.0953522

>  <SCORE.RESTR>
0.725791

>  <SCORE.RESTR.CAVITY>
0.725791

>  <SCORE.RESTR.norm>
0.0213468

>  <SCORE.SYSTEM>
0

>  <SCORE.SYSTEM.CONST>
0

>  <SCORE.SYSTEM.DIHEDRAL>
0

>  <SCORE.SYSTEM.SOLV>
0

>  <SCORE.SYSTEM.norm>
0

>  <SCORE.heavy>
34

>  <SCORE.norm>
-0.304601

>  <RMSD>
2.420

$$$$
ligand
 OpenBabel11021811483D
libRbt.so/2013.1/901 2013/11/27
 34 36  0  0  0  0  0  0  0  0999 V2000
    6.1417   41.8356   75.3739 N   0  0  0  0  0  0  0  0  0  0  0  0
    5.8324   41.4285   76.7644 C   0  0  1  0  0  0  0  0  0  0  0  0
    6.6888   43.0131   75.0448 C   0  0  0  0  0  0  0  0  0  0  0  0
    6.9944   43.8892   75.8585 O   0  0  0  0  0  0  0  0  0  0  0  0
   12.9139   43.9416   64.5649 N   0  0  0  0  0  0  0  0  0  0  0  0
    4.9734   42.5082   77.4437 C   0  0  0  0  0  0  0  0  0  0  0  0
    3.7555   42.8822   76.5879 C   0  0  0  0  0  0  0  0  0  0  0  0
    2.5163   42.0731   77.0001 C   0  0  0  0  0  0  0  0  0  0  0  0
    2.6863   41.1494   77.8302 O   0  0  0  0  0  0  0  0  0  0  0  0
    1.4253   42.3979   76.4778 O   0  0  0  0  0  0  0  0  0  0  0  0
   11.6172   42.5128   65.8437 N   0  0  0  0  0  0  0  0  0  0  0  0
    4.7934   39.5315   75.7302 O   0  0  0  0  0  0  0  0  0  0  0  0
   12.2953   43.6659   65.7102 C   0  0  0  0  0  0  0  0  0  0  0  0
    4.8718   39.6009   77.9613 O   0  0  0  0  0  0  0  0  0  0  0  0
   12.3589   44.5845   66.7656 N   0  0  0  0  0  0  0  0  0  0  0  0
   11.7054   44.2884   67.9542 C   0  0  0  0  0  0  0  0  0  0  0  0
   10.9873   43.1035   68.0480 C   0  0  0  0  0  0  0  0  0  0  0  0
   11.7381   45.0829   68.8906 O   0  0  0  0  0  0  0  0  0  0  0  0
   10.9350   43.0863   70.3930 C   0  0  0  0  0  0  0  0  0  0  0  0
   10.3748   42.7332   69.2401 N   0  0  0  0  0  0  0  0  0  0  0  0
   10.3494   43.8420   71.1652 O   0  0  0  0  0  0  0  0  0  0  0  0
    9.2439   41.7991   69.2138 C   0  0  2  0  0  0  0  0  0  0  0  0
    9.6264   40.5882   68.3589 C   0  0  0  0  0  0  0  0  0  0  0  0
   10.9800   42.2105   66.9850 C   0  0  0  0  0  0  0  0  0  0  0  0
   10.2924   40.9970   67.0976 N   0  0  0  0  0  0  0  0  0  0  0  0
    7.9980   42.4808   68.6380 C   0  0  0  0  0  0  0  0  0  0  0  0
    7.6245   43.6223   69.4823 N   0  0  0  0  0  0  0  0  0  0  0  0
    6.9670   43.1931   73.5415 C   0  0  0  0  0  0  0  0  0  0  0  0
    7.5467   42.1657   72.8010 C   0  0  0  0  0  0  0  0  0  0  0  0
    7.7468   42.3094   71.4295 C   0  0  0  0  0  0  0  0  0  0  0  0
    7.4110   43.4990   70.7919 C   0  0  0  0  0  0  0  0  0  0  0  0
    6.8402   44.5293   71.5315 C   0  0  0  0  0  0  0  0  0  0  0  0
    6.6068   44.3732   72.8971 C   0  0  0  0  0  0  0  0  0  0  0  0
    5.1043   40.0696   76.8203 C   0  0  0  0  0  0  0  0  0  0  0  0
  1  3  1  0  0  0  0
  2  1  1  6  0  0  0
  2  6  1  0  0  0  0
  2 34  1  0  0  0  0
  3  4  2  0  0  0  0
  3 28  1  0  0  0  0
  5 13  1  0  0  0  0
  6  7  1  0  0  0  0
  7  8  1  0  0  0  0
  8  9  1  0  0  0  0
  8 10  1  0  0  0  0
 11 13  2  0  0  0  0
 11 24  1  0  0  0  0
 12 34  1  0  0  0  0
 13 15  1  0  0  0  0
 14 34  1  0  0  0  0
 15 16  1  0  0  0  0
 16 17  1  0  0  0  0
 16 18  2  0  0  0  0
 17 20  1  0  0  0  0
 17 24  2  0  0  0  0
 19 21  1  0  0  0  0
 19 20  1  0  0  0  0
 20 22  1  0  0  0  0
 22 23  1  0  0  0  0
 22 26  1  6  0  0  0
 23 25  1  0  0  0  0
 24 25  1  0  0  0  0
 26 27  1  0  0  0  0
 27 31  1  0  0  0  0
 28 29  2  0  0  0  0
 28 33  1  0  0  0  0
 29 30  1  0  0  0  0
 30 31  2  0  0  0  0
 31 32  1  0  0  0  0
 32 33  2  0  0  0  0
M  END
>  <CHROM.1>
53.10695285,51.12582327,-4.37660280,94.36839098,-7.78418413,116.66068914
-61.03034650,-54.72115055,10.18837465,-44.39005788,7.88549041,42.59003651
71.86998681,2.88912178,0.91468938,0.48372604

>  <Name>
ligand

>  <RI>
0

>  <Rbt.Current_Directory>
/home/itssahil/PROJECTS/Mol_Feturizer/New_Systems/rnas/3SUH

>  <Rbt.Executable>
rbdock ($Id: //depot/dev/client3/rdock/2013.1/src/exe/rbdock.cxx#4 $)

>  <Rbt.Library>
libRbt.so (2013.1, Build901 2013/11/27)

>  <Rbt.Parameter_File>
/export/apps/rDock/src/rDock_2013.1_src/data/scripts/dock_solv.prm

>  <Rbt.Receptor>
prm/pocket_docking_2.prm

>  <SCORE>
-2.02483

>  <SCORE.INTER>
-3.42152

>  <SCORE.INTER.CONST>
1

>  <SCORE.INTER.POLAR>
0

>  <SCORE.INTER.ROT>
10

>  <SCORE.INTER.SOLV>
28.2141

>  <SCORE.INTER.VDW>
-21.9524

>  <SCORE.INTER.norm>
-0.100633

>  <SCORE.INTRA>
1.13068

>  <SCORE.INTRA.DIHEDRAL>
-1.54752

>  <SCORE.INTRA.DIHEDRAL.0>
12.2703

>  <SCORE.INTRA.POLAR>
0

>  <SCORE.INTRA.POLAR.0>
0

>  <SCORE.INTRA.REPUL>
0

>  <SCORE.INTRA.REPUL.0>
0

>  <SCORE.INTRA.SOLV>
0.915405

>  <SCORE.INTRA.SOLV.lig_0>
-64.3214

>  <SCORE.INTRA.VDW>
1.44674

>  <SCORE.INTRA.VDW.0>
-1.67301

>  <SCORE.INTRA.norm>
0.0332554

>  <SCORE.RESTR>
0.266007

>  <SCORE.RESTR.CAVITY>
0.266007

>  <SCORE.RESTR.norm>
0.00782372

>  <SCORE.SYSTEM>
0

>  <SCORE.SYSTEM.CONST>
0

>  <SCORE.SYSTEM.DIHEDRAL>
0

>  <SCORE.SYSTEM.SOLV>
0

>  <SCORE.SYSTEM.norm>
0

>  <SCORE.heavy>
34

>  <SCORE.norm>
-0.0595539

>  <RMSD>
2.477

$$$$
ligand
 OpenBabel11021811483D
libRbt.so/2013.1/901 2013/11/27
 34 36  0  0  0  0  0  0  0  0999 V2000
    4.5740   42.5294   75.0491 N   0  0  0  0  0  0  0  0  0  0  0  0
    3.9576   42.3587   76.3854 C   0  0  1  0  0  0  0  0  0  0  0  0
    5.8870   42.4115   74.8119 C   0  0  0  0  0  0  0  0  0  0  0  0
    6.7287   42.1502   75.6758 O   0  0  0  0  0  0  0  0  0  0  0  0
   13.2493   43.8411   64.3002 N   0  0  0  0  0  0  0  0  0  0  0  0
    4.5459   41.1162   77.0747 C   0  0  0  0  0  0  0  0  0  0  0  0
    3.7336   39.8542   76.7538 C   0  0  0  0  0  0  0  0  0  0  0  0
    2.2983   39.9653   77.2903 C   0  0  0  0  0  0  0  0  0  0  0  0
    1.4389   40.4640   76.5263 O   0  0  0  0  0  0  0  0  0  0  0  0
    2.0914   39.5463   78.4524 O   0  0  0  0  0  0  0  0  0  0  0  0
   11.7311   42.7201   65.6406 N   0  0  0  0  0  0  0  0  0  0  0  0
    3.4533   44.6072   77.0470 O   0  0  0  0  0  0  0  0  0  0  0  0
   12.7067   43.6339   65.4973 C   0  0  0  0  0  0  0  0  0  0  0  0
    5.0350   43.5081   78.1779 O   0  0  0  0  0  0  0  0  0  0  0  0
   13.1609   44.3737   66.5964 N   0  0  0  0  0  0  0  0  0  0  0  0
   12.5839   44.1525   67.8397 C   0  0  0  0  0  0  0  0  0  0  0  0
   11.5564   43.2245   67.9470 C   0  0  0  0  0  0  0  0  0  0  0  0
   12.9582   44.7962   68.8168 O   0  0  0  0  0  0  0  0  0  0  0  0
   11.7606   42.9677   70.2697 C   0  0  0  0  0  0  0  0  0  0  0  0
   10.9962   42.9205   69.1828 N   0  0  0  0  0  0  0  0  0  0  0  0
   12.4806   42.0173   70.5674 O   0  0  0  0  0  0  0  0  0  0  0  0
    9.6403   42.3639   69.2463 C   0  0  2  0  0  0  0  0  0  0  0  0
    9.5425   41.1948   68.2629 C   0  0  0  0  0  0  0  0  0  0  0  0
   11.1624   42.4935   66.8345 C   0  0  0  0  0  0  0  0  0  0  0  0
   10.1573   41.5274   66.9541 N   0  0  0  0  0  0  0  0  0  0  0  0
    8.6029   43.4366   68.8978 C   0  0  0  0  0  0  0  0  0  0  0  0
    7.2732   43.0010   69.3420 N   0  0  0  0  0  0  0  0  0  0  0  0
    6.2897   42.5802   73.3357 C   0  0  0  0  0  0  0  0  0  0  0  0
    6.6745   41.4777   72.5766 C   0  0  0  0  0  0  0  0  0  0  0  0
    6.9850   41.6235   71.2260 C   0  0  0  0  0  0  0  0  0  0  0  0
    6.9578   42.8804   70.6311 C   0  0  0  0  0  0  0  0  0  0  0  0
    6.5824   43.9838   71.3899 C   0  0  0  0  0  0  0  0  0  0  0  0
    6.2371   43.8335   72.7323 C   0  0  0  0  0  0  0  0  0  0  0  0
    4.1633   43.5989   77.2794 C   0  0  0  0  0  0  0  0  0  0  0  0
  1  3  1  0  0  0  0
  2  1  1  6  0  0  0
  2  6  1  0  0  0  0
  2 34  1  0  0  0  0
  3  4  2  0  0  0  0
  3 28  1  0  0  0  0
  5 13  1  0  0  0  0
  6  7  1  0  0  0  0
  7  8  1  0  0  0  0
  8  9  1  0  0  0  0
  8 10  1  0  0  0  0
 11 13  2  0  0  0  0
 11 24  1  0  0  0  0
 12 34  1  0  0  0  0
 13 15  1  0  0  0  0
 14 34  1  0  0  0  0
 15 16  1  0  0  0  0
 16 17  1  0  0  0  0
 16 18  2  0  0  0  0
 17 20  1  0  0  0  0
 17 24  2  0  0  0  0
 19 21  1  0  0  0  0
 19 20  1  0  0  0  0
 20 22  1  0  0  0  0
 22 23  1  0  0  0  0
 22 26  1  6  0  0  0
 23 25  1  0  0  0  0
 24 25  1  0  0  0  0
 26 27  1  0  0  0  0
 27 31  1  0  0  0  0
 28 29  2  0  0  0  0
 28 33  1  0  0  0  0
 29 30  1  0  0  0  0
 30 31  2  0  0  0  0
 31 32  1  0  0  0  0
 32 33  2  0  0  0  0
M  END
>  <CHROM.1>
-44.70421582,-90.12677307,76.07824076,-63.06717135,89.85549018,-82.45392253
-163.32118346,67.63571252,-99.19400463,-106.72277850,7.82549362,42.54939660
71.83231948,-2.48755853,-0.62544321,-2.06211370

>  <Name>
ligand

>  <RI>
0

>  <Rbt.Current_Directory>
/home/itssahil/PROJECTS/Mol_Feturizer/New_Systems/rnas/3SUH

>  <Rbt.Executable>
rbdock ($Id: //depot/dev/client3/rdock/2013.1/src/exe/rbdock.cxx#4 $)

>  <Rbt.Library>
libRbt.so (2013.1, Build901 2013/11/27)

>  <Rbt.Parameter_File>
/export/apps/rDock/src/rDock_2013.1_src/data/scripts/dock_solv.prm

>  <Rbt.Receptor>
prm/pocket_docking_2.prm

>  <SCORE>
-9.00748

>  <SCORE.INTER>
-8.1954

>  <SCORE.INTER.CONST>
1

>  <SCORE.INTER.POLAR>
0

>  <SCORE.INTER.ROT>
10

>  <SCORE.INTER.SOLV>
31.9653

>  <SCORE.INTER.VDW>
-26.3854

>  <SCORE.INTER.norm>
-0.241041

>  <SCORE.INTRA>
-1.52378

>  <SCORE.INTRA.DIHEDRAL>
-2.0032

>  <SCORE.INTRA.DIHEDRAL.0>
12.2703

>  <SCORE.INTRA.POLAR>
0

>  <SCORE.INTRA.POLAR.0>
0

>  <SCORE.INTRA.REPUL>
0

>  <SCORE.INTRA.REPUL.0>
0

>  <SCORE.INTRA.SOLV>
-0.614889

>  <SCORE.INTRA.SOLV.lig_0>
-64.3214

>  <SCORE.INTRA.VDW>
-0.214735

>  <SCORE.INTRA.VDW.0>
-1.67301

>  <SCORE.INTRA.norm>
-0.044817

>  <SCORE.RESTR>
0.7117

>  <SCORE.RESTR.CAVITY>
0.7117

>  <SCORE.RESTR.norm>
0.0209323

>  <SCORE.SYSTEM>
0

>  <SCORE.SYSTEM.CONST>
0

>  <SCORE.SYSTEM.DIHEDRAL>
0

>  <SCORE.SYSTEM.SOLV>
0

>  <SCORE.SYSTEM.norm>
0

>  <SCORE.heavy>
34

>  <SCORE.norm>
-0.264926

>  <RMSD>
2.523

$$$$
ligand
 OpenBabel11021811483D
libRbt.so/2013.1/901 2013/11/27
 34 36  0  0  0  0  0  0  0  0999 V2000
    5.9643   41.3290   76.3591 N   0  0  0  0  0  0  0  0  0  0  0  0
    5.7362   41.1613   77.8133 C   0  0  1  0  0  0  0  0  0  0  0  0
    5.7094   42.4602   75.6888 C   0  0  0  0  0  0  0  0  0  0  0  0
    5.2560   43.4861   76.2038 O   0  0  0  0  0  0  0  0  0  0  0  0
   12.5983   43.8008   64.7718 N   0  0  0  0  0  0  0  0  0  0  0  0
    4.2567   40.8313   78.0731 C   0  0  0  0  0  0  0  0  0  0  0  0
    3.3454   42.0195   77.7370 C   0  0  0  0  0  0  0  0  0  0  0  0
    1.8645   41.6541   77.9204 C   0  0  0  0  0  0  0  0  0  0  0  0
    1.4564   41.4918   79.0944 O   0  0  0  0  0  0  0  0  0  0  0  0
    1.1721   41.5475   76.8821 O   0  0  0  0  0  0  0  0  0  0  0  0
   11.3209   42.5328   66.2274 N   0  0  0  0  0  0  0  0  0  0  0  0
    6.5493   38.9085   77.9198 O   0  0  0  0  0  0  0  0  0  0  0  0
   12.1785   43.5447   66.0081 C   0  0  0  0  0  0  0  0  0  0  0  0
    7.3784   40.3949   79.3661 O   0  0  0  0  0  0  0  0  0  0  0  0
   12.6371   44.3361   67.0688 N   0  0  0  0  0  0  0  0  0  0  0  0
   12.1884   44.0626   68.3539 C   0  0  0  0  0  0  0  0  0  0  0  0
   11.2781   43.0308   68.5414 C   0  0  0  0  0  0  0  0  0  0  0  0
   12.5685   44.7491   69.2991 O   0  0  0  0  0  0  0  0  0  0  0  0
   11.6935   42.8127   70.8397 C   0  0  0  0  0  0  0  0  0  0  0  0
   10.8542   42.6768   69.8175 N   0  0  0  0  0  0  0  0  0  0  0  0
   12.5370   41.9498   71.0729 O   0  0  0  0  0  0  0  0  0  0  0  0
    9.5752   41.9788   69.9884 C   0  0  2  0  0  0  0  0  0  0  0  0
    9.5249   40.7995   69.0136 C   0  0  0  0  0  0  0  0  0  0  0  0
   10.8770   42.2546   67.4625 C   0  0  0  0  0  0  0  0  0  0  0  0
    9.9940   41.1873   67.6605 N   0  0  0  0  0  0  0  0  0  0  0  0
    8.4043   42.9322   69.7263 C   0  0  0  0  0  0  0  0  0  0  0  0
    7.1562   42.3251   70.2046 N   0  0  0  0  0  0  0  0  0  0  0  0
    6.0746   42.4162   74.1940 C   0  0  0  0  0  0  0  0  0  0  0  0
    6.1405   43.5896   73.4466 C   0  0  0  0  0  0  0  0  0  0  0  0
    6.5254   43.5539   72.1079 C   0  0  0  0  0  0  0  0  0  0  0  0
    6.8048   42.3396   71.4900 C   0  0  0  0  0  0  0  0  0  0  0  0
    6.7308   41.1659   72.2324 C   0  0  0  0  0  0  0  0  0  0  0  0
    6.3804   41.2043   73.5813 C   0  0  0  0  0  0  0  0  0  0  0  0
    6.6312   40.0584   78.4153 C   0  0  0  0  0  0  0  0  0  0  0  0
  1  3  1  0  0  0  0
  2  1  1  6  0  0  0
  2  6  1  0  0  0  0
  2 34  1  0  0  0  0
  3  4  2  0  0  0  0
  3 28  1  0  0  0  0
  5 13  1  0  0  0  0
  6  7  1  0  0  0  0
  7  8  1  0  0  0  0
  8  9  1  0  0  0  0
  8 10  1  0  0  0  0
 11 13  2  0  0  0  0
 11 24  1  0  0  0  0
 12 34  1  0  0  0  0
 13 15  1  0  0  0  0
 14 34  1  0  0  0  0
 15 16  1  0  0  0  0
 16 17  1  0  0  0  0
 16 18  2  0  0  0  0
 17 20  1  0  0  0  0
 17 24  2  0  0  0  0
 19 21  1  0  0  0  0
 19 20  1  0  0  0  0
 20 22  1  0  0  0  0
 22 23  1  0  0  0  0
 22 26  1  6  0  0  0
 23 25  1  0  0  0  0
 24 25  1  0  0  0  0
 26 27  1  0  0  0  0
 27 31  1  0  0  0  0
 28 29  2  0  0  0  0
 28 33  1  0  0  0  0
 29 30  1  0  0  0  0
 30 31  2  0  0  0  0
 31 32  1  0  0  0  0
 32 33  2  0  0  0  0
M  END
>  <CHROM.1>
82.21261491,-67.44444590,-57.01323065,176.65342416,70.46912476,-82.09968661
-166.61010129,80.12668633,65.31603643,-165.91011071,7.90222237,42.17195034
72.59095908,-2.20849218,0.13393328,-1.29269617

>  <Name>
ligand

>  <RI>
0

>  <Rbt.Current_Directory>
/home/itssahil/PROJECTS/Mol_Feturizer/New_Systems/rnas/3SUH

>  <Rbt.Executable>
rbdock ($Id: //depot/dev/client3/rdock/2013.1/src/exe/rbdock.cxx#4 $)

>  <Rbt.Library>
libRbt.so (2013.1, Build901 2013/11/27)

>  <Rbt.Parameter_File>
/export/apps/rDock/src/rDock_2013.1_src/data/scripts/dock_solv.prm

>  <Rbt.Receptor>
prm/pocket_docking_2.prm

>  <SCORE>
-9.91084

>  <SCORE.INTER>
-6.56779

>  <SCORE.INTER.CONST>
1

>  <SCORE.INTER.POLAR>
0

>  <SCORE.INTER.ROT>
10

>  <SCORE.INTER.SOLV>
27.0806

>  <SCORE.INTER.VDW>
-23.6721

>  <SCORE.INTER.norm>
-0.19317

>  <SCORE.INTRA>
-3.48149

>  <SCORE.INTRA.DIHEDRAL>
-4.53212

>  <SCORE.INTRA.DIHEDRAL.0>
12.2703

>  <SCORE.INTRA.POLAR>
0

>  <SCORE.INTRA.POLAR.0>
0

>  <SCORE.INTRA.REPUL>
0

>  <SCORE.INTRA.REPUL.0>
0

>  <SCORE.INTRA.SOLV>
-0.705022

>  <SCORE.INTRA.SOLV.lig_0>
-64.3214

>  <SCORE.INTRA.VDW>
-0.862914

>  <SCORE.INTRA.VDW.0>
-1.67301

>  <SCORE.INTRA.norm>
-0.102397

>  <SCORE.RESTR>
0.138439

>  <SCORE.RESTR.CAVITY>
0.138439

>  <SCORE.RESTR.norm>
0.00407173

>  <SCORE.SYSTEM>
0

>  <SCORE.SYSTEM.CONST>
0

>  <SCORE.SYSTEM.DIHEDRAL>
0

>  <SCORE.SYSTEM.SOLV>
0

>  <SCORE.SYSTEM.norm>
0

>  <SCORE.heavy>
34

>  <SCORE.norm>
-0.291495

>  <RMSD>
2.538

$$$$
ligand
 OpenBabel11021811483D
libRbt.so/2013.1/901 2013/11/27
 34 36  0  0  0  0  0  0  0  0999 V2000
    5.6241   42.0039   76.0953 N   0  0  0  0  0  0  0  0  0  0  0  0
    5.1888   41.7210   77.4828 C   0  0  1  0  0  0  0  0  0  0  0  0
    5.9201   41.0550   75.1974 C   0  0  0  0  0  0  0  0  0  0  0  0
    5.8657   39.8429   75.4235 O   0  0  0  0  0  0  0  0  0  0  0  0
   12.8128   43.8807   64.6876 N   0  0  0  0  0  0  0  0  0  0  0  0
    5.0698   43.0374   78.2691 C   0  0  0  0  0  0  0  0  0  0  0  0
    4.1067   44.0181   77.5865 C   0  0  0  0  0  0  0  0  0  0  0  0
    4.6963   44.5531   76.2726 C   0  0  0  0  0  0  0  0  0  0  0  0
    5.9446   44.6406   76.1995 O   0  0  0  0  0  0  0  0  0  0  0  0
    3.8855   44.8606   75.3688 O   0  0  0  0  0  0  0  0  0  0  0  0
   11.3491   42.7603   66.0879 N   0  0  0  0  0  0  0  0  0  0  0  0
    3.6144   40.2435   78.5249 O   0  0  0  0  0  0  0  0  0  0  0  0
   12.3647   43.6239   65.9138 C   0  0  0  0  0  0  0  0  0  0  0  0
    3.0775   41.1243   76.5438 O   0  0  0  0  0  0  0  0  0  0  0  0
   12.9591   44.2594   67.0112 N   0  0  0  0  0  0  0  0  0  0  0  0
   12.4800   43.9875   68.2856 C   0  0  0  0  0  0  0  0  0  0  0  0
   11.4088   43.1153   68.4277 C   0  0  0  0  0  0  0  0  0  0  0  0
   12.9783   44.5403   69.2629 O   0  0  0  0  0  0  0  0  0  0  0  0
   11.7981   42.6891   70.7013 C   0  0  0  0  0  0  0  0  0  0  0  0
   10.9404   42.7604   69.6879 N   0  0  0  0  0  0  0  0  0  0  0  0
   11.6992   41.7966   71.5403 O   0  0  0  0  0  0  0  0  0  0  0  0
    9.5626   42.2800   69.8398 C   0  0  2  0  0  0  0  0  0  0  0  0
    9.3051   41.1884   68.7979 C   0  0  0  0  0  0  0  0  0  0  0  0
   10.8735   42.4859   67.3120 C   0  0  0  0  0  0  0  0  0  0  0  0
    9.8233   41.5736   67.4620 N   0  0  0  0  0  0  0  0  0  0  0  0
    8.5691   43.4322   69.6555 C   0  0  0  0  0  0  0  0  0  0  0  0
    7.2199   42.9850   70.0231 N   0  0  0  0  0  0  0  0  0  0  0  0
    6.2989   41.5869   73.8034 C   0  0  0  0  0  0  0  0  0  0  0  0
    6.7433   40.7170   72.8106 C   0  0  0  0  0  0  0  0  0  0  0  0
    7.0326   41.1918   71.5329 C   0  0  0  0  0  0  0  0  0  0  0  0
    6.9238   42.5485   71.2469 C   0  0  0  0  0  0  0  0  0  0  0  0
    6.4886   43.4200   72.2396 C   0  0  0  0  0  0  0  0  0  0  0  0
    6.1649   42.9406   73.5081 C   0  0  0  0  0  0  0  0  0  0  0  0
    3.8451   40.9643   77.5240 C   0  0  0  0  0  0  0  0  0  0  0  0
  1  3  1  0  0  0  0
  2  1  1  6  0  0  0
  2  6  1  0  0  0  0
  2 34  1  0  0  0  0
  3  4  2  0  0  0  0
  3 28  1  0  0  0  0
  5 13  1  0  0  0  0
  6  7  1  0  0  0  0
  7  8  1  0  0  0  0
  8  9  1  0  0  0  0
  8 10  1  0  0  0  0
 11 13  2  0  0  0  0
 11 24  1  0  0  0  0
 12 34  1  0  0  0  0
 13 15  1  0  0  0  0
 14 34  1  0  0  0  0
 15 16  1  0  0  0  0
 16 17  1  0  0  0  0
 16 18  2  0  0  0  0
 17 20  1  0  0  0  0
 17 24  2  0  0  0  0
 19 21  1  0  0  0  0
 19 20  1  0  0  0  0
 20 22  1  0  0  0  0
 22 23  1  0  0  0  0
 22 26  1  6  0  0  0
 23 25  1  0  0  0  0
 24 25  1  0  0  0  0
 26 27  1  0  0  0  0
 27 31  1  0  0  0  0
 28 29  2  0  0  0  0
 28 33  1  0  0  0  0
 29 30  1  0  0  0  0
 30 31  2  0  0  0  0
 31 32  1  0  0  0  0
 32 33  2  0  0  0  0
M  END
>  <CHROM.1>
174.46972882,56.83392144,153.78758601,-69.59493365,-29.81052668,-140.89911005
-170.88153291,60.47687039,-91.13748663,174.28204750,7.99524388,42.58729356
72.15321698,2.81036619,0.86916696,0.52943240

>  <Name>
ligand

>  <RI>
0

>  <Rbt.Current_Directory>
/home/itssahil/PROJECTS/Mol_Feturizer/New_Systems/rnas/3SUH

>  <Rbt.Executable>
rbdock ($Id: //depot/dev/client3/rdock/2013.1/src/exe/rbdock.cxx#4 $)

>  <Rbt.Library>
libRbt.so (2013.1, Build901 2013/11/27)

>  <Rbt.Parameter_File>
/export/apps/rDock/src/rDock_2013.1_src/data/scripts/dock_solv.prm

>  <Rbt.Receptor>
prm/pocket_docking_2.prm

>  <SCORE>
-10.9015

>  <SCORE.INTER>
-8.67737

>  <SCORE.INTER.CONST>
1

>  <SCORE.INTER.POLAR>
0

>  <SCORE.INTER.ROT>
10

>  <SCORE.INTER.SOLV>
27.1601

>  <SCORE.INTER.VDW>
-25.1049

>  <SCORE.INTER.norm>
-0.255217

>  <SCORE.INTRA>
-3.5901

>  <SCORE.INTRA.DIHEDRAL>
-4.84881

>  <SCORE.INTRA.DIHEDRAL.0>
12.2703

>  <SCORE.INTRA.POLAR>
0

>  <SCORE.INTRA.POLAR.0>
0

>  <SCORE.INTRA.REPUL>
0

>  <SCORE.INTRA.REPUL.0>
0

>  <SCORE.INTRA.SOLV>
-0.477305

>  <SCORE.INTRA.SOLV.lig_0>
-64.3214

>  <SCORE.INTRA.VDW>
-0.927048

>  <SCORE.INTRA.VDW.0>
-1.67301

>  <SCORE.INTRA.norm>
-0.105591

>  <SCORE.RESTR>
1.36602

>  <SCORE.RESTR.CAVITY>
1.36602

>  <SCORE.RESTR.norm>
0.040177

>  <SCORE.SYSTEM>
0

>  <SCORE.SYSTEM.CONST>
0

>  <SCORE.SYSTEM.DIHEDRAL>
0

>  <SCORE.SYSTEM.SOLV>
0

>  <SCORE.SYSTEM.norm>
0

>  <SCORE.heavy>
34

>  <SCORE.norm>
-0.320631

>  <RMSD>
2.548

$$$$
ligand
 OpenBabel11021811483D
libRbt.so/2013.1/901 2013/11/27
 34 36  0  0  0  0  0  0  0  0999 V2000
    6.0489   41.8637   76.3084 N   0  0  0  0  0  0  0  0  0  0  0  0
    5.7714   41.4625   77.7073 C   0  0  1  0  0  0  0  0  0  0  0  0
    5.8380   41.0721   75.2487 C   0  0  0  0  0  0  0  0  0  0  0  0
    5.3922   39.9232   75.3171 O   0  0  0  0  0  0  0  0  0  0  0  0
   12.5642   44.0662   64.7685 N   0  0  0  0  0  0  0  0  0  0  0  0
    4.2798   41.6670   78.0209 C   0  0  0  0  0  0  0  0  0  0  0  0
    3.3913   40.7645   77.1541 C   0  0  0  0  0  0  0  0  0  0  0  0
    1.9043   41.1005   77.3435 C   0  0  0  0  0  0  0  0  0  0  0  0
    1.3871   41.8917   76.5202 O   0  0  0  0  0  0  0  0  0  0  0  0
    1.3163   40.5565   78.3064 O   0  0  0  0  0  0  0  0  0  0  0  0
   10.9974   43.0447   66.1324 N   0  0  0  0  0  0  0  0  0  0  0  0
    5.6174   39.4147   78.9445 O   0  0  0  0  0  0  0  0  0  0  0  0
   12.1249   43.7624   65.9872 C   0  0  0  0  0  0  0  0  0  0  0  0
    7.0156   39.4890   77.2043 O   0  0  0  0  0  0  0  0  0  0  0  0
   12.8456   44.1963   67.1070 N   0  0  0  0  0  0  0  0  0  0  0  0
   12.3750   43.8776   68.3737 C   0  0  0  0  0  0  0  0  0  0  0  0
   11.1902   43.1625   68.4890 C   0  0  0  0  0  0  0  0  0  0  0  0
   12.9842   44.2556   69.3712 O   0  0  0  0  0  0  0  0  0  0  0  0
   11.5888   42.4692   70.6942 C   0  0  0  0  0  0  0  0  0  0  0  0
   10.7172   42.7619   69.7336 N   0  0  0  0  0  0  0  0  0  0  0  0
   11.5405   41.3850   71.2707 O   0  0  0  0  0  0  0  0  0  0  0  0
    9.2888   42.4767   69.9083 C   0  0  2  0  0  0  0  0  0  0  0  0
    8.8342   41.5390   68.7869 C   0  0  0  0  0  0  0  0  0  0  0  0
   10.5282   42.7278   67.3487 C   0  0  0  0  0  0  0  0  0  0  0  0
    9.3583   41.9694   67.4672 N   0  0  0  0  0  0  0  0  0  0  0  0
    8.4745   43.7746   69.8754 C   0  0  0  0  0  0  0  0  0  0  0  0
    7.0891   43.4990   70.2755 N   0  0  0  0  0  0  0  0  0  0  0  0
    6.1511   41.7231   73.8894 C   0  0  0  0  0  0  0  0  0  0  0  0
    6.0306   43.1002   73.7196 C   0  0  0  0  0  0  0  0  0  0  0  0
    6.3678   43.6946   72.5052 C   0  0  0  0  0  0  0  0  0  0  0  0
    6.7861   42.9131   71.4334 C   0  0  0  0  0  0  0  0  0  0  0  0
    6.8985   41.5367   71.5984 C   0  0  0  0  0  0  0  0  0  0  0  0
    6.5954   40.9452   72.8240 C   0  0  0  0  0  0  0  0  0  0  0  0
    6.1658   39.9957   77.9769 C   0  0  0  0  0  0  0  0  0  0  0  0
  1  3  1  0  0  0  0
  2  1  1  6  0  0  0
  2  6  1  0  0  0  0
  2 34  1  0  0  0  0
  3  4  2  0  0  0  0
  3 28  1  0  0  0  0
  5 13  1  0  0  0  0
  6  7  1  0  0  0  0
  7  8  1  0  0  0  0
  8  9  1  0  0  0  0
  8 10  1  0  0  0  0
 11 13  2  0  0  0  0
 11 24  1  0  0  0  0
 12 34  1  0  0  0  0
 13 15  1  0  0  0  0
 14 34  1  0  0  0  0
 15 16  1  0  0  0  0
 16 17  1  0  0  0  0
 16 18  2  0  0  0  0
 17 20  1  0  0  0  0
 17 24  2  0  0  0  0
 19 21  1  0  0  0  0
 19 20  1  0  0  0  0
 20 22  1  0  0  0  0
 22 23  1  0  0  0  0
 22 26  1  6  0  0  0
 23 25  1  0  0  0  0
 24 25  1  0  0  0  0
 26 27  1  0  0  0  0
 27 31  1  0  0  0  0
 28 29  2  0  0  0  0
 28 33  1  0  0  0  0
 29 30  1  0  0  0  0
 30 31  2  0  0  0  0
 31 32  1  0  0  0  0
 32 33  2  0  0  0  0
M  END
>  <CHROM.1>
-82.54379446,63.51979580,-157.99180802,-172.75961758,95.07336295,-125.81078250
-170.48030828,55.59477349,99.86629059,-28.81160743,7.77915295,42.07767338
72.37933246,-2.21388115,0.11561832,-1.22932585

>  <Name>
ligand

>  <RI>
0

>  <Rbt.Current_Directory>
/home/itssahil/PROJECTS/Mol_Feturizer/New_Systems/rnas/3SUH

>  <Rbt.Executable>
rbdock ($Id: //depot/dev/client3/rdock/2013.1/src/exe/rbdock.cxx#4 $)

>  <Rbt.Library>
libRbt.so (2013.1, Build901 2013/11/27)

>  <Rbt.Parameter_File>
/export/apps/rDock/src/rDock_2013.1_src/data/scripts/dock_solv.prm

>  <Rbt.Receptor>
prm/pocket_docking_2.prm

>  <SCORE>
-9.15015

>  <SCORE.INTER>
-8.32149

>  <SCORE.INTER.CONST>
1

>  <SCORE.INTER.POLAR>
0

>  <SCORE.INTER.ROT>
10

>  <SCORE.INTER.SOLV>
26.5523

>  <SCORE.INTER.VDW>
-24.6651

>  <SCORE.INTER.norm>
-0.24475

>  <SCORE.INTRA>
-1.4352

>  <SCORE.INTRA.DIHEDRAL>
-4.67474

>  <SCORE.INTRA.DIHEDRAL.0>
12.2703

>  <SCORE.INTRA.POLAR>
0

>  <SCORE.INTRA.POLAR.0>
0

>  <SCORE.INTRA.REPUL>
0

>  <SCORE.INTRA.REPUL.0>
0

>  <SCORE.INTRA.SOLV>
-0.210132

>  <SCORE.INTRA.SOLV.lig_0>
-64.3214

>  <SCORE.INTRA.VDW>
1.00724

>  <SCORE.INTRA.VDW.0>
-1.67301

>  <SCORE.INTRA.norm>
-0.0422117

>  <SCORE.RESTR>
0.606534

>  <SCORE.RESTR.CAVITY>
0.606534

>  <SCORE.RESTR.norm>
0.0178392

>  <SCORE.SYSTEM>
0

>  <SCORE.SYSTEM.CONST>
0

>  <SCORE.SYSTEM.DIHEDRAL>
0

>  <SCORE.SYSTEM.SOLV>
0

>  <SCORE.SYSTEM.norm>
0

>  <SCORE.heavy>
34

>  <SCORE.norm>
-0.269122

>  <RMSD>
2.586

$$$$
ligand
 OpenBabel11021811483D
libRbt.so/2013.1/901 2013/11/27
 34 36  0  0  0  0  0  0  0  0999 V2000
    5.7171   42.3249   75.7546 N   0  0  0  0  0  0  0  0  0  0  0  0
    5.1116   41.7299   76.9687 C   0  0  1  0  0  0  0  0  0  0  0  0
    5.8272   43.6431   75.5443 C   0  0  0  0  0  0  0  0  0  0  0  0
    5.4368   44.5078   76.3336 O   0  0  0  0  0  0  0  0  0  0  0  0
   12.7935   44.0861   64.7827 N   0  0  0  0  0  0  0  0  0  0  0  0
    3.6004   41.5393   76.7562 C   0  0  0  0  0  0  0  0  0  0  0  0
    2.9029   41.0764   78.0426 C   0  0  0  0  0  0  0  0  0  0  0  0
    1.3917   40.9058   77.8255 C   0  0  0  0  0  0  0  0  0  0  0  0
    0.9411   39.7362   77.8327 O   0  0  0  0  0  0  0  0  0  0  0  0
    0.7194   41.9495   77.6595 O   0  0  0  0  0  0  0  0  0  0  0  0
   10.9678   43.2586   65.9404 N   0  0  0  0  0  0  0  0  0  0  0  0
    5.7584   39.4767   76.4663 O   0  0  0  0  0  0  0  0  0  0  0  0
   12.1917   43.8148   65.9379 C   0  0  0  0  0  0  0  0  0  0  0  0
    6.2471   40.2843   78.4906 O   0  0  0  0  0  0  0  0  0  0  0  0
   12.8439   44.1135   67.1409 N   0  0  0  0  0  0  0  0  0  0  0  0
   12.2042   43.8305   68.3401 C   0  0  0  0  0  0  0  0  0  0  0  0
   10.9273   43.2858   68.3073 C   0  0  0  0  0  0  0  0  0  0  0  0
   12.7517   44.0928   69.4081 O   0  0  0  0  0  0  0  0  0  0  0  0
   10.9944   42.4854   70.5111 C   0  0  0  0  0  0  0  0  0  0  0  0
   10.2764   42.9227   69.4810 N   0  0  0  0  0  0  0  0  0  0  0  0
   11.4279   41.3355   70.5256 O   0  0  0  0  0  0  0  0  0  0  0  0
    8.8120   42.8361   69.5003 C   0  0  2  0  0  0  0  0  0  0  0  0
    8.3533   42.0014   68.3019 C   0  0  0  0  0  0  0  0  0  0  0  0
   10.3350   42.9785   67.0898 C   0  0  0  0  0  0  0  0  0  0  0  0
    9.0665   42.3888   67.0598 N   0  0  0  0  0  0  0  0  0  0  0  0
    8.1907   44.2357   69.4392 C   0  0  0  0  0  0  0  0  0  0  0  0
    8.4606   44.9513   70.6923 N   0  0  0  0  0  0  0  0  0  0  0  0
    6.5387   44.0263   74.2340 C   0  0  0  0  0  0  0  0  0  0  0  0
    7.9287   44.0026   74.1504 C   0  0  0  0  0  0  0  0  0  0  0  0
    8.5692   44.2958   72.9481 C   0  0  0  0  0  0  0  0  0  0  0  0
    7.8284   44.6597   71.8286 C   0  0  0  0  0  0  0  0  0  0  0  0
    6.4406   44.6925   71.9128 C   0  0  0  0  0  0  0  0  0  0  0  0
    5.7974   44.3648   73.1055 C   0  0  0  0  0  0  0  0  0  0  0  0
    5.7619   40.3804   77.3369 C   0  0  0  0  0  0  0  0  0  0  0  0
  1  3  1  0  0  0  0
  2  1  1  6  0  0  0
  2  6  1  0  0  0  0
  2 34  1  0  0  0  0
  3  4  2  0  0  0  0
  3 28  1  0  0  0  0
  5 13  1  0  0  0  0
  6  7  1  0  0  0  0
  7  8  1  0  0  0  0
  8  9  1  0  0  0  0
  8 10  1  0  0  0  0
 11 13  2  0  0  0  0
 11 24  1  0  0  0  0
 12 34  1  0  0  0  0
 13 15  1  0  0  0  0
 14 34  1  0  0  0  0
 15 16  1  0  0  0  0
 16 17  1  0  0  0  0
 16 18  2  0  0  0  0
 17 20  1  0  0  0  0
 17 24  2  0  0  0  0
 19 21  1  0  0  0  0
 19 20  1  0  0  0  0
 20 22  1  0  0  0  0
 22 23  1  0  0  0  0
 22 26  1  6  0  0  0
 23 25  1  0  0  0  0
 24 25  1  0  0  0  0
 26 27  1  0  0  0  0
 27 31  1  0  0  0  0
 28 29  2  0  0  0  0
 28 33  1  0  0  0  0
 29 30  1  0  0  0  0
 30 31  2  0  0  0  0
 31 32  1  0  0  0  0
 32 33  2  0  0  0  0
M  END
>  <CHROM.1>
89.44932758,-173.45174180,-56.64744698,179.28285895,110.04894813,-77.88532310
-68.80387890,-73.85693347,122.44996936,-79.92207072,7.68995826,42.76076717
72.31344995,-2.27525742,0.32909088,-1.08971018

>  <Name>
ligand

>  <RI>
0

>  <Rbt.Current_Directory>
/home/itssahil/PROJECTS/Mol_Feturizer/New_Systems/rnas/3SUH

>  <Rbt.Executable>
rbdock ($Id: //depot/dev/client3/rdock/2013.1/src/exe/rbdock.cxx#4 $)

>  <Rbt.Library>
libRbt.so (2013.1, Build901 2013/11/27)

>  <Rbt.Parameter_File>
/export/apps/rDock/src/rDock_2013.1_src/data/scripts/dock_solv.prm

>  <Rbt.Receptor>
prm/pocket_docking_3.prm

>  <SCORE>
-9.49152

>  <SCORE.INTER>
-4.69026

>  <SCORE.INTER.CONST>
1

>  <SCORE.INTER.POLAR>
0

>  <SCORE.INTER.ROT>
10

>  <SCORE.INTER.SOLV>
23.9984

>  <SCORE.INTER.VDW>
-21.393

>  <SCORE.INTER.norm>
-0.137949

>  <SCORE.INTRA>
-4.80126

>  <SCORE.INTRA.DIHEDRAL>
-5.02591

>  <SCORE.INTRA.DIHEDRAL.0>
12.2703

>  <SCORE.INTRA.POLAR>
0

>  <SCORE.INTRA.POLAR.0>
0

>  <SCORE.INTRA.REPUL>
0

>  <SCORE.INTRA.REPUL.0>
0

>  <SCORE.INTRA.SOLV>
-0.931303

>  <SCORE.INTRA.SOLV.lig_0>
-64.3214

>  <SCORE.INTRA.VDW>
-1.82266

>  <SCORE.INTRA.VDW.0>
-1.67301

>  <SCORE.INTRA.norm>
-0.141214

>  <SCORE.RESTR>
0

>  <SCORE.RESTR.CAVITY>
0

>  <SCORE.RESTR.norm>
0

>  <SCORE.SYSTEM>
0

>  <SCORE.SYSTEM.CONST>
0

>  <SCORE.SYSTEM.DIHEDRAL>
0

>  <SCORE.SYSTEM.SOLV>
0

>  <SCORE.SYSTEM.norm>
0

>  <SCORE.heavy>
34

>  <SCORE.norm>
-0.279162

>  <RMSD>
2.672

$$$$
ligand
 OpenBabel11021811483D
libRbt.so/2013.1/901 2013/11/27
 34 36  0  0  0  0  0  0  0  0999 V2000
    4.9204   42.2648   74.7591 N   0  0  0  0  0  0  0  0  0  0  0  0
    4.2507   42.0772   76.0673 C   0  0  1  0  0  0  0  0  0  0  0  0
    6.2465   42.1985   74.5828 C   0  0  0  0  0  0  0  0  0  0  0  0
    7.0576   41.9764   75.4862 O   0  0  0  0  0  0  0  0  0  0  0  0
   11.9598   46.7221   69.9050 N   0  0  0  0  0  0  0  0  0  0  0  0
    4.4842   40.6427   76.5702 C   0  0  0  0  0  0  0  0  0  0  0  0
    3.4161   40.2201   77.5879 C   0  0  0  0  0  0  0  0  0  0  0  0
    3.6621   40.8735   78.9564 C   0  0  0  0  0  0  0  0  0  0  0  0
    4.7996   40.7296   79.4629 O   0  0  0  0  0  0  0  0  0  0  0  0
    2.7075   41.5050   79.4650 O   0  0  0  0  0  0  0  0  0  0  0  0
   11.4356   44.7696   68.7775 N   0  0  0  0  0  0  0  0  0  0  0  0
    5.9254   42.9625   77.5368 O   0  0  0  0  0  0  0  0  0  0  0  0
   11.4719   45.4842   69.9156 C   0  0  0  0  0  0  0  0  0  0  0  0
    3.9305   43.9659   77.4905 O   0  0  0  0  0  0  0  0  0  0  0  0
   11.0006   44.9402   71.1171 N   0  0  0  0  0  0  0  0  0  0  0  0
   10.4892   43.6495   71.1151 C   0  0  0  0  0  0  0  0  0  0  0  0
   10.4365   42.9504   69.9164 C   0  0  0  0  0  0  0  0  0  0  0  0
   10.0605   43.1543   72.1544 O   0  0  0  0  0  0  0  0  0  0  0  0
   10.2262   40.8423   70.9232 C   0  0  0  0  0  0  0  0  0  0  0  0
    9.9967   41.6319   69.8784 N   0  0  0  0  0  0  0  0  0  0  0  0
   11.2871   40.9158   71.5393 O   0  0  0  0  0  0  0  0  0  0  0  0
    9.4715   41.0792   68.6250 C   0  0  2  0  0  0  0  0  0  0  0  0
   10.4587   41.3930   67.4979 C   0  0  0  0  0  0  0  0  0  0  0  0
   10.9448   43.5211   68.7573 C   0  0  0  0  0  0  0  0  0  0  0  0
   10.9313   42.7981   67.5594 N   0  0  0  0  0  0  0  0  0  0  0  0
    8.0978   41.6798   68.3076 C   0  0  0  0  0  0  0  0  0  0  0  0
    7.8506   42.8357   69.1783 N   0  0  0  0  0  0  0  0  0  0  0  0
    6.7093   42.3746   73.1252 C   0  0  0  0  0  0  0  0  0  0  0  0
    6.9019   41.2656   72.3049 C   0  0  0  0  0  0  0  0  0  0  0  0
    7.2669   41.4290   70.9701 C   0  0  0  0  0  0  0  0  0  0  0  0
    7.4871   42.7014   70.4533 C   0  0  0  0  0  0  0  0  0  0  0  0
    7.3039   43.8095   71.2735 C   0  0  0  0  0  0  0  0  0  0  0  0
    6.9042   43.6486   72.5994 C   0  0  0  0  0  0  0  0  0  0  0  0
    4.7481   43.0880   77.1212 C   0  0  0  0  0  0  0  0  0  0  0  0
  1  3  1  0  0  0  0
  2  1  1  6  0  0  0
  2  6  1  0  0  0  0
  2 34  1  0  0  0  0
  3  4  2  0  0  0  0
  3 28  1  0  0  0  0
  5 13  1  0  0  0  0
  6  7  1  0  0  0  0
  7  8  1  0  0  0  0
  8  9  1  0  0  0  0
  8 10  1  0  0  0  0
 11 13  2  0  0  0  0
 11 24  1  0  0  0  0
 12 34  1  0  0  0  0
 13 15  1  0  0  0  0
 14 34  1  0  0  0  0
 15 16  1  0  0  0  0
 16 17  1  0  0  0  0
 16 18  2  0  0  0  0
 17 20  1  0  0  0  0
 17 24  2  0  0  0  0
 19 21  1  0  0  0  0
 19 20  1  0  0  0  0
 20 22  1  0  0  0  0
 22 23  1  0  0  0  0
 22 26  1  6  0  0  0
 23 25  1  0  0  0  0
 24 25  1  0  0  0  0
 26 27  1  0  0  0  0
 27 31  1  0  0  0  0
 28 29  2  0  0  0  0
 28 33  1  0  0  0  0
 29 30  1  0  0  0  0
 30 31  2  0  0  0  0
 31 32  1  0  0  0  0
 32 33  2  0  0  0  0
M  END
>  <CHROM.1>
-64.04430929,-157.86464741,-69.14482600,-75.67699374,-53.15673356,-38.29652073
12.54885286,-77.45849807,-3.26591106,-93.08293765,7.75852864,42.50766024
72.79833144,2.61505645,0.82280497,0.84109709

>  <Name>
ligand

>  <RI>
0

>  <Rbt.Current_Directory>
/home/itssahil/PROJECTS/Mol_Feturizer/New_Systems/rnas/3SUH

>  <Rbt.Executable>
rbdock ($Id: //depot/dev/client3/rdock/2013.1/src/exe/rbdock.cxx#4 $)

>  <Rbt.Library>
libRbt.so (2013.1, Build901 2013/11/27)

>  <Rbt.Parameter_File>
/export/apps/rDock/src/rDock_2013.1_src/data/scripts/dock_solv.prm

>  <Rbt.Receptor>
prm/pocket_docking_2.prm

>  <SCORE>
-1.12498

>  <SCORE.INTER>
-2.99667

>  <SCORE.INTER.CONST>
1

>  <SCORE.INTER.POLAR>
0

>  <SCORE.INTER.ROT>
10

>  <SCORE.INTER.SOLV>
14.8238

>  <SCORE.INTER.VDW>
-17.2057

>  <SCORE.INTER.norm>
-0.0881374

>  <SCORE.INTRA>
1.02331

>  <SCORE.INTRA.DIHEDRAL>
1.95379

>  <SCORE.INTRA.DIHEDRAL.0>
12.2703

>  <SCORE.INTRA.POLAR>
0

>  <SCORE.INTRA.POLAR.0>
0

>  <SCORE.INTRA.REPUL>
0

>  <SCORE.INTRA.REPUL.0>
0

>  <SCORE.INTRA.SOLV>
2.7993

>  <SCORE.INTRA.SOLV.lig_0>
-64.3214

>  <SCORE.INTRA.VDW>
-1.35323

>  <SCORE.INTRA.VDW.0>
-1.67301

>  <SCORE.INTRA.norm>
0.0300975

>  <SCORE.RESTR>
0.84838

>  <SCORE.RESTR.CAVITY>
0.84838

>  <SCORE.RESTR.norm>
0.0249524

>  <SCORE.SYSTEM>
0

>  <SCORE.SYSTEM.CONST>
0

>  <SCORE.SYSTEM.DIHEDRAL>
0

>  <SCORE.SYSTEM.SOLV>
0

>  <SCORE.SYSTEM.norm>
0

>  <SCORE.heavy>
34

>  <SCORE.norm>
-0.0330876

>  <RMSD>
2.723

$$$$
ligand
 OpenBabel11021811483D
libRbt.so/2013.1/901 2013/11/27
 34 36  0  0  0  0  0  0  0  0999 V2000
    5.9016   41.5498   74.4877 N   0  0  0  0  0  0  0  0  0  0  0  0
    5.3612   41.1507   75.8081 C   0  0  1  0  0  0  0  0  0  0  0  0
    6.3418   42.7823   74.2026 C   0  0  0  0  0  0  0  0  0  0  0  0
    6.3456   43.7215   75.0032 O   0  0  0  0  0  0  0  0  0  0  0  0
   12.5275   45.9316   71.3537 N   0  0  0  0  0  0  0  0  0  0  0  0
    6.4080   41.4209   76.9018 C   0  0  0  0  0  0  0  0  0  0  0  0
    6.5455   40.2292   77.8590 C   0  0  0  0  0  0  0  0  0  0  0  0
    5.3570   40.1554   78.8296 C   0  0  0  0  0  0  0  0  0  0  0  0
    4.5064   39.2576   78.6254 O   0  0  0  0  0  0  0  0  0  0  0  0
    5.3264   40.9971   79.7566 O   0  0  0  0  0  0  0  0  0  0  0  0
   11.8559   44.6393   69.5545 N   0  0  0  0  0  0  0  0  0  0  0  0
    3.7118   42.8413   75.3968 O   0  0  0  0  0  0  0  0  0  0  0  0
   11.9275   44.8419   70.8816 C   0  0  0  0  0  0  0  0  0  0  0  0
    3.4175   41.4899   77.1507 O   0  0  0  0  0  0  0  0  0  0  0  0
   11.3760   43.9169   71.7770 N   0  0  0  0  0  0  0  0  0  0  0  0
   10.7480   42.7860   71.2728 C   0  0  0  0  0  0  0  0  0  0  0  0
   10.6633   42.6230   69.8963 C   0  0  0  0  0  0  0  0  0  0  0  0
   10.2478   41.9653   72.0379 O   0  0  0  0  0  0  0  0  0  0  0  0
   10.2327   40.3193   69.9937 C   0  0  0  0  0  0  0  0  0  0  0  0
   10.1050   41.4741   69.3472 N   0  0  0  0  0  0  0  0  0  0  0  0
    9.2789   39.5505   70.0912 O   0  0  0  0  0  0  0  0  0  0  0  0
    9.5649   41.5115   67.9837 C   0  0  2  0  0  0  0  0  0  0  0  0
   10.6066   42.1476   67.0598 C   0  0  0  0  0  0  0  0  0  0  0  0
   11.2529   43.5522   69.0499 C   0  0  0  0  0  0  0  0  0  0  0  0
   11.2049   43.3633   67.6643 N   0  0  0  0  0  0  0  0  0  0  0  0
    8.2613   42.3164   67.9447 C   0  0  0  0  0  0  0  0  0  0  0  0
    8.3252   43.4082   68.9241 N   0  0  0  0  0  0  0  0  0  0  0  0
    6.9070   42.9484   72.7803 C   0  0  0  0  0  0  0  0  0  0  0  0
    6.8918   41.8827   71.8837 C   0  0  0  0  0  0  0  0  0  0  0  0
    7.3526   42.0502   70.5794 C   0  0  0  0  0  0  0  0  0  0  0  0
    7.8753   43.2727   70.1711 C   0  0  0  0  0  0  0  0  0  0  0  0
    7.8995   44.3355   71.0679 C   0  0  0  0  0  0  0  0  0  0  0  0
    7.4059   44.1789   72.3623 C   0  0  0  0  0  0  0  0  0  0  0  0
    4.0508   41.8921   76.1442 C   0  0  0  0  0  0  0  0  0  0  0  0
  1  3  1  0  0  0  0
  2  1  1  6  0  0  0
  2  6  1  0  0  0  0
  2 34  1  0  0  0  0
  3  4  2  0  0  0  0
  3 28  1  0  0  0  0
  5 13  1  0  0  0  0
  6  7  1  0  0  0  0
  7  8  1  0  0  0  0
  8  9  1  0  0  0  0
  8 10  1  0  0  0  0
 11 13  2  0  0  0  0
 11 24  1  0  0  0  0
 12 34  1  0  0  0  0
 13 15  1  0  0  0  0
 14 34  1  0  0  0  0
 15 16  1  0  0  0  0
 16 17  1  0  0  0  0
 16 18  2  0  0  0  0
 17 20  1  0  0  0  0
 17 24  2  0  0  0  0
 19 21  1  0  0  0  0
 19 20  1  0  0  0  0
 20 22  1  0  0  0  0
 22 23  1  0  0  0  0
 22 26  1  1  0  0  0
 23 25  1  0  0  0  0
 24 25  1  0  0  0  0
 26 27  1  0  0  0  0
 27 31  1  0  0  0  0
 28 29  2  0  0  0  0
 28 33  1  0  0  0  0
 29 30  1  0  0  0  0
 30 31  2  0  0  0  0
 31 32  1  0  0  0  0
 32 33  2  0  0  0  0
M  END
>  <CHROM.1>
-57.25558452,-134.00920172,-9.82816325,-75.36008362,105.98807779,136.96111629
33.56476198,-92.17334441,1.48579466,2.28133695,8.05736031,42.31469282,72.57061906
2.34636290,0.66017164,1.25470351

>  <Name>
ligand

>  <RI>
0

>  <Rbt.Current_Directory>
/home/itssahil/PROJECTS/Mol_Feturizer/New_Systems/rnas/3SUH

>  <Rbt.Executable>
rbdock ($Id: //depot/dev/client3/rdock/2013.1/src/exe/rbdock.cxx#4 $)

>  <Rbt.Library>
libRbt.so (2013.1, Build901 2013/11/27)

>  <Rbt.Parameter_File>
/export/apps/rDock/src/rDock_2013.1_src/data/scripts/dock_solv.prm

>  <Rbt.Receptor>
prm/pocket_docking_2.prm

>  <SCORE>
-3.50021

>  <SCORE.INTER>
-4.38432

>  <SCORE.INTER.CONST>
1

>  <SCORE.INTER.POLAR>
0

>  <SCORE.INTER.ROT>
10

>  <SCORE.INTER.SOLV>
13.0494

>  <SCORE.INTER.VDW>
-17.5394

>  <SCORE.INTER.norm>
-0.12895

>  <SCORE.INTRA>
0.35973

>  <SCORE.INTRA.DIHEDRAL>
2.77091

>  <SCORE.INTRA.DIHEDRAL.0>
12.2703

>  <SCORE.INTRA.POLAR>
0

>  <SCORE.INTRA.POLAR.0>
0

>  <SCORE.INTRA.REPUL>
0

>  <SCORE.INTRA.REPUL.0>
0

>  <SCORE.INTRA.SOLV>
3.02023

>  <SCORE.INTRA.SOLV.lig_0>
-64.3214

>  <SCORE.INTRA.VDW>
-2.53584

>  <SCORE.INTRA.VDW.0>
-1.67301

>  <SCORE.INTRA.norm>
0.0105803

>  <SCORE.RESTR>
0.524376

>  <SCORE.RESTR.CAVITY>
0.524376

>  <SCORE.RESTR.norm>
0.0154228

>  <SCORE.SYSTEM>
0

>  <SCORE.SYSTEM.CONST>
0

>  <SCORE.SYSTEM.DIHEDRAL>
0

>  <SCORE.SYSTEM.SOLV>
0

>  <SCORE.SYSTEM.norm>
0

>  <SCORE.heavy>
34

>  <SCORE.norm>
-0.102947

>  <RMSD>
2.803

$$$$
ligand
 OpenBabel11021811483D
libRbt.so/2013.1/901 2013/11/27
 34 36  0  0  0  0  0  0  0  0999 V2000
    5.7287   42.3215   74.4309 N   0  0  0  0  0  0  0  0  0  0  0  0
    5.1016   42.1294   75.7593 C   0  0  1  0  0  0  0  0  0  0  0  0
    5.6463   43.4557   73.7232 C   0  0  0  0  0  0  0  0  0  0  0  0
    5.0401   44.4644   74.0949 O   0  0  0  0  0  0  0  0  0  0  0  0
   12.4829   46.1220   71.1352 N   0  0  0  0  0  0  0  0  0  0  0  0
    5.8904   41.0797   76.5600 C   0  0  0  0  0  0  0  0  0  0  0  0
    5.1951   40.7407   77.8855 C   0  0  0  0  0  0  0  0  0  0  0  0
    5.9389   39.6241   78.6341 C   0  0  0  0  0  0  0  0  0  0  0  0
    6.9431   39.9566   79.3064 O   0  0  0  0  0  0  0  0  0  0  0  0
    5.4850   38.4624   78.5196 O   0  0  0  0  0  0  0  0  0  0  0  0
   11.8636   44.7309   69.3918 N   0  0  0  0  0  0  0  0  0  0  0  0
    3.8976   43.9815   76.6910 O   0  0  0  0  0  0  0  0  0  0  0  0
   11.9298   44.9892   70.7094 C   0  0  0  0  0  0  0  0  0  0  0  0
    6.1055   43.8919   77.0167 O   0  0  0  0  0  0  0  0  0  0  0  0
   11.4217   44.0776   71.6435 N   0  0  0  0  0  0  0  0  0  0  0  0
   10.8424   42.9012   71.1874 C   0  0  0  0  0  0  0  0  0  0  0  0
   10.7611   42.6799   69.8189 C   0  0  0  0  0  0  0  0  0  0  0  0
   10.3806   42.0907   71.9868 O   0  0  0  0  0  0  0  0  0  0  0  0
   10.4318   40.3653   70.0097 C   0  0  0  0  0  0  0  0  0  0  0  0
   10.2520   41.4867   69.3184 N   0  0  0  0  0  0  0  0  0  0  0  0
    9.5491   39.5113   70.0533 O   0  0  0  0  0  0  0  0  0  0  0  0
    9.7070   41.4461   67.9570 C   0  0  2  0  0  0  0  0  0  0  0  0
   10.7174   42.0895   67.0038 C   0  0  0  0  0  0  0  0  0  0  0  0
   11.3072   43.5993   68.9336 C   0  0  0  0  0  0  0  0  0  0  0  0
   11.2637   43.3533   67.5568 N   0  0  0  0  0  0  0  0  0  0  0  0
    8.3695   42.1913   67.8918 C   0  0  0  0  0  0  0  0  0  0  0  0
    8.4146   43.3656   68.7718 N   0  0  0  0  0  0  0  0  0  0  0  0
    6.4217   43.4397   72.3934 C   0  0  0  0  0  0  0  0  0  0  0  0
    6.9082   42.2432   71.8722 C   0  0  0  0  0  0  0  0  0  0  0  0
    7.5611   42.2226   70.6413 C   0  0  0  0  0  0  0  0  0  0  0  0
    7.7744   43.4044   69.9399 C   0  0  0  0  0  0  0  0  0  0  0  0
    7.2971   44.6014   70.4632 C   0  0  0  0  0  0  0  0  0  0  0  0
    6.6124   44.6181   71.6775 C   0  0  0  0  0  0  0  0  0  0  0  0
    5.0251   43.4469   76.5581 C   0  0  0  0  0  0  0  0  0  0  0  0
  1  3  1  0  0  0  0
  2  1  1  6  0  0  0
  2  6  1  0  0  0  0
  2 34  1  0  0  0  0
  3  4  2  0  0  0  0
  3 28  1  0  0  0  0
  5 13  1  0  0  0  0
  6  7  1  0  0  0  0
  7  8  1  0  0  0  0
  8  9  1  0  0  0  0
  8 10  1  0  0  0  0
 11 13  2  0  0  0  0
 11 24  1  0  0  0  0
 12 34  1  0  0  0  0
 13 15  1  0  0  0  0
 14 34  1  0  0  0  0
 15 16  1  0  0  0  0
 16 17  1  0  0  0  0
 16 18  2  0  0  0  0
 17 20  1  0  0  0  0
 17 24  2  0  0  0  0
 19 21  1  0  0  0  0
 19 20  1  0  0  0  0
 20 22  1  0  0  0  0
 22 23  1  0  0  0  0
 22 26  1  1  0  0  0
 23 25  1  0  0  0  0
 24 25  1  0  0  0  0
 26 27  1  0  0  0  0
 27 31  1  0  0  0  0
 28 29  2  0  0  0  0
 28 33  1  0  0  0  0
 29 30  1  0  0  0  0
 30 31  2  0  0  0  0
 31 32  1  0  0  0  0
 32 33  2  0  0  0  0
M  END
>  <CHROM.1>
-152.98934979,-174.09889384,107.45749292,176.17768935,81.43459515,142.78840541
36.64341838,-105.77788396,28.99361204,13.00230225,8.15524410,42.56667398
72.44969636,2.55065653,-0.88769166,2.61076041

>  <Name>
ligand

>  <RI>
0

>  <Rbt.Current_Directory>
/home/itssahil/PROJECTS/Mol_Feturizer/New_Systems/rnas/3SUH

>  <Rbt.Executable>
rbdock ($Id: //depot/dev/client3/rdock/2013.1/src/exe/rbdock.cxx#4 $)

>  <Rbt.Library>
libRbt.so (2013.1, Build901 2013/11/27)

>  <Rbt.Parameter_File>
/export/apps/rDock/src/rDock_2013.1_src/data/scripts/dock_solv.prm

>  <Rbt.Receptor>
prm/pocket_docking_2.prm

>  <SCORE>
-6.96689

>  <SCORE.INTER>
-6.07475

>  <SCORE.INTER.CONST>
1

>  <SCORE.INTER.POLAR>
0

>  <SCORE.INTER.ROT>
10

>  <SCORE.INTER.SOLV>
14.5331

>  <SCORE.INTER.VDW>
-19.1609

>  <SCORE.INTER.norm>
-0.178669

>  <SCORE.INTRA>
-1.51411

>  <SCORE.INTRA.DIHEDRAL>
-2.64886

>  <SCORE.INTRA.DIHEDRAL.0>
12.2703

>  <SCORE.INTRA.POLAR>
0

>  <SCORE.INTRA.POLAR.0>
0

>  <SCORE.INTRA.REPUL>
0

>  <SCORE.INTRA.REPUL.0>
0

>  <SCORE.INTRA.SOLV>
2.53524

>  <SCORE.INTRA.SOLV.lig_0>
-64.3214

>  <SCORE.INTRA.VDW>
-1.4573

>  <SCORE.INTRA.VDW.0>
-1.67301

>  <SCORE.INTRA.norm>
-0.0445326

>  <SCORE.RESTR>
0.62197

>  <SCORE.RESTR.CAVITY>
0.62197

>  <SCORE.RESTR.norm>
0.0182932

>  <SCORE.SYSTEM>
0

>  <SCORE.SYSTEM.CONST>
0

>  <SCORE.SYSTEM.DIHEDRAL>
0

>  <SCORE.SYSTEM.SOLV>
0

>  <SCORE.SYSTEM.norm>
0

>  <SCORE.heavy>
34

>  <SCORE.norm>
-0.204909

>  <RMSD>
3.001

$$$$
ligand
 OpenBabel11021811483D
libRbt.so/2013.1/901 2013/11/27
 34 36  0  0  0  0  0  0  0  0999 V2000
    5.3858   41.5463   74.9690 N   0  0  0  0  0  0  0  0  0  0  0  0
    4.7654   41.0140   76.2046 C   0  0  1  0  0  0  0  0  0  0  0  0
    5.7566   42.8235   74.8101 C   0  0  0  0  0  0  0  0  0  0  0  0
    5.6227   43.6983   75.6703 O   0  0  0  0  0  0  0  0  0  0  0  0
    9.4489   38.7488   70.6244 N   0  0  0  0  0  0  0  0  0  0  0  0
    5.7323   41.1866   77.3880 C   0  0  0  0  0  0  0  0  0  0  0  0
    5.2218   40.4677   78.6441 C   0  0  0  0  0  0  0  0  0  0  0  0
    6.1502   40.7152   79.8428 C   0  0  0  0  0  0  0  0  0  0  0  0
    5.7821   41.5672   80.6852 O   0  0  0  0  0  0  0  0  0  0  0  0
    7.2070   40.0447   79.8918 O   0  0  0  0  0  0  0  0  0  0  0  0
   10.0583   40.9469   71.0184 N   0  0  0  0  0  0  0  0  0  0  0  0
    3.4440   42.9390   76.7486 O   0  0  0  0  0  0  0  0  0  0  0  0
    9.7744   39.9523   70.1596 C   0  0  0  0  0  0  0  0  0  0  0  0
    2.4018   40.9754   76.5317 O   0  0  0  0  0  0  0  0  0  0  0  0
    9.8168   40.1678   68.7764 N   0  0  0  0  0  0  0  0  0  0  0  0
   10.1529   41.4290   68.3030 C   0  0  0  0  0  0  0  0  0  0  0  0
   10.4091   42.4425   69.2171 C   0  0  0  0  0  0  0  0  0  0  0  0
   10.1869   41.6453   67.0942 O   0  0  0  0  0  0  0  0  0  0  0  0
   11.5540   43.8053   67.6893 C   0  0  0  0  0  0  0  0  0  0  0  0
   10.8159   43.7017   68.7904 N   0  0  0  0  0  0  0  0  0  0  0  0
   12.7703   43.9630   67.7665 O   0  0  0  0  0  0  0  0  0  0  0  0
   10.5999   44.8652   69.6574 C   0  0  2  0  0  0  0  0  0  0  0  0
   11.1152   44.5349   71.0605 C   0  0  0  0  0  0  0  0  0  0  0  0
   10.3849   42.1716   70.5785 C   0  0  0  0  0  0  0  0  0  0  0  0
   10.6867   43.1831   71.4970 N   0  0  0  0  0  0  0  0  0  0  0  0
    9.1113   45.2251   69.7116 C   0  0  0  0  0  0  0  0  0  0  0  0
    8.3138   44.0048   69.8853 N   0  0  0  0  0  0  0  0  0  0  0  0
    6.4275   43.1333   73.4596 C   0  0  0  0  0  0  0  0  0  0  0  0
    6.3889   44.4204   72.9289 C   0  0  0  0  0  0  0  0  0  0  0  0
    7.0439   44.7118   71.7340 C   0  0  0  0  0  0  0  0  0  0  0  0
    7.7065   43.7091   71.0341 C   0  0  0  0  0  0  0  0  0  0  0  0
    7.7385   42.4212   71.5581 C   0  0  0  0  0  0  0  0  0  0  0  0
    7.1136   42.1366   72.7714 C   0  0  0  0  0  0  0  0  0  0  0  0
    3.4231   41.7051   76.5213 C   0  0  0  0  0  0  0  0  0  0  0  0
  1  3  1  0  0  0  0
  2  1  1  6  0  0  0
  2  6  1  0  0  0  0
  2 34  1  0  0  0  0
  3  4  2  0  0  0  0
  3 28  1  0  0  0  0
  5 13  1  0  0  0  0
  6  7  1  0  0  0  0
  7  8  1  0  0  0  0
  8  9  1  0  0  0  0
  8 10  1  0  0  0  0
 11 13  2  0  0  0  0
 11 24  1  0  0  0  0
 12 34  1  0  0  0  0
 13 15  1  0  0  0  0
 14 34  1  0  0  0  0
 15 16  1  0  0  0  0
 16 17  1  0  0  0  0
 16 18  2  0  0  0  0
 17 20  1  0  0  0  0
 17 24  2  0  0  0  0
 19 21  1  0  0  0  0
 19 20  1  0  0  0  0
 20 22  1  0  0  0  0
 22 23  1  0  0  0  0
 22 26  1  1  0  0  0
 23 25  1  0  0  0  0
 24 25  1  0  0  0  0
 26 27  1  0  0  0  0
 27 31  1  0  0  0  0
 28 29  2  0  0  0  0
 28 33  1  0  0  0  0
 29 30  1  0  0  0  0
 30 31  2  0  0  0  0
 31 32  1  0  0  0  0
 32 33  2  0  0  0  0
M  END
>  <CHROM.1>
-61.03447782,-171.65383699,-62.23975620,-176.59672074,101.41060432,-100.67954805
44.66964008,107.64156109,42.50041361,154.56077308,7.88264346,42.33849703
72.81835097,2.43904855,-0.81542348,2.44234501

>  <Name>
ligand

>  <RI>
0

>  <Rbt.Current_Directory>
/home/itssahil/PROJECTS/Mol_Feturizer/New_Systems/rnas/3SUH

>  <Rbt.Executable>
rbdock ($Id: //depot/dev/client3/rdock/2013.1/src/exe/rbdock.cxx#4 $)

>  <Rbt.Library>
libRbt.so (2013.1, Build901 2013/11/27)

>  <Rbt.Parameter_File>
/export/apps/rDock/src/rDock_2013.1_src/data/scripts/dock_solv.prm

>  <Rbt.Receptor>
prm/pocket_docking_2.prm

>  <SCORE>
1.38098

>  <SCORE.INTER>
0.74981

>  <SCORE.INTER.CONST>
1

>  <SCORE.INTER.POLAR>
0

>  <SCORE.INTER.ROT>
10

>  <SCORE.INTER.SOLV>
17.0957

>  <SCORE.INTER.VDW>
-15.4654

>  <SCORE.INTER.norm>
0.0220532

>  <SCORE.INTRA>
-1.76569

>  <SCORE.INTRA.DIHEDRAL>
-3.9312

>  <SCORE.INTRA.DIHEDRAL.0>
12.2703

>  <SCORE.INTRA.POLAR>
0

>  <SCORE.INTRA.POLAR.0>
0

>  <SCORE.INTRA.REPUL>
0

>  <SCORE.INTRA.REPUL.0>
0

>  <SCORE.INTRA.SOLV>
2.79831

>  <SCORE.INTRA.SOLV.lig_0>
-64.3214

>  <SCORE.INTRA.VDW>
-1.19925

>  <SCORE.INTRA.VDW.0>
-1.67301

>  <SCORE.INTRA.norm>
-0.0519322

>  <SCORE.RESTR>
2.39686

>  <SCORE.RESTR.CAVITY>
2.39686

>  <SCORE.RESTR.norm>
0.070496

>  <SCORE.SYSTEM>
0

>  <SCORE.SYSTEM.CONST>
0

>  <SCORE.SYSTEM.DIHEDRAL>
0

>  <SCORE.SYSTEM.SOLV>
0

>  <SCORE.SYSTEM.norm>
0

>  <SCORE.heavy>
34

>  <SCORE.norm>
0.040617

>  <RMSD>
3.082

$$$$
ligand
 OpenBabel11021811483D
libRbt.so/2013.1/901 2013/11/27
 34 36  0  0  0  0  0  0  0  0999 V2000
    4.4563   42.4004   75.5137 N   0  0  0  0  0  0  0  0  0  0  0  0
    3.7309   42.0665   76.7616 C   0  0  1  0  0  0  0  0  0  0  0  0
    5.6474   43.0124   75.4833 C   0  0  0  0  0  0  0  0  0  0  0  0
    6.2722   43.3675   76.4867 O   0  0  0  0  0  0  0  0  0  0  0  0
   13.3329   44.9943   71.0148 N   0  0  0  0  0  0  0  0  0  0  0  0
    2.2587   41.7586   76.4408 C   0  0  0  0  0  0  0  0  0  0  0  0
    1.4025   41.7050   77.7134 C   0  0  0  0  0  0  0  0  0  0  0  0
    1.8713   40.5832   78.6525 C   0  0  0  0  0  0  0  0  0  0  0  0
    1.5106   39.4156   78.3737 O   0  0  0  0  0  0  0  0  0  0  0  0
    2.5826   40.9177   79.6276 O   0  0  0  0  0  0  0  0  0  0  0  0
   11.7703   44.2240   69.4906 N   0  0  0  0  0  0  0  0  0  0  0  0
    4.9604   41.0995   78.5784 O   0  0  0  0  0  0  0  0  0  0  0  0
   12.3234   44.1810   70.7152 C   0  0  0  0  0  0  0  0  0  0  0  0
    4.2461   39.7442   76.9531 O   0  0  0  0  0  0  0  0  0  0  0  0
   11.8483   43.2875   71.6835 N   0  0  0  0  0  0  0  0  0  0  0  0
   10.7912   42.4471   71.3612 C   0  0  0  0  0  0  0  0  0  0  0  0
   10.2218   42.5394   70.0980 C   0  0  0  0  0  0  0  0  0  0  0  0
   10.3503   41.6620   72.1968 O   0  0  0  0  0  0  0  0  0  0  0  0
    9.1967   40.4314   70.1860 C   0  0  0  0  0  0  0  0  0  0  0  0
    9.2076   41.6719   69.7077 N   0  0  0  0  0  0  0  0  0  0  0  0
   10.1343   39.6688   69.9629 O   0  0  0  0  0  0  0  0  0  0  0  0
    8.2906   42.0665   68.6328 C   0  0  2  0  0  0  0  0  0  0  0  0
    9.1140   42.5670   67.4433 C   0  0  0  0  0  0  0  0  0  0  0  0
   10.7483   43.4193   69.1620 C   0  0  0  0  0  0  0  0  0  0  0  0
   10.2015   43.4792   67.8754 N   0  0  0  0  0  0  0  0  0  0  0  0
    7.3378   43.1651   69.1164 C   0  0  0  0  0  0  0  0  0  0  0  0
    7.8814   43.7930   70.3270 N   0  0  0  0  0  0  0  0  0  0  0  0
    6.2316   43.2090   74.0727 C   0  0  0  0  0  0  0  0  0  0  0  0
    6.0202   44.3977   73.3784 C   0  0  0  0  0  0  0  0  0  0  0  0
    6.5960   44.5959   72.1251 C   0  0  0  0  0  0  0  0  0  0  0  0
    7.3521   43.5899   71.5330 C   0  0  0  0  0  0  0  0  0  0  0  0
    7.5568   42.3987   72.2210 C   0  0  0  0  0  0  0  0  0  0  0  0
    7.0107   42.2133   73.4903 C   0  0  0  0  0  0  0  0  0  0  0  0
    4.3671   40.8689   77.4970 C   0  0  0  0  0  0  0  0  0  0  0  0
  1  3  1  0  0  0  0
  2  1  1  6  0  0  0
  2  6  1  0  0  0  0
  2 34  1  0  0  0  0
  3  4  2  0  0  0  0
  3 28  1  0  0  0  0
  5 13  1  0  0  0  0
  6  7  1  0  0  0  0
  7  8  1  0  0  0  0
  8  9  1  0  0  0  0
  8 10  1  0  0  0  0
 11 13  2  0  0  0  0
 11 24  1  0  0  0  0
 12 34  1  0  0  0  0
 13 15  1  0  0  0  0
 14 34  1  0  0  0  0
 15 16  1  0  0  0  0
 16 17  1  0  0  0  0
 16 18  2  0  0  0  0
 17 20  1  0  0  0  0
 17 24  2  0  0  0  0
 19 21  1  0  0  0  0
 19 20  1  0  0  0  0
 20 22  1  0  0  0  0
 22 23  1  0  0  0  0
 22 26  1  1  0  0  0
 23 25  1  0  0  0  0
 24 25  1  0  0  0  0
 26 27  1  0  0  0  0
 27 31  1  0  0  0  0
 28 29  2  0  0  0  0
 28 33  1  0  0  0  0
 29 30  1  0  0  0  0
 30 31  2  0  0  0  0
 31 32  1  0  0  0  0
 32 33  2  0  0  0  0
M  END
>  <CHROM.1>
163.59812377,-167.71142903,109.87858657,-62.01563639,-79.10926231,-60.94587923
18.06215125,-107.80915224,-105.50911081,93.99588915,7.20797536,42.30727371
73.14582795,2.36699432,0.37696158,1.43517171

>  <Name>
ligand

>  <RI>
0

>  <Rbt.Current_Directory>
/home/itssahil/PROJECTS/Mol_Feturizer/New_Systems/rnas/3SUH

>  <Rbt.Executable>
rbdock ($Id: //depot/dev/client3/rdock/2013.1/src/exe/rbdock.cxx#4 $)

>  <Rbt.Library>
libRbt.so (2013.1, Build901 2013/11/27)

>  <Rbt.Parameter_File>
/export/apps/rDock/src/rDock_2013.1_src/data/scripts/dock_solv.prm

>  <Rbt.Receptor>
prm/pocket_docking_2.prm

>  <SCORE>
1.52985

>  <SCORE.INTER>
2.19476

>  <SCORE.INTER.CONST>
1

>  <SCORE.INTER.POLAR>
0

>  <SCORE.INTER.ROT>
10

>  <SCORE.INTER.SOLV>
14.5251

>  <SCORE.INTER.VDW>
-13.6452

>  <SCORE.INTER.norm>
0.0645517

>  <SCORE.INTRA>
-1.20963

>  <SCORE.INTRA.DIHEDRAL>
0.186711

>  <SCORE.INTRA.DIHEDRAL.0>
12.2703

>  <SCORE.INTRA.POLAR>
0

>  <SCORE.INTRA.POLAR.0>
0

>  <SCORE.INTRA.REPUL>
0

>  <SCORE.INTRA.REPUL.0>
0

>  <SCORE.INTRA.SOLV>
2.01304

>  <SCORE.INTRA.SOLV.lig_0>
-64.3214

>  <SCORE.INTRA.VDW>
-2.3095

>  <SCORE.INTRA.VDW.0>
-1.67301

>  <SCORE.INTRA.norm>
-0.0355773

>  <SCORE.RESTR>
0.544726

>  <SCORE.RESTR.CAVITY>
0.544726

>  <SCORE.RESTR.norm>
0.0160213

>  <SCORE.SYSTEM>
0

>  <SCORE.SYSTEM.CONST>
0

>  <SCORE.SYSTEM.DIHEDRAL>
0

>  <SCORE.SYSTEM.SOLV>
0

>  <SCORE.SYSTEM.norm>
0

>  <SCORE.heavy>
34

>  <SCORE.norm>
0.0449957

>  <RMSD>
3.135

$$$$
ligand
 OpenBabel11021811483D
libRbt.so/2013.1/901 2013/11/27
 34 36  0  0  0  0  0  0  0  0999 V2000
    4.7020   41.1313   76.6839 N   0  0  0  0  0  0  0  0  0  0  0  0
    4.0235   41.1994   77.9991 C   0  0  1  0  0  0  0  0  0  0  0  0
    5.0900   39.9889   76.1021 C   0  0  0  0  0  0  0  0  0  0  0  0
    4.9286   38.8686   76.5941 O   0  0  0  0  0  0  0  0  0  0  0  0
    7.2898   46.0938   71.0860 N   0  0  0  0  0  0  0  0  0  0  0  0
    4.6460   42.3205   78.8481 C   0  0  0  0  0  0  0  0  0  0  0  0
    6.1400   42.0754   79.0996 C   0  0  0  0  0  0  0  0  0  0  0  0
    6.3714   40.7342   79.8123 C   0  0  0  0  0  0  0  0  0  0  0  0
    6.7078   39.7588   79.1007 O   0  0  0  0  0  0  0  0  0  0  0  0
    6.2092   40.7145   81.0541 O   0  0  0  0  0  0  0  0  0  0  0  0
    7.5661   44.1165   69.9145 N   0  0  0  0  0  0  0  0  0  0  0  0
    2.1257   42.2705   76.9995 O   0  0  0  0  0  0  0  0  0  0  0  0
    7.9875   44.9857   70.8496 C   0  0  0  0  0  0  0  0  0  0  0  0
    1.7575   40.7697   78.6122 O   0  0  0  0  0  0  0  0  0  0  0  0
    9.1560   44.7385   71.5811 N   0  0  0  0  0  0  0  0  0  0  0  0
    9.8730   43.5766   71.3292 C   0  0  0  0  0  0  0  0  0  0  0  0
    9.3930   42.6844   70.3795 C   0  0  0  0  0  0  0  0  0  0  0  0
   10.8955   43.3328   71.9650 O   0  0  0  0  0  0  0  0  0  0  0  0
   11.4412   41.5782   70.0909 C   0  0  0  0  0  0  0  0  0  0  0  0
   10.1129   41.5427   70.0454 N   0  0  0  0  0  0  0  0  0  0  0  0
   12.0708   42.3282   69.3482 O   0  0  0  0  0  0  0  0  0  0  0  0
    9.4156   40.3918   69.4611 C   0  0  2  0  0  0  0  0  0  0  0  0
    8.5395   40.8827   68.3057 C   0  0  0  0  0  0  0  0  0  0  0  0
    8.2465   42.9889   69.6582 C   0  0  0  0  0  0  0  0  0  0  0  0
    7.7891   42.1095   68.6707 N   0  0  0  0  0  0  0  0  0  0  0  0
    8.5540   39.6929   70.5184 C   0  0  0  0  0  0  0  0  0  0  0  0
    7.5394   40.6256   71.0244 N   0  0  0  0  0  0  0  0  0  0  0  0
    5.7283   40.1616   74.7120 C   0  0  0  0  0  0  0  0  0  0  0  0
    6.1407   41.4177   74.2737 C   0  0  0  0  0  0  0  0  0  0  0  0
    6.7687   41.5638   73.0384 C   0  0  0  0  0  0  0  0  0  0  0  0
    6.9505   40.4624   72.2087 C   0  0  0  0  0  0  0  0  0  0  0  0
    6.5313   39.2088   72.6410 C   0  0  0  0  0  0  0  0  0  0  0  0
    5.9349   39.0560   73.8919 C   0  0  0  0  0  0  0  0  0  0  0  0
    2.5057   41.4346   77.8548 C   0  0  0  0  0  0  0  0  0  0  0  0
  1  3  1  0  0  0  0
  2  1  1  6  0  0  0
  2  6  1  0  0  0  0
  2 34  1  0  0  0  0
  3  4  2  0  0  0  0
  3 28  1  0  0  0  0
  5 13  1  0  0  0  0
  6  7  1  0  0  0  0
  7  8  1  0  0  0  0
  8  9  1  0  0  0  0
  8 10  1  0  0  0  0
 11 13  2  0  0  0  0
 11 24  1  0  0  0  0
 12 34  1  0  0  0  0
 13 15  1  0  0  0  0
 14 34  1  0  0  0  0
 15 16  1  0  0  0  0
 16 17  1  0  0  0  0
 16 18  2  0  0  0  0
 17 20  1  0  0  0  0
 17 24  2  0  0  0  0
 19 21  1  0  0  0  0
 19 20  1  0  0  0  0
 20 22  1  0  0  0  0
 22 23  1  0  0  0  0
 22 26  1  1  0  0  0
 23 25  1  0  0  0  0
 24 25  1  0  0  0  0
 26 27  1  0  0  0  0
 27 31  1  0  0  0  0
 28 29  2  0  0  0  0
 28 33  1  0  0  0  0
 29 30  1  0  0  0  0
 30 31  2  0  0  0  0
 31 32  1  0  0  0  0
 32 33  2  0  0  0  0
M  END
>  <CHROM.1>
135.34045333,-60.40138352,-42.14021160,-58.51503547,98.82463839,-63.32747593
61.18576864,-157.89037969,136.78991710,14.38040726,7.03212210,41.61299580
73.72025495,-3.10883835,-1.04884969,-2.92312813

>  <Name>
ligand

>  <RI>
0

>  <Rbt.Current_Directory>
/home/itssahil/PROJECTS/Mol_Feturizer/New_Systems/rnas/3SUH

>  <Rbt.Executable>
rbdock ($Id: //depot/dev/client3/rdock/2013.1/src/exe/rbdock.cxx#4 $)

>  <Rbt.Library>
libRbt.so (2013.1, Build901 2013/11/27)

>  <Rbt.Parameter_File>
/export/apps/rDock/src/rDock_2013.1_src/data/scripts/dock_solv.prm

>  <Rbt.Receptor>
prm/pocket_docking_3.prm

>  <SCORE>
-5.32225

>  <SCORE.INTER>
-1.92561

>  <SCORE.INTER.CONST>
1

>  <SCORE.INTER.POLAR>
0

>  <SCORE.INTER.ROT>
10

>  <SCORE.INTER.SOLV>
11.7632

>  <SCORE.INTER.VDW>
-15.4715

>  <SCORE.INTER.norm>
-0.0566356

>  <SCORE.INTRA>
-3.39664

>  <SCORE.INTRA.DIHEDRAL>
-4.62527

>  <SCORE.INTRA.DIHEDRAL.0>
12.2703

>  <SCORE.INTRA.POLAR>
0

>  <SCORE.INTRA.POLAR.0>
0

>  <SCORE.INTRA.REPUL>
0

>  <SCORE.INTRA.REPUL.0>
0

>  <SCORE.INTRA.SOLV>
2.10903

>  <SCORE.INTRA.SOLV.lig_0>
-64.3214

>  <SCORE.INTRA.VDW>
-2.13852

>  <SCORE.INTRA.VDW.0>
-1.67301

>  <SCORE.INTRA.norm>
-0.0999011

>  <SCORE.RESTR>
0

>  <SCORE.RESTR.CAVITY>
0

>  <SCORE.RESTR.norm>
0

>  <SCORE.SYSTEM>
0

>  <SCORE.SYSTEM.CONST>
0

>  <SCORE.SYSTEM.DIHEDRAL>
0

>  <SCORE.SYSTEM.SOLV>
0

>  <SCORE.SYSTEM.norm>
0

>  <SCORE.heavy>
34

>  <SCORE.norm>
-0.156537

>  <RMSD>
3.145

$$$$
ligand
 OpenBabel11021811483D
libRbt.so/2013.1/901 2013/11/27
 34 36  0  0  0  0  0  0  0  0999 V2000
    6.2835   42.6666   76.1498 N   0  0  0  0  0  0  0  0  0  0  0  0
    5.9129   43.1290   77.5076 C   0  0  1  0  0  0  0  0  0  0  0  0
    5.4382   42.6470   75.1110 C   0  0  0  0  0  0  0  0  0  0  0  0
    4.2596   43.0086   75.1670 O   0  0  0  0  0  0  0  0  0  0  0  0
    7.4256   46.3997   70.4061 N   0  0  0  0  0  0  0  0  0  0  0  0
    7.1092   42.9600   78.4592 C   0  0  0  0  0  0  0  0  0  0  0  0
    7.4989   41.4844   78.6202 C   0  0  0  0  0  0  0  0  0  0  0  0
    8.6617   41.3211   79.6108 C   0  0  0  0  0  0  0  0  0  0  0  0
    8.3724   40.9775   80.7810 O   0  0  0  0  0  0  0  0  0  0  0  0
    9.8153   41.5410   79.1752 O   0  0  0  0  0  0  0  0  0  0  0  0
    8.0379   44.4417   69.3339 N   0  0  0  0  0  0  0  0  0  0  0  0
    6.0267   45.3945   76.7313 O   0  0  0  0  0  0  0  0  0  0  0  0
    8.1651   45.2943   70.3655 C   0  0  0  0  0  0  0  0  0  0  0  0
    4.5170   44.8951   78.2998 O   0  0  0  0  0  0  0  0  0  0  0  0
    9.0696   45.0326   71.4024 N   0  0  0  0  0  0  0  0  0  0  0  0
    9.8323   43.8736   71.3519 C   0  0  0  0  0  0  0  0  0  0  0  0
    9.6534   42.9984   70.2887 C   0  0  0  0  0  0  0  0  0  0  0  0
   10.6251   43.6171   72.2546 O   0  0  0  0  0  0  0  0  0  0  0  0
   11.6998   41.8930   70.5929 C   0  0  0  0  0  0  0  0  0  0  0  0
   10.4429   41.8610   70.1606 N   0  0  0  0  0  0  0  0  0  0  0  0
   12.1974   40.9097   71.1369 O   0  0  0  0  0  0  0  0  0  0  0  0
    9.9502   40.7214   69.3791 C   0  0  2  0  0  0  0  0  0  0  0  0
    9.4485   41.2333   68.0265 C   0  0  0  0  0  0  0  0  0  0  0  0
    8.7669   43.3172   69.2690 C   0  0  0  0  0  0  0  0  0  0  0  0
    8.6206   42.4554   68.1764 N   0  0  0  0  0  0  0  0  0  0  0  0
    8.8193   40.0067   70.1268 C   0  0  0  0  0  0  0  0  0  0  0  0
    7.6402   40.8790   70.1902 N   0  0  0  0  0  0  0  0  0  0  0  0
    6.0622   42.1747   73.7853 C   0  0  0  0  0  0  0  0  0  0  0  0
    6.3179   40.8235   73.5651 C   0  0  0  0  0  0  0  0  0  0  0  0
    6.8309   40.3914   72.3436 C   0  0  0  0  0  0  0  0  0  0  0  0
    7.1359   41.3108   71.3456 C   0  0  0  0  0  0  0  0  0  0  0  0
    6.8895   42.6616   71.5671 C   0  0  0  0  0  0  0  0  0  0  0  0
    6.3430   43.0910   72.7757 C   0  0  0  0  0  0  0  0  0  0  0  0
    5.4468   44.5996   77.5100 C   0  0  0  0  0  0  0  0  0  0  0  0
  1  3  1  0  0  0  0
  2  1  1  6  0  0  0
  2  6  1  0  0  0  0
  2 34  1  0  0  0  0
  3  4  2  0  0  0  0
  3 28  1  0  0  0  0
  5 13  1  0  0  0  0
  6  7  1  0  0  0  0
  7  8  1  0  0  0  0
  8  9  1  0  0  0  0
  8 10  1  0  0  0  0
 11 13  2  0  0  0  0
 11 24  1  0  0  0  0
 12 34  1  0  0  0  0
 13 15  1  0  0  0  0
 14 34  1  0  0  0  0
 15 16  1  0  0  0  0
 16 17  1  0  0  0  0
 16 18  2  0  0  0  0
 17 20  1  0  0  0  0
 17 24  2  0  0  0  0
 19 21  1  0  0  0  0
 19 20  1  0  0  0  0
 20 22  1  0  0  0  0
 22 23  1  0  0  0  0
 22 26  1  1  0  0  0
 23 25  1  0  0  0  0
 24 25  1  0  0  0  0
 26 27  1  0  0  0  0
 27 31  1  0  0  0  0
 28 29  2  0  0  0  0
 28 33  1  0  0  0  0
 29 30  1  0  0  0  0
 30 31  2  0  0  0  0
 31 32  1  0  0  0  0
 32 33  2  0  0  0  0
M  END
>  <CHROM.1>
177.71253379,-63.38247245,-36.53498344,-177.96804339,99.54903316,142.42090976
67.83607438,-117.80563701,-52.56053859,75.90018563,7.95489129,42.65766504
73.36744324,1.94548103,-0.66295900,1.76972356

>  <Name>
ligand

>  <RI>
0

>  <Rbt.Current_Directory>
/home/itssahil/PROJECTS/Mol_Feturizer/New_Systems/rnas/3SUH

>  <Rbt.Executable>
rbdock ($Id: //depot/dev/client3/rdock/2013.1/src/exe/rbdock.cxx#4 $)

>  <Rbt.Library>
libRbt.so (2013.1, Build901 2013/11/27)

>  <Rbt.Parameter_File>
/export/apps/rDock/src/rDock_2013.1_src/data/scripts/dock_solv.prm

>  <Rbt.Receptor>
prm/pocket_docking_6.prm

>  <SCORE>
-7.59226

>  <SCORE.INTER>
-3.34134

>  <SCORE.INTER.CONST>
1

>  <SCORE.INTER.POLAR>
0

>  <SCORE.INTER.ROT>
10

>  <SCORE.INTER.SOLV>
12.617

>  <SCORE.INTER.VDW>
-16.6999

>  <SCORE.INTER.norm>
-0.0982747

>  <SCORE.INTRA>
-4.25092

>  <SCORE.INTRA.DIHEDRAL>
-4.55516

>  <SCORE.INTRA.DIHEDRAL.0>
12.2703

>  <SCORE.INTRA.POLAR>
0

>  <SCORE.INTRA.POLAR.0>
0

>  <SCORE.INTRA.REPUL>
0

>  <SCORE.INTRA.REPUL.0>
0

>  <SCORE.INTRA.SOLV>
2.10865

>  <SCORE.INTRA.SOLV.lig_0>
-64.3214

>  <SCORE.INTRA.VDW>
-3.02766

>  <SCORE.INTRA.VDW.0>
-1.67301

>  <SCORE.INTRA.norm>
-0.125027

>  <SCORE.RESTR>
0

>  <SCORE.RESTR.CAVITY>
0

>  <SCORE.RESTR.norm>
0

>  <SCORE.SYSTEM>
0

>  <SCORE.SYSTEM.CONST>
0

>  <SCORE.SYSTEM.DIHEDRAL>
0

>  <SCORE.SYSTEM.SOLV>
0

>  <SCORE.SYSTEM.norm>
0

>  <SCORE.heavy>
34

>  <SCORE.norm>
-0.223302

>  <RMSD>
3.149

$$$$
ligand
 OpenBabel11021811483D
libRbt.so/2013.1/901 2013/11/27
 34 36  0  0  0  0  0  0  0  0999 V2000
    5.8026   41.5835   74.5308 N   0  0  0  0  0  0  0  0  0  0  0  0
    5.3046   41.5235   75.9248 C   0  0  1  0  0  0  0  0  0  0  0  0
    5.9341   42.7193   73.8330 C   0  0  0  0  0  0  0  0  0  0  0  0
    5.6550   43.8394   74.2695 O   0  0  0  0  0  0  0  0  0  0  0  0
   10.1582   46.3878   71.4774 N   0  0  0  0  0  0  0  0  0  0  0  0
    5.1775   40.0567   76.3690 C   0  0  0  0  0  0  0  0  0  0  0  0
    4.2111   39.9063   77.5517 C   0  0  0  0  0  0  0  0  0  0  0  0
    4.7485   40.6171   78.8031 C   0  0  0  0  0  0  0  0  0  0  0  0
    3.9815   41.4268   79.3750 O   0  0  0  0  0  0  0  0  0  0  0  0
    5.9144   40.3330   79.1621 O   0  0  0  0  0  0  0  0  0  0  0  0
   10.2455   44.9683   69.6510 N   0  0  0  0  0  0  0  0  0  0  0  0
    5.6823   43.0750   77.7131 O   0  0  0  0  0  0  0  0  0  0  0  0
   10.3546   45.1713   70.9755 C   0  0  0  0  0  0  0  0  0  0  0  0
    7.4556   42.0649   76.8053 O   0  0  0  0  0  0  0  0  0  0  0  0
   10.6734   44.1141   71.8371 N   0  0  0  0  0  0  0  0  0  0  0  0
   10.8713   42.8482   71.3026 C   0  0  0  0  0  0  0  0  0  0  0  0
   10.7196   42.6663   69.9343 C   0  0  0  0  0  0  0  0  0  0  0  0
   11.1419   41.9030   72.0392 O   0  0  0  0  0  0  0  0  0  0  0  0
   11.9142   40.6487   69.8669 C   0  0  0  0  0  0  0  0  0  0  0  0
   10.9748   41.4324   69.3462 N   0  0  0  0  0  0  0  0  0  0  0  0
   13.0653   41.0583   69.9991 O   0  0  0  0  0  0  0  0  0  0  0  0
   10.3551   41.1017   68.0583 C   0  0  2  0  0  0  0  0  0  0  0  0
   10.5858   42.2639   67.0891 C   0  0  0  0  0  0  0  0  0  0  0  0
   10.4334   43.7518   69.1175 C   0  0  0  0  0  0  0  0  0  0  0  0
   10.3247   43.5745   67.7338 N   0  0  0  0  0  0  0  0  0  0  0  0
    8.8537   40.8497   68.2342 C   0  0  0  0  0  0  0  0  0  0  0  0
    8.1922   42.0868   68.6669 N   0  0  0  0  0  0  0  0  0  0  0  0
    6.5206   42.5402   72.4210 C   0  0  0  0  0  0  0  0  0  0  0  0
    6.7373   43.6438   71.5995 C   0  0  0  0  0  0  0  0  0  0  0  0
    7.3197   43.4861   70.3435 C   0  0  0  0  0  0  0  0  0  0  0  0
    7.6503   42.2181   69.8772 C   0  0  0  0  0  0  0  0  0  0  0  0
    7.4264   41.1140   70.6927 C   0  0  0  0  0  0  0  0  0  0  0  0
    6.8765   41.2746   71.9638 C   0  0  0  0  0  0  0  0  0  0  0  0
    6.2239   42.2872   76.9002 C   0  0  0  0  0  0  0  0  0  0  0  0
  1  3  1  0  0  0  0
  2  1  1  6  0  0  0
  2  6  1  0  0  0  0
  2 34  1  0  0  0  0
  3  4  2  0  0  0  0
  3 28  1  0  0  0  0
  5 13  1  0  0  0  0
  6  7  1  0  0  0  0
  7  8  1  0  0  0  0
  8  9  1  0  0  0  0
  8 10  1  0  0  0  0
 11 13  2  0  0  0  0
 11 24  1  0  0  0  0
 12 34  1  0  0  0  0
 13 15  1  0  0  0  0
 14 34  1  0  0  0  0
 15 16  1  0  0  0  0
 16 17  1  0  0  0  0
 16 18  2  0  0  0  0
 17 20  1  0  0  0  0
 17 24  2  0  0  0  0
 19 21  1  0  0  0  0
 19 20  1  0  0  0  0
 20 22  1  0  0  0  0
 22 23  1  0  0  0  0
 22 26  1  1  0  0  0
 23 25  1  0  0  0  0
 24 25  1  0  0  0  0
 26 27  1  0  0  0  0
 27 31  1  0  0  0  0
 28 29  2  0  0  0  0
 28 33  1  0  0  0  0
 29 30  1  0  0  0  0
 30 31  2  0  0  0  0
 31 32  1  0  0  0  0
 32 33  2  0  0  0  0
M  END
>  <CHROM.1>
175.45625672,-158.88592917,132.55155841,-64.86145196,127.80617307,-56.40063137
64.74935184,-112.65627832,165.14902642,-178.60875768,8.16299164,42.28456721
72.57018772,2.83110886,0.97821751,0.51754768

>  <Name>
ligand

>  <RI>
0

>  <Rbt.Current_Directory>
/home/itssahil/PROJECTS/Mol_Feturizer/New_Systems/rnas/3SUH

>  <Rbt.Executable>
rbdock ($Id: //depot/dev/client3/rdock/2013.1/src/exe/rbdock.cxx#4 $)

>  <Rbt.Library>
libRbt.so (2013.1, Build901 2013/11/27)

>  <Rbt.Parameter_File>
/export/apps/rDock/src/rDock_2013.1_src/data/scripts/dock_solv.prm

>  <Rbt.Receptor>
prm/pocket_docking_6.prm

>  <SCORE>
-11.7604

>  <SCORE.INTER>
-8.21809

>  <SCORE.INTER.CONST>
1

>  <SCORE.INTER.POLAR>
0

>  <SCORE.INTER.ROT>
10

>  <SCORE.INTER.SOLV>
15.0095

>  <SCORE.INTER.VDW>
-20.7486

>  <SCORE.INTER.norm>
-0.241708

>  <SCORE.INTRA>
-3.54234

>  <SCORE.INTRA.DIHEDRAL>
-2.9459

>  <SCORE.INTRA.DIHEDRAL.0>
12.2703

>  <SCORE.INTRA.POLAR>
0

>  <SCORE.INTRA.POLAR.0>
0

>  <SCORE.INTRA.REPUL>
0

>  <SCORE.INTRA.REPUL.0>
0

>  <SCORE.INTRA.SOLV>
1.93638

>  <SCORE.INTRA.SOLV.lig_0>
-64.3214

>  <SCORE.INTRA.VDW>
-3.03758

>  <SCORE.INTRA.VDW.0>
-1.67301

>  <SCORE.INTRA.norm>
-0.104187

>  <SCORE.RESTR>
0

>  <SCORE.RESTR.CAVITY>
0

>  <SCORE.RESTR.norm>
0

>  <SCORE.SYSTEM>
0

>  <SCORE.SYSTEM.CONST>
0

>  <SCORE.SYSTEM.DIHEDRAL>
0

>  <SCORE.SYSTEM.SOLV>
0

>  <SCORE.SYSTEM.norm>
0

>  <SCORE.heavy>
34

>  <SCORE.norm>
-0.345895

>  <RMSD>
3.152

$$$$
ligand
 OpenBabel11021811483D
libRbt.so/2013.1/901 2013/11/27
 34 36  0  0  0  0  0  0  0  0999 V2000
    5.9826   41.3745   75.2761 N   0  0  0  0  0  0  0  0  0  0  0  0
    5.4978   41.4304   76.6749 C   0  0  1  0  0  0  0  0  0  0  0  0
    5.6970   42.2983   74.3494 C   0  0  0  0  0  0  0  0  0  0  0  0
    4.9993   43.2956   74.5540 O   0  0  0  0  0  0  0  0  0  0  0  0
    8.0646   46.6684   70.7433 N   0  0  0  0  0  0  0  0  0  0  0  0
    5.8292   40.1115   77.3934 C   0  0  0  0  0  0  0  0  0  0  0  0
    5.2095   40.0614   78.7965 C   0  0  0  0  0  0  0  0  0  0  0  0
    3.6748   40.0520   78.7269 C   0  0  0  0  0  0  0  0  0  0  0  0
    3.0966   41.1636   78.6972 O   0  0  0  0  0  0  0  0  0  0  0  0
    3.1134   38.9326   78.7022 O   0  0  0  0  0  0  0  0  0  0  0  0
    8.7422   44.9776   69.3149 N   0  0  0  0  0  0  0  0  0  0  0  0
    7.3290   42.8525   77.2851 O   0  0  0  0  0  0  0  0  0  0  0  0
    8.7375   45.5394   70.5363 C   0  0  0  0  0  0  0  0  0  0  0  0
    5.3321   43.2588   78.1997 O   0  0  0  0  0  0  0  0  0  0  0  0
    9.4345   44.9487   71.5979 N   0  0  0  0  0  0  0  0  0  0  0  0
   10.1290   43.7681   71.3713 C   0  0  0  0  0  0  0  0  0  0  0  0
   10.0870   43.1971   70.1061 C   0  0  0  0  0  0  0  0  0  0  0  0
   10.7395   43.2257   72.2890 O   0  0  0  0  0  0  0  0  0  0  0  0
   11.9861   41.8583   70.4276 C   0  0  0  0  0  0  0  0  0  0  0  0
   10.8222   42.0534   69.8150 N   0  0  0  0  0  0  0  0  0  0  0  0
   12.3832   40.7196   70.6638 O   0  0  0  0  0  0  0  0  0  0  0  0
   10.4085   41.1895   68.7039 C   0  0  2  0  0  0  0  0  0  0  0  0
   10.1758   42.0591   67.4656 C   0  0  0  0  0  0  0  0  0  0  0  0
    9.4078   43.8370   69.0782 C   0  0  0  0  0  0  0  0  0  0  0  0
    9.4036   43.2829   67.7933 N   0  0  0  0  0  0  0  0  0  0  0  0
    9.1281   40.4283   69.0639 C   0  0  0  0  0  0  0  0  0  0  0  0
    8.0262   41.3787   69.2585 N   0  0  0  0  0  0  0  0  0  0  0  0
    6.3549   42.0566   72.9788 C   0  0  0  0  0  0  0  0  0  0  0  0
    6.7008   40.7687   72.5770 C   0  0  0  0  0  0  0  0  0  0  0  0
    7.2450   40.5449   71.3139 C   0  0  0  0  0  0  0  0  0  0  0  0
    7.4909   41.6120   70.4563 C   0  0  0  0  0  0  0  0  0  0  0  0
    7.1543   42.8998   70.8594 C   0  0  0  0  0  0  0  0  0  0  0  0
    6.5769   43.1206   72.1090 C   0  0  0  0  0  0  0  0  0  0  0  0
    6.1079   42.6158   77.4510 C   0  0  0  0  0  0  0  0  0  0  0  0
  1  3  1  0  0  0  0
  2  1  1  6  0  0  0
  2  6  1  0  0  0  0
  2 34  1  0  0  0  0
  3  4  2  0  0  0  0
  3 28  1  0  0  0  0
  5 13  1  0  0  0  0
  6  7  1  0  0  0  0
  7  8  1  0  0  0  0
  8  9  1  0  0  0  0
  8 10  1  0  0  0  0
 11 13  2  0  0  0  0
 11 24  1  0  0  0  0
 12 34  1  0  0  0  0
 13 15  1  0  0  0  0
 14 34  1  0  0  0  0
 15 16  1  0  0  0  0
 16 17  1  0  0  0  0
 16 18  2  0  0  0  0
 17 20  1  0  0  0  0
 17 24  2  0  0  0  0
 19 21  1  0  0  0  0
 19 20  1  0  0  0  0
 20 22  1  0  0  0  0
 22 23  1  0  0  0  0
 22 26  1  1  0  0  0
 23 25  1  0  0  0  0
 24 25  1  0  0  0  0
 26 27  1  0  0  0  0
 27 31  1  0  0  0  0
 28 29  2  0  0  0  0
 28 33  1  0  0  0  0
 29 30  1  0  0  0  0
 30 31  2  0  0  0  0
 31 32  1  0  0  0  0
 32 33  2  0  0  0  0
M  END
>  <CHROM.1>
171.22414907,-173.66537527,-42.09898631,65.13614410,-87.95177906,149.08480367
63.91435324,-110.59936746,-42.34602228,26.13352962,7.66758324,42.26335942
72.89214157,-2.85718416,0.99477638,-0.12960461

>  <Name>
ligand

>  <RI>
0

>  <Rbt.Current_Directory>
/home/itssahil/PROJECTS/Mol_Feturizer/New_Systems/rnas/3SUH

>  <Rbt.Executable>
rbdock ($Id: //depot/dev/client3/rdock/2013.1/src/exe/rbdock.cxx#4 $)

>  <Rbt.Library>
libRbt.so (2013.1, Build901 2013/11/27)

>  <Rbt.Parameter_File>
/export/apps/rDock/src/rDock_2013.1_src/data/scripts/dock_solv.prm

>  <Rbt.Receptor>
prm/pocket_docking_4.prm

>  <SCORE>
-10.0183

>  <SCORE.INTER>
-5.69667

>  <SCORE.INTER.CONST>
1

>  <SCORE.INTER.POLAR>
0

>  <SCORE.INTER.ROT>
10

>  <SCORE.INTER.SOLV>
13.0113

>  <SCORE.INTER.VDW>
-18.4016

>  <SCORE.INTER.norm>
-0.167549

>  <SCORE.INTRA>
-4.32164

>  <SCORE.INTRA.DIHEDRAL>
-4.72314

>  <SCORE.INTRA.DIHEDRAL.0>
12.2703

>  <SCORE.INTRA.POLAR>
0

>  <SCORE.INTRA.POLAR.0>
0

>  <SCORE.INTRA.REPUL>
0

>  <SCORE.INTRA.REPUL.0>
0

>  <SCORE.INTRA.SOLV>
1.99399

>  <SCORE.INTRA.SOLV.lig_0>
-64.3214

>  <SCORE.INTRA.VDW>
-2.95706

>  <SCORE.INTRA.VDW.0>
-1.67301

>  <SCORE.INTRA.norm>
-0.127107

>  <SCORE.RESTR>
0

>  <SCORE.RESTR.CAVITY>
0

>  <SCORE.RESTR.norm>
0

>  <SCORE.SYSTEM>
0

>  <SCORE.SYSTEM.CONST>
0

>  <SCORE.SYSTEM.DIHEDRAL>
0

>  <SCORE.SYSTEM.SOLV>
0

>  <SCORE.SYSTEM.norm>
0

>  <SCORE.heavy>
34

>  <SCORE.norm>
-0.294656

>  <RMSD>
3.222

$$$$
ligand
 OpenBabel11021811483D
libRbt.so/2013.1/901 2013/11/27
 34 36  0  0  0  0  0  0  0  0999 V2000
    6.1465   40.3387   73.9789 N   0  0  0  0  0  0  0  0  0  0  0  0
    5.7315   40.0275   75.3666 C   0  0  1  0  0  0  0  0  0  0  0  0
    7.0397   41.2849   73.6610 C   0  0  0  0  0  0  0  0  0  0  0  0
    7.6146   42.0026   74.4841 O   0  0  0  0  0  0  0  0  0  0  0  0
   12.8243   46.2459   71.4247 N   0  0  0  0  0  0  0  0  0  0  0  0
    6.9634   39.6470   76.2049 C   0  0  0  0  0  0  0  0  0  0  0  0
    6.5619   39.0172   77.5456 C   0  0  0  0  0  0  0  0  0  0  0  0
    5.8886   40.0477   78.4648 C   0  0  0  0  0  0  0  0  0  0  0  0
    6.5158   41.1092   78.6905 O   0  0  0  0  0  0  0  0  0  0  0  0
    4.7596   39.7523   78.9197 O   0  0  0  0  0  0  0  0  0  0  0  0
   12.3059   45.1430   69.4566 N   0  0  0  0  0  0  0  0  0  0  0  0
    5.5612   42.3291   76.0156 O   0  0  0  0  0  0  0  0  0  0  0  0
   12.3711   45.1624   70.7993 C   0  0  0  0  0  0  0  0  0  0  0  0
    3.8738   40.9620   76.5374 O   0  0  0  0  0  0  0  0  0  0  0  0
   11.9662   44.0523   71.5511 N   0  0  0  0  0  0  0  0  0  0  0  0
   11.4905   42.9292   70.8879 C   0  0  0  0  0  0  0  0  0  0  0  0
   11.4060   42.9538   69.5020 C   0  0  0  0  0  0  0  0  0  0  0  0
   11.1199   41.9469   71.5259 O   0  0  0  0  0  0  0  0  0  0  0  0
   11.2960   40.6226   69.2667 C   0  0  0  0  0  0  0  0  0  0  0  0
   11.0009   41.8290   68.7921 N   0  0  0  0  0  0  0  0  0  0  0  0
   12.4669   40.2807   69.4166 O   0  0  0  0  0  0  0  0  0  0  0  0
   10.4382   41.9856   67.4463 C   0  0  2  0  0  0  0  0  0  0  0  0
   11.3677   42.8841   66.6265 C   0  0  0  0  0  0  0  0  0  0  0  0
   11.8489   44.0663   68.7995 C   0  0  0  0  0  0  0  0  0  0  0  0
   11.8041   44.0720   67.4010 N   0  0  0  0  0  0  0  0  0  0  0  0
    9.0364   42.6006   67.5190 C   0  0  0  0  0  0  0  0  0  0  0  0
    8.1000   41.6295   68.0982 N   0  0  0  0  0  0  0  0  0  0  0  0
    7.3520   41.3929   72.1575 C   0  0  0  0  0  0  0  0  0  0  0  0
    7.9257   40.3228   71.4751 C   0  0  0  0  0  0  0  0  0  0  0  0
    8.1564   40.4019   70.1031 C   0  0  0  0  0  0  0  0  0  0  0  0
    7.8576   41.5684   69.4071 C   0  0  0  0  0  0  0  0  0  0  0  0
    7.2928   42.6411   70.0886 C   0  0  0  0  0  0  0  0  0  0  0  0
    7.0287   42.5501   71.4545 C   0  0  0  0  0  0  0  0  0  0  0  0
    4.9940   41.2099   76.0282 C   0  0  0  0  0  0  0  0  0  0  0  0
  1  3  1  0  0  0  0
  2  1  1  6  0  0  0
  2  6  1  0  0  0  0
  2 34  1  0  0  0  0
  3  4  2  0  0  0  0
  3 28  1  0  0  0  0
  5 13  1  0  0  0  0
  6  7  1  0  0  0  0
  7  8  1  0  0  0  0
  8  9  1  0  0  0  0
  8 10  1  0  0  0  0
 11 13  2  0  0  0  0
 11 24  1  0  0  0  0
 12 34  1  0  0  0  0
 13 15  1  0  0  0  0
 14 34  1  0  0  0  0
 15 16  1  0  0  0  0
 16 17  1  0  0  0  0
 16 18  2  0  0  0  0
 17 20  1  0  0  0  0
 17 24  2  0  0  0  0
 19 21  1  0  0  0  0
 19 20  1  0  0  0  0
 20 22  1  0  0  0  0
 22 23  1  0  0  0  0
 22 26  1  1  0  0  0
 23 25  1  0  0  0  0
 24 25  1  0  0  0  0
 26 27  1  0  0  0  0
 27 31  1  0  0  0  0
 28 29  2  0  0  0  0
 28 33  1  0  0  0  0
 29 30  1  0  0  0  0
 30 31  2  0  0  0  0
 31 32  1  0  0  0  0
 32 33  2  0  0  0  0
M  END
>  <CHROM.1>
-57.59738166,-167.21135693,-52.78455293,-68.03810494,-54.09070258,-61.25635855
-69.71796631,91.06627175,-118.63385174,-62.34662877,8.74440487,41.88691623
72.14237762,2.31974711,0.62493809,1.38260983

>  <Name>
ligand

>  <RI>
0

>  <Rbt.Current_Directory>
/home/itssahil/PROJECTS/Mol_Feturizer/New_Systems/rnas/3SUH

>  <Rbt.Executable>
rbdock ($Id: //depot/dev/client3/rdock/2013.1/src/exe/rbdock.cxx#4 $)

>  <Rbt.Library>
libRbt.so (2013.1, Build901 2013/11/27)

>  <Rbt.Parameter_File>
/export/apps/rDock/src/rDock_2013.1_src/data/scripts/dock_solv.prm

>  <Rbt.Receptor>
prm/pocket_docking_6.prm

>  <SCORE>
-16.0506

>  <SCORE.INTER>
-10.9875

>  <SCORE.INTER.CONST>
1

>  <SCORE.INTER.POLAR>
0

>  <SCORE.INTER.ROT>
10

>  <SCORE.INTER.SOLV>
17.3444

>  <SCORE.INTER.VDW>
-23.3731

>  <SCORE.INTER.norm>
-0.32316

>  <SCORE.INTRA>
-5.06317

>  <SCORE.INTRA.DIHEDRAL>
-4.11958

>  <SCORE.INTRA.DIHEDRAL.0>
12.2703

>  <SCORE.INTRA.POLAR>
0

>  <SCORE.INTRA.POLAR.0>
0

>  <SCORE.INTRA.REPUL>
0

>  <SCORE.INTRA.REPUL.0>
0

>  <SCORE.INTRA.SOLV>
-0.0431882

>  <SCORE.INTRA.SOLV.lig_0>
-64.3214

>  <SCORE.INTRA.VDW>
-2.98179

>  <SCORE.INTRA.VDW.0>
-1.67301

>  <SCORE.INTRA.norm>
-0.148917

>  <SCORE.RESTR>
0

>  <SCORE.RESTR.CAVITY>
0

>  <SCORE.RESTR.norm>
0

>  <SCORE.SYSTEM>
0

>  <SCORE.SYSTEM.CONST>
0

>  <SCORE.SYSTEM.DIHEDRAL>
0

>  <SCORE.SYSTEM.SOLV>
0

>  <SCORE.SYSTEM.norm>
0

>  <SCORE.heavy>
34

>  <SCORE.norm>
-0.472077

>  <RMSD>
3.223

$$$$
ligand
 OpenBabel11021811483D
libRbt.so/2013.1/901 2013/11/27
 34 36  0  0  0  0  0  0  0  0999 V2000
    6.1710   42.4242   74.4744 N   0  0  0  0  0  0  0  0  0  0  0  0
    5.5820   42.2132   75.8173 C   0  0  1  0  0  0  0  0  0  0  0  0
    5.8087   43.4134   73.6471 C   0  0  0  0  0  0  0  0  0  0  0  0
    4.9458   44.2564   73.9077 O   0  0  0  0  0  0  0  0  0  0  0  0
   12.6940   46.1126   71.2654 N   0  0  0  0  0  0  0  0  0  0  0  0
    6.5968   41.4960   76.7235 C   0  0  0  0  0  0  0  0  0  0  0  0
    6.4800   39.9703   76.6055 C   0  0  0  0  0  0  0  0  0  0  0  0
    5.2268   39.4509   77.3266 C   0  0  0  0  0  0  0  0  0  0  0  0
    4.1188   39.6876   76.7905 O   0  0  0  0  0  0  0  0  0  0  0  0
    5.4046   38.8259   78.3974 O   0  0  0  0  0  0  0  0  0  0  0  0
   12.0071   44.9633   69.3771 N   0  0  0  0  0  0  0  0  0  0  0  0
    4.0112   43.5760   77.0101 O   0  0  0  0  0  0  0  0  0  0  0  0
   12.1749   45.0207   70.7098 C   0  0  0  0  0  0  0  0  0  0  0  0
    5.9577   44.4936   76.4120 O   0  0  0  0  0  0  0  0  0  0  0  0
   11.8085   43.9415   71.5239 N   0  0  0  0  0  0  0  0  0  0  0  0
   11.2634   42.8094   70.9335 C   0  0  0  0  0  0  0  0  0  0  0  0
   11.0738   42.7952   69.5579 C   0  0  0  0  0  0  0  0  0  0  0  0
   10.9249   41.8540   71.6276 O   0  0  0  0  0  0  0  0  0  0  0  0
   10.9041   40.4607   69.4034 C   0  0  0  0  0  0  0  0  0  0  0  0
   10.5956   41.6585   68.9155 N   0  0  0  0  0  0  0  0  0  0  0  0
   10.0325   39.7396   69.8836 O   0  0  0  0  0  0  0  0  0  0  0  0
    9.9347   41.7870   67.6121 C   0  0  2  0  0  0  0  0  0  0  0  0
   10.8151   42.6420   66.6970 C   0  0  0  0  0  0  0  0  0  0  0  0
   11.4819   43.8773   68.7899 C   0  0  0  0  0  0  0  0  0  0  0  0
   11.3307   43.8429   67.3993 N   0  0  0  0  0  0  0  0  0  0  0  0
    8.5539   42.4323   67.7717 C   0  0  0  0  0  0  0  0  0  0  0  0
    8.6348   43.5421   68.7293 N   0  0  0  0  0  0  0  0  0  0  0  0
    6.5960   43.4647   72.3253 C   0  0  0  0  0  0  0  0  0  0  0  0
    7.4127   42.4021   71.9462 C   0  0  0  0  0  0  0  0  0  0  0  0
    8.0810   42.4259   70.7237 C   0  0  0  0  0  0  0  0  0  0  0  0
    7.9755   43.5321   69.8874 C   0  0  0  0  0  0  0  0  0  0  0  0
    7.1674   44.5980   70.2684 C   0  0  0  0  0  0  0  0  0  0  0  0
    6.4702   44.5597   71.4751 C   0  0  0  0  0  0  0  0  0  0  0  0
    5.1438   43.5399   76.4711 C   0  0  0  0  0  0  0  0  0  0  0  0
  1  3  1  0  0  0  0
  2  1  1  6  0  0  0
  2  6  1  0  0  0  0
  2 34  1  0  0  0  0
  3  4  2  0  0  0  0
  3 28  1  0  0  0  0
  5 13  1  0  0  0  0
  6  7  1  0  0  0  0
  7  8  1  0  0  0  0
  8  9  1  0  0  0  0
  8 10  1  0  0  0  0
 11 13  2  0  0  0  0
 11 24  1  0  0  0  0
 12 34  1  0  0  0  0
 13 15  1  0  0  0  0
 14 34  1  0  0  0  0
 15 16  1  0  0  0  0
 16 17  1  0  0  0  0
 16 18  2  0  0  0  0
 17 20  1  0  0  0  0
 17 24  2  0  0  0  0
 19 21  1  0  0  0  0
 19 20  1  0  0  0  0
 20 22  1  0  0  0  0
 22 23  1  0  0  0  0
 22 26  1  1  0  0  0
 23 25  1  0  0  0  0
 24 25  1  0  0  0  0
 26 27  1  0  0  0  0
 27 31  1  0  0  0  0
 28 29  2  0  0  0  0
 28 33  1  0  0  0  0
 29 30  1  0  0  0  0
 30 31  2  0  0  0  0
 31 32  1  0  0  0  0
 32 33  2  0  0  0  0
M  END
>  <CHROM.1>
-153.34595588,-88.54127569,133.97557617,-74.10999333,72.24392849,113.15673133
41.94025037,-116.34916440,50.65053054,12.06837851,8.29211803,42.64579903
72.16869750,2.86483352,-0.91523828,3.00304904

>  <Name>
ligand

>  <RI>
0

>  <Rbt.Current_Directory>
/home/itssahil/PROJECTS/Mol_Feturizer/New_Systems/rnas/3SUH

>  <Rbt.Executable>
rbdock ($Id: //depot/dev/client3/rdock/2013.1/src/exe/rbdock.cxx#4 $)

>  <Rbt.Library>
libRbt.so (2013.1, Build901 2013/11/27)

>  <Rbt.Parameter_File>
/export/apps/rDock/src/rDock_2013.1_src/data/scripts/dock_solv.prm

>  <Rbt.Receptor>
prm/pocket_docking_2.prm

>  <SCORE>
-5.89344

>  <SCORE.INTER>
-6.25535

>  <SCORE.INTER.CONST>
1

>  <SCORE.INTER.POLAR>
0

>  <SCORE.INTER.ROT>
10

>  <SCORE.INTER.SOLV>
15.5547

>  <SCORE.INTER.VDW>
-19.6218

>  <SCORE.INTER.norm>
-0.183981

>  <SCORE.INTRA>
-0.854707

>  <SCORE.INTRA.DIHEDRAL>
0.565573

>  <SCORE.INTRA.DIHEDRAL.0>
12.2703

>  <SCORE.INTRA.POLAR>
0

>  <SCORE.INTRA.POLAR.0>
0

>  <SCORE.INTRA.REPUL>
0

>  <SCORE.INTRA.REPUL.0>
0

>  <SCORE.INTRA.SOLV>
2.72207

>  <SCORE.INTRA.SOLV.lig_0>
-64.3214

>  <SCORE.INTRA.VDW>
-2.49853

>  <SCORE.INTRA.VDW.0>
-1.67301

>  <SCORE.INTRA.norm>
-0.0251384

>  <SCORE.RESTR>
1.21662

>  <SCORE.RESTR.CAVITY>
1.21662

>  <SCORE.RESTR.norm>
0.0357828

>  <SCORE.SYSTEM>
0

>  <SCORE.SYSTEM.CONST>
0

>  <SCORE.SYSTEM.DIHEDRAL>
0

>  <SCORE.SYSTEM.SOLV>
0

>  <SCORE.SYSTEM.norm>
0

>  <SCORE.heavy>
34

>  <SCORE.norm>
-0.173336

>  <RMSD>
3.227

$$$$
ligand
 OpenBabel11021811483D
libRbt.so/2013.1/901 2013/11/27
 34 36  0  0  0  0  0  0  0  0999 V2000
    5.7274   41.7113   75.4404 N   0  0  0  0  0  0  0  0  0  0  0  0
    5.1287   41.9916   76.7663 C   0  0  1  0  0  0  0  0  0  0  0  0
    5.7804   40.4924   74.8877 C   0  0  0  0  0  0  0  0  0  0  0  0
    5.3402   39.4688   75.4183 O   0  0  0  0  0  0  0  0  0  0  0  0
   12.2485   46.7575   71.3500 N   0  0  0  0  0  0  0  0  0  0  0  0
    5.5100   43.4109   77.2196 C   0  0  0  0  0  0  0  0  0  0  0  0
    5.0035   43.7060   78.6380 C   0  0  0  0  0  0  0  0  0  0  0  0
    5.6952   42.8068   79.6740 C   0  0  0  0  0  0  0  0  0  0  0  0
    5.2499   41.6431   79.8095 O   0  0  0  0  0  0  0  0  0  0  0  0
    6.6562   43.3025   80.3061 O   0  0  0  0  0  0  0  0  0  0  0  0
   10.4495   45.4865   70.6385 N   0  0  0  0  0  0  0  0  0  0  0  0
    3.0690   41.1309   77.6407 O   0  0  0  0  0  0  0  0  0  0  0  0
   11.7378   45.8521   70.5196 C   0  0  0  0  0  0  0  0  0  0  0  0
    2.9778   42.4469   75.8382 O   0  0  0  0  0  0  0  0  0  0  0  0
   12.5524   45.2894   69.5289 N   0  0  0  0  0  0  0  0  0  0  0  0
   12.0099   44.3420   68.6712 C   0  0  0  0  0  0  0  0  0  0  0  0
   10.6848   43.9632   68.8416 C   0  0  0  0  0  0  0  0  0  0  0  0
   12.7071   43.8267   67.8008 O   0  0  0  0  0  0  0  0  0  0  0  0
   10.4569   43.0584   66.6895 C   0  0  0  0  0  0  0  0  0  0  0  0
   10.0799   43.0698   67.9644 N   0  0  0  0  0  0  0  0  0  0  0  0
   11.2187   42.1889   66.2723 O   0  0  0  0  0  0  0  0  0  0  0  0
    8.9096   42.3026   68.4046 C   0  0  2  0  0  0  0  0  0  0  0  0
    7.9012   43.2645   69.0380 C   0  0  0  0  0  0  0  0  0  0  0  0
    9.9089   44.5725   69.8184 C   0  0  0  0  0  0  0  0  0  0  0  0
    8.5618   44.2215   69.9595 N   0  0  0  0  0  0  0  0  0  0  0  0
    9.3220   41.2272   69.4156 C   0  0  0  0  0  0  0  0  0  0  0  0
    8.1646   40.3846   69.7406 N   0  0  0  0  0  0  0  0  0  0  0  0
    6.4024   40.4531   73.4800 C   0  0  0  0  0  0  0  0  0  0  0  0
    6.4922   41.6123   72.7133 C   0  0  0  0  0  0  0  0  0  0  0  0
    7.1055   41.5862   71.4624 C   0  0  0  0  0  0  0  0  0  0  0  0
    7.5953   40.3915   70.9455 C   0  0  0  0  0  0  0  0  0  0  0  0
    7.4985   39.2311   71.7060 C   0  0  0  0  0  0  0  0  0  0  0  0
    6.9170   39.2633   72.9727 C   0  0  0  0  0  0  0  0  0  0  0  0
    3.5933   41.8428   76.7502 C   0  0  0  0  0  0  0  0  0  0  0  0
  1  3  1  0  0  0  0
  2  1  1  6  0  0  0
  2  6  1  0  0  0  0
  2 34  1  0  0  0  0
  3  4  2  0  0  0  0
  3 28  1  0  0  0  0
  5 13  1  0  0  0  0
  6  7  1  0  0  0  0
  7  8  1  0  0  0  0
  8  9  1  0  0  0  0
  8 10  1  0  0  0  0
 11 13  2  0  0  0  0
 11 24  1  0  0  0  0
 12 34  1  0  0  0  0
 13 15  1  0  0  0  0
 14 34  1  0  0  0  0
 15 16  1  0  0  0  0
 16 17  1  0  0  0  0
 16 18  2  0  0  0  0
 17 20  1  0  0  0  0
 17 24  2  0  0  0  0
 19 21  1  0  0  0  0
 19 20  1  0  0  0  0
 20 22  1  0  0  0  0
 22 23  1  0  0  0  0
 22 26  1  1  0  0  0
 23 25  1  0  0  0  0
 24 25  1  0  0  0  0
 26 27  1  0  0  0  0
 27 31  1  0  0  0  0
 28 29  2  0  0  0  0
 28 33  1  0  0  0  0
 29 30  1  0  0  0  0
 30 31  2  0  0  0  0
 31 32  1  0  0  0  0
 32 33  2  0  0  0  0
M  END
>  <CHROM.1>
167.61905564,-175.52621776,129.53511425,65.23274535,-81.21372942,101.64765584
-174.31964298,-111.98657799,57.54422376,-19.20214208,7.87609301,42.55218931
72.60706407,2.45503801,0.80181928,1.03910159

>  <Name>
ligand

>  <RI>
0

>  <Rbt.Current_Directory>
/home/itssahil/PROJECTS/Mol_Feturizer/New_Systems/rnas/3SUH

>  <Rbt.Executable>
rbdock ($Id: //depot/dev/client3/rdock/2013.1/src/exe/rbdock.cxx#4 $)

>  <Rbt.Library>
libRbt.so (2013.1, Build901 2013/11/27)

>  <Rbt.Parameter_File>
/export/apps/rDock/src/rDock_2013.1_src/data/scripts/dock_solv.prm

>  <Rbt.Receptor>
prm/pocket_docking_6.prm

>  <SCORE>
-12.8242

>  <SCORE.INTER>
-9.05746

>  <SCORE.INTER.CONST>
1

>  <SCORE.INTER.POLAR>
0

>  <SCORE.INTER.ROT>
10

>  <SCORE.INTER.SOLV>
15.6762

>  <SCORE.INTER.VDW>
-21.5304

>  <SCORE.INTER.norm>
-0.266396

>  <SCORE.INTRA>
-3.77674

>  <SCORE.INTRA.DIHEDRAL>
-3.95216

>  <SCORE.INTRA.DIHEDRAL.0>
12.2703

>  <SCORE.INTRA.POLAR>
0

>  <SCORE.INTRA.POLAR.0>
0

>  <SCORE.INTRA.REPUL>
0

>  <SCORE.INTRA.REPUL.0>
0

>  <SCORE.INTRA.SOLV>
-0.666913

>  <SCORE.INTRA.SOLV.lig_0>
-64.3214

>  <SCORE.INTRA.VDW>
-1.4672

>  <SCORE.INTRA.VDW.0>
-1.67301

>  <SCORE.INTRA.norm>
-0.111081

>  <SCORE.RESTR>
0.0100134

>  <SCORE.RESTR.CAVITY>
0.0100134

>  <SCORE.RESTR.norm>
0.000294511

>  <SCORE.SYSTEM>
0

>  <SCORE.SYSTEM.CONST>
0

>  <SCORE.SYSTEM.DIHEDRAL>
0

>  <SCORE.SYSTEM.SOLV>
0

>  <SCORE.SYSTEM.norm>
0

>  <SCORE.heavy>
34

>  <SCORE.norm>
-0.377182

>  <RMSD>
3.237

$$$$
ligand
 OpenBabel11021811483D
libRbt.so/2013.1/901 2013/11/27
 34 36  0  0  0  0  0  0  0  0999 V2000
    6.0247   40.5598   74.8824 N   0  0  0  0  0  0  0  0  0  0  0  0
    5.7503   39.7951   76.1212 C   0  0  1  0  0  0  0  0  0  0  0  0
    5.7882   41.8712   74.7465 C   0  0  0  0  0  0  0  0  0  0  0  0
    5.3155   42.5878   75.6332 O   0  0  0  0  0  0  0  0  0  0  0  0
   12.9622   40.8082   73.0559 N   0  0  0  0  0  0  0  0  0  0  0  0
    6.5232   40.4154   77.2973 C   0  0  0  0  0  0  0  0  0  0  0  0
    6.3842   39.5723   78.5721 C   0  0  0  0  0  0  0  0  0  0  0  0
    7.1466   40.2073   79.7449 C   0  0  0  0  0  0  0  0  0  0  0  0
    6.5333   41.0565   80.4332 O   0  0  0  0  0  0  0  0  0  0  0  0
    8.3259   39.8275   79.9291 O   0  0  0  0  0  0  0  0  0  0  0  0
   12.3434   42.0808   71.2240 N   0  0  0  0  0  0  0  0  0  0  0  0
    3.6652   38.6397   76.3765 O   0  0  0  0  0  0  0  0  0  0  0  0
   12.0776   41.1020   72.1064 C   0  0  0  0  0  0  0  0  0  0  0  0
    3.7039   40.8382   76.7690 O   0  0  0  0  0  0  0  0  0  0  0  0
   10.8763   40.3850   72.0388 N   0  0  0  0  0  0  0  0  0  0  0  0
    9.9587   40.7037   71.0469 C   0  0  0  0  0  0  0  0  0  0  0  0
   10.2502   41.7414   70.1714 C   0  0  0  0  0  0  0  0  0  0  0  0
    8.8936   40.0959   70.9735 O   0  0  0  0  0  0  0  0  0  0  0  0
    8.6948   41.0756   68.5467 C   0  0  0  0  0  0  0  0  0  0  0  0
    9.3932   42.0504   69.1210 N   0  0  0  0  0  0  0  0  0  0  0  0
    9.2527   40.2475   67.8303 O   0  0  0  0  0  0  0  0  0  0  0  0
    9.4208   43.3951   68.5351 C   0  0  2  0  0  0  0  0  0  0  0  0
   10.8733   43.7666   68.2257 C   0  0  0  0  0  0  0  0  0  0  0  0
   11.4682   42.4020   70.2592 C   0  0  0  0  0  0  0  0  0  0  0  0
   11.7786   43.4177   69.3482 N   0  0  0  0  0  0  0  0  0  0  0  0
    8.8084   44.4144   69.5017 C   0  0  0  0  0  0  0  0  0  0  0  0
    7.4088   44.0619   69.7703 N   0  0  0  0  0  0  0  0  0  0  0  0
    6.2016   42.4598   73.3854 C   0  0  0  0  0  0  0  0  0  0  0  0
    6.1889   43.8368   73.1766 C   0  0  0  0  0  0  0  0  0  0  0  0
    6.6163   44.3711   71.9627 C   0  0  0  0  0  0  0  0  0  0  0  0
    7.0183   43.5320   70.9289 C   0  0  0  0  0  0  0  0  0  0  0  0
    7.0231   42.1562   71.1327 C   0  0  0  0  0  0  0  0  0  0  0  0
    6.6294   41.6224   72.3591 C   0  0  0  0  0  0  0  0  0  0  0  0
    4.2440   39.7506   76.4512 C   0  0  0  0  0  0  0  0  0  0  0  0
  1  3  1  0  0  0  0
  2  1  1  6  0  0  0
  2  6  1  0  0  0  0
  2 34  1  0  0  0  0
  3  4  2  0  0  0  0
  3 28  1  0  0  0  0
  5 13  1  0  0  0  0
  6  7  1  0  0  0  0
  7  8  1  0  0  0  0
  8  9  1  0  0  0  0
  8 10  1  0  0  0  0
 11 13  2  0  0  0  0
 11 24  1  0  0  0  0
 12 34  1  0  0  0  0
 13 15  1  0  0  0  0
 14 34  1  0  0  0  0
 15 16  1  0  0  0  0
 16 17  1  0  0  0  0
 16 18  2  0  0  0  0
 17 20  1  0  0  0  0
 17 24  2  0  0  0  0
 19 21  1  0  0  0  0
 19 20  1  0  0  0  0
 20 22  1  0  0  0  0
 22 23  1  0  0  0  0
 22 26  1  1  0  0  0
 23 25  1  0  0  0  0
 24 25  1  0  0  0  0
 26 27  1  0  0  0  0
 27 31  1  0  0  0  0
 28 29  2  0  0  0  0
 28 33  1  0  0  0  0
 29 30  1  0  0  0  0
 30 31  2  0  0  0  0
 31 32  1  0  0  0  0
 32 33  2  0  0  0  0
M  END
>  <CHROM.1>
-57.72820072,-174.16447010,112.85091632,-179.38273404,87.43902420,-71.70158518
-60.89736313,106.13537374,90.34603998,-170.87542900,8.01877613,41.55816651
73.07200159,2.04593447,-0.18311799,1.90526164

>  <Name>
ligand

>  <RI>
0

>  <Rbt.Current_Directory>
/home/itssahil/PROJECTS/Mol_Feturizer/New_Systems/rnas/3SUH

>  <Rbt.Executable>
rbdock ($Id: //depot/dev/client3/rdock/2013.1/src/exe/rbdock.cxx#4 $)

>  <Rbt.Library>
libRbt.so (2013.1, Build901 2013/11/27)

>  <Rbt.Parameter_File>
/export/apps/rDock/src/rDock_2013.1_src/data/scripts/dock_solv.prm

>  <Rbt.Receptor>
prm/pocket_docking_3.prm

>  <SCORE>
-8.59586

>  <SCORE.INTER>
-4.10097

>  <SCORE.INTER.CONST>
1

>  <SCORE.INTER.POLAR>
0

>  <SCORE.INTER.ROT>
10

>  <SCORE.INTER.SOLV>
13.2306

>  <SCORE.INTER.VDW>
-17.4109

>  <SCORE.INTER.norm>
-0.120617

>  <SCORE.INTRA>
-4.49489

>  <SCORE.INTRA.DIHEDRAL>
-4.87273

>  <SCORE.INTRA.DIHEDRAL.0>
12.2703

>  <SCORE.INTRA.POLAR>
0

>  <SCORE.INTRA.POLAR.0>
0

>  <SCORE.INTRA.REPUL>
0

>  <SCORE.INTRA.REPUL.0>
0

>  <SCORE.INTRA.SOLV>
0.187023

>  <SCORE.INTRA.SOLV.lig_0>
-64.3214

>  <SCORE.INTRA.VDW>
-2.15204

>  <SCORE.INTRA.VDW.0>
-1.67301

>  <SCORE.INTRA.norm>
-0.132203

>  <SCORE.RESTR>
0

>  <SCORE.RESTR.CAVITY>
0

>  <SCORE.RESTR.norm>
0

>  <SCORE.SYSTEM>
0

>  <SCORE.SYSTEM.CONST>
0

>  <SCORE.SYSTEM.DIHEDRAL>
0

>  <SCORE.SYSTEM.SOLV>
0

>  <SCORE.SYSTEM.norm>
0

>  <SCORE.heavy>
34

>  <SCORE.norm>
-0.252819

>  <RMSD>
3.263

$$$$
ligand
 OpenBabel11021811483D
libRbt.so/2013.1/901 2013/11/27
 34 36  0  0  0  0  0  0  0  0999 V2000
    5.4690   41.9322   74.6886 N   0  0  0  0  0  0  0  0  0  0  0  0
    4.7699   42.1030   75.9836 C   0  0  1  0  0  0  0  0  0  0  0  0
    6.0482   40.7895   74.2977 C   0  0  0  0  0  0  0  0  0  0  0  0
    6.0668   39.7544   74.9696 O   0  0  0  0  0  0  0  0  0  0  0  0
    7.0683   46.0487   70.9402 N   0  0  0  0  0  0  0  0  0  0  0  0
    5.7975   42.1528   77.1267 C   0  0  0  0  0  0  0  0  0  0  0  0
    5.1170   42.0942   78.5011 C   0  0  0  0  0  0  0  0  0  0  0  0
    6.1536   42.0734   79.6347 C   0  0  0  0  0  0  0  0  0  0  0  0
    6.8781   41.0549   79.7289 O   0  0  0  0  0  0  0  0  0  0  0  0
    6.2007   43.0781   80.3810 O   0  0  0  0  0  0  0  0  0  0  0  0
    8.0398   44.6527   69.3699 N   0  0  0  0  0  0  0  0  0  0  0  0
    2.7631   43.2944   76.5318 O   0  0  0  0  0  0  0  0  0  0  0  0
    8.0215   45.1829   70.6052 C   0  0  0  0  0  0  0  0  0  0  0  0
    4.3963   44.4082   75.4922 O   0  0  0  0  0  0  0  0  0  0  0  0
    8.9968   44.8339   71.5478 N   0  0  0  0  0  0  0  0  0  0  0  0
    9.9837   43.9257   71.1886 C   0  0  0  0  0  0  0  0  0  0  0  0
    9.9551   43.3725   69.9153 C   0  0  0  0  0  0  0  0  0  0  0  0
   10.8440   43.5962   72.0013 O   0  0  0  0  0  0  0  0  0  0  0  0
   12.1974   42.6846   69.9455 C   0  0  0  0  0  0  0  0  0  0  0  0
   10.9607   42.5122   69.4886 N   0  0  0  0  0  0  0  0  0  0  0  0
   12.8305   41.7363   70.4042 O   0  0  0  0  0  0  0  0  0  0  0  0
   10.6910   41.5653   68.4012 C   0  0  2  0  0  0  0  0  0  0  0  0
   10.0456   42.3233   67.2383 C   0  0  0  0  0  0  0  0  0  0  0  0
    8.9859   43.7738   69.0059 C   0  0  0  0  0  0  0  0  0  0  0  0
    8.9853   43.2483   67.7090 N   0  0  0  0  0  0  0  0  0  0  0  0
    9.7625   40.4452   68.8828 C   0  0  0  0  0  0  0  0  0  0  0  0
    8.4266   40.9916   69.1508 N   0  0  0  0  0  0  0  0  0  0  0  0
    6.6689   40.8340   72.8897 C   0  0  0  0  0  0  0  0  0  0  0  0
    6.7209   42.0293   72.1766 C   0  0  0  0  0  0  0  0  0  0  0  0
    7.3328   42.0796   70.9257 C   0  0  0  0  0  0  0  0  0  0  0  0
    7.8592   40.9257   70.3548 C   0  0  0  0  0  0  0  0  0  0  0  0
    7.8002   39.7294   71.0616 C   0  0  0  0  0  0  0  0  0  0  0  0
    7.2199   39.6854   72.3285 C   0  0  0  0  0  0  0  0  0  0  0  0
    3.8999   43.3767   76.0071 C   0  0  0  0  0  0  0  0  0  0  0  0
  1  3  1  0  0  0  0
  2  1  1  6  0  0  0
  2  6  1  0  0  0  0
  2 34  1  0  0  0  0
  3  4  2  0  0  0  0
  3 28  1  0  0  0  0
  5 13  1  0  0  0  0
  6  7  1  0  0  0  0
  7  8  1  0  0  0  0
  8  9  1  0  0  0  0
  8 10  1  0  0  0  0
 11 13  2  0  0  0  0
 11 24  1  0  0  0  0
 12 34  1  0  0  0  0
 13 15  1  0  0  0  0
 14 34  1  0  0  0  0
 15 16  1  0  0  0  0
 16 17  1  0  0  0  0
 16 18  2  0  0  0  0
 17 20  1  0  0  0  0
 17 24  2  0  0  0  0
 19 21  1  0  0  0  0
 19 20  1  0  0  0  0
 20 22  1  0  0  0  0
 22 23  1  0  0  0  0
 22 26  1  1  0  0  0
 23 25  1  0  0  0  0
 24 25  1  0  0  0  0
 26 27  1  0  0  0  0
 27 31  1  0  0  0  0
 28 29  2  0  0  0  0
 28 33  1  0  0  0  0
 29 30  1  0  0  0  0
 30 31  2  0  0  0  0
 31 32  1  0  0  0  0
 32 33  2  0  0  0  0
M  END
>  <CHROM.1>
72.65100926,-170.54452559,138.13565501,177.15143234,-67.05607305,130.45293532
68.29638646,-120.01565325,129.24627459,6.26436220,7.73309530,42.43847155
72.72262415,2.31593818,-0.76445467,2.17876613

>  <Name>
ligand

>  <RI>
0

>  <Rbt.Current_Directory>
/home/itssahil/PROJECTS/Mol_Feturizer/New_Systems/rnas/3SUH

>  <Rbt.Executable>
rbdock ($Id: //depot/dev/client3/rdock/2013.1/src/exe/rbdock.cxx#4 $)

>  <Rbt.Library>
libRbt.so (2013.1, Build901 2013/11/27)

>  <Rbt.Parameter_File>
/export/apps/rDock/src/rDock_2013.1_src/data/scripts/dock_solv.prm

>  <Rbt.Receptor>
prm/pocket_docking_3.prm

>  <SCORE>
-9.68376

>  <SCORE.INTER>
-6.32445

>  <SCORE.INTER.CONST>
1

>  <SCORE.INTER.POLAR>
0

>  <SCORE.INTER.ROT>
10

>  <SCORE.INTER.SOLV>
15.7446

>  <SCORE.INTER.VDW>
-19.7312

>  <SCORE.INTER.norm>
-0.186013

>  <SCORE.INTRA>
-3.36441

>  <SCORE.INTRA.DIHEDRAL>
-4.01365

>  <SCORE.INTRA.DIHEDRAL.0>
12.2703

>  <SCORE.INTRA.POLAR>
0

>  <SCORE.INTRA.POLAR.0>
0

>  <SCORE.INTRA.REPUL>
0

>  <SCORE.INTRA.REPUL.0>
0

>  <SCORE.INTRA.SOLV>
1.82894

>  <SCORE.INTRA.SOLV.lig_0>
-64.3214

>  <SCORE.INTRA.VDW>
-2.27205

>  <SCORE.INTRA.VDW.0>
-1.67301

>  <SCORE.INTRA.norm>
-0.0989531

>  <SCORE.RESTR>
0.00509099

>  <SCORE.RESTR.CAVITY>
0.00509099

>  <SCORE.RESTR.norm>
0.000149735

>  <SCORE.SYSTEM>
0

>  <SCORE.SYSTEM.CONST>
0

>  <SCORE.SYSTEM.DIHEDRAL>
0

>  <SCORE.SYSTEM.SOLV>
0

>  <SCORE.SYSTEM.norm>
0

>  <SCORE.heavy>
34

>  <SCORE.norm>
-0.284817

>  <RMSD>
3.283

$$$$
ligand
 OpenBabel11021811483D
libRbt.so/2013.1/901 2013/11/27
 34 36  0  0  0  0  0  0  0  0999 V2000
    5.2214   40.7277   77.2608 N   0  0  0  0  0  0  0  0  0  0  0  0
    4.6769   40.1661   78.5189 C   0  0  1  0  0  0  0  0  0  0  0  0
    4.8711   41.9206   76.7623 C   0  0  0  0  0  0  0  0  0  0  0  0
    4.0572   42.6830   77.2911 O   0  0  0  0  0  0  0  0  0  0  0  0
   12.7115   41.8599   73.1047 N   0  0  0  0  0  0  0  0  0  0  0  0
    5.0361   41.0862   79.6976 C   0  0  0  0  0  0  0  0  0  0  0  0
    5.0498   40.3210   81.0279 C   0  0  0  0  0  0  0  0  0  0  0  0
    6.2903   39.4216   81.1394 C   0  0  0  0  0  0  0  0  0  0  0  0
    6.3988   38.4906   80.3072 O   0  0  0  0  0  0  0  0  0  0  0  0
    7.1047   39.6865   82.0535 O   0  0  0  0  0  0  0  0  0  0  0  0
   11.2062   43.2187   71.9884 N   0  0  0  0  0  0  0  0  0  0  0  0
    2.5782   40.2203   77.3611 O   0  0  0  0  0  0  0  0  0  0  0  0
   11.7451   42.0057   72.2017 C   0  0  0  0  0  0  0  0  0  0  0  0
    2.5810   39.5892   79.5037 O   0  0  0  0  0  0  0  0  0  0  0  0
   11.3003   40.8890   71.4828 N   0  0  0  0  0  0  0  0  0  0  0  0
   10.2880   41.0523   70.5468 C   0  0  0  0  0  0  0  0  0  0  0  0
    9.7310   42.3125   70.3738 C   0  0  0  0  0  0  0  0  0  0  0  0
    9.8739   40.0860   69.9111 O   0  0  0  0  0  0  0  0  0  0  0  0
    8.8050   41.8353   68.2721 C   0  0  0  0  0  0  0  0  0  0  0  0
    8.7637   42.5373   69.4005 N   0  0  0  0  0  0  0  0  0  0  0  0
    7.9255   41.0165   68.0145 O   0  0  0  0  0  0  0  0  0  0  0  0
    7.8428   43.6704   69.5424 C   0  0  2  0  0  0  0  0  0  0  0  0
    8.6568   44.9295   69.8514 C   0  0  0  0  0  0  0  0  0  0  0  0
   10.2274   43.3947   71.0879 C   0  0  0  0  0  0  0  0  0  0  0  0
    9.6947   44.6717   70.8799 N   0  0  0  0  0  0  0  0  0  0  0  0
    6.8335   43.4044   70.6645 C   0  0  0  0  0  0  0  0  0  0  0  0
    7.5380   43.2989   71.9482 N   0  0  0  0  0  0  0  0  0  0  0  0
    5.6073   42.3169   75.4698 C   0  0  0  0  0  0  0  0  0  0  0  0
    6.7687   41.6516   75.0844 C   0  0  0  0  0  0  0  0  0  0  0  0
    7.4029   41.9738   73.8862 C   0  0  0  0  0  0  0  0  0  0  0  0
    6.9081   42.9955   73.0827 C   0  0  0  0  0  0  0  0  0  0  0  0
    5.7535   43.6670   73.4704 C   0  0  0  0  0  0  0  0  0  0  0  0
    5.0982   43.3212   74.6514 C   0  0  0  0  0  0  0  0  0  0  0  0
    3.1475   39.9752   78.4522 C   0  0  0  0  0  0  0  0  0  0  0  0
  1  3  1  0  0  0  0
  2  1  1  6  0  0  0
  2  6  1  0  0  0  0
  2 34  1  0  0  0  0
  3  4  2  0  0  0  0
  3 28  1  0  0  0  0
  5 13  1  0  0  0  0
  6  7  1  0  0  0  0
  7  8  1  0  0  0  0
  8  9  1  0  0  0  0
  8 10  1  0  0  0  0
 11 13  2  0  0  0  0
 11 24  1  0  0  0  0
 12 34  1  0  0  0  0
 13 15  1  0  0  0  0
 14 34  1  0  0  0  0
 15 16  1  0  0  0  0
 16 17  1  0  0  0  0
 16 18  2  0  0  0  0
 17 20  1  0  0  0  0
 17 24  2  0  0  0  0
 19 21  1  0  0  0  0
 19 20  1  0  0  0  0
 20 22  1  0  0  0  0
 22 23  1  0  0  0  0
 22 26  1  1  0  0  0
 23 25  1  0  0  0  0
 24 25  1  0  0  0  0
 26 27  1  0  0  0  0
 27 31  1  0  0  0  0
 28 29  2  0  0  0  0
 28 33  1  0  0  0  0
 29 30  1  0  0  0  0
 30 31  2  0  0  0  0
 31 32  1  0  0  0  0
 32 33  2  0  0  0  0
M  END
>  <CHROM.1>
-61.31365473,-155.67615564,4.50799172,73.97344765,-63.52935014,112.64289390
63.75305501,-176.17905158,129.30081240,-16.10232698,7.24802953,41.71733061
74.30372456,2.03921411,-0.19654068,1.91338938

>  <Name>
ligand

>  <RI>
0

>  <Rbt.Current_Directory>
/home/itssahil/PROJECTS/Mol_Feturizer/New_Systems/rnas/3SUH

>  <Rbt.Executable>
rbdock ($Id: //depot/dev/client3/rdock/2013.1/src/exe/rbdock.cxx#4 $)

>  <Rbt.Library>
libRbt.so (2013.1, Build901 2013/11/27)

>  <Rbt.Parameter_File>
/export/apps/rDock/src/rDock_2013.1_src/data/scripts/dock_solv.prm

>  <Rbt.Receptor>
prm/pocket_docking_2.prm

>  <SCORE>
3.38832

>  <SCORE.INTER>
2.01081

>  <SCORE.INTER.CONST>
1

>  <SCORE.INTER.POLAR>
0

>  <SCORE.INTER.ROT>
10

>  <SCORE.INTER.SOLV>
7.03235

>  <SCORE.INTER.VDW>
-11.2702

>  <SCORE.INTER.norm>
0.0591415

>  <SCORE.INTRA>
-1.15507

>  <SCORE.INTRA.DIHEDRAL>
-2.75258

>  <SCORE.INTRA.DIHEDRAL.0>
12.2703

>  <SCORE.INTRA.POLAR>
0

>  <SCORE.INTRA.POLAR.0>
0

>  <SCORE.INTRA.REPUL>
0

>  <SCORE.INTRA.REPUL.0>
0

>  <SCORE.INTRA.SOLV>
2.15246

>  <SCORE.INTRA.SOLV.lig_0>
-64.3214

>  <SCORE.INTRA.VDW>
-0.855013

>  <SCORE.INTRA.VDW.0>
-1.67301

>  <SCORE.INTRA.norm>
-0.0339728

>  <SCORE.RESTR>
2.53259

>  <SCORE.RESTR.CAVITY>
2.53259

>  <SCORE.RESTR.norm>
0.0744879

>  <SCORE.SYSTEM>
0

>  <SCORE.SYSTEM.CONST>
0

>  <SCORE.SYSTEM.DIHEDRAL>
0

>  <SCORE.SYSTEM.SOLV>
0

>  <SCORE.SYSTEM.norm>
0

>  <SCORE.heavy>
34

>  <SCORE.norm>
0.0996566

>  <RMSD>
3.289

$$$$
ligand
 OpenBabel11021811483D
libRbt.so/2013.1/901 2013/11/27
 34 36  0  0  0  0  0  0  0  0999 V2000
    6.0747   41.0238   74.0877 N   0  0  0  0  0  0  0  0  0  0  0  0
    5.5984   40.9073   75.4857 C   0  0  1  0  0  0  0  0  0  0  0  0
    6.2327   42.1896   73.4474 C   0  0  0  0  0  0  0  0  0  0  0  0
    5.9989   43.2940   73.9464 O   0  0  0  0  0  0  0  0  0  0  0  0
   13.0066   46.3376   71.3074 N   0  0  0  0  0  0  0  0  0  0  0  0
    5.4492   39.4237   75.8624 C   0  0  0  0  0  0  0  0  0  0  0  0
    4.7088   39.2510   77.1956 C   0  0  0  0  0  0  0  0  0  0  0  0
    5.5891   39.6778   78.3801 C   0  0  0  0  0  0  0  0  0  0  0  0
    6.6862   39.0877   78.5195 O   0  0  0  0  0  0  0  0  0  0  0  0
    5.1466   40.5871   79.1191 O   0  0  0  0  0  0  0  0  0  0  0  0
   12.4409   45.2083   69.3676 N   0  0  0  0  0  0  0  0  0  0  0  0
    7.7547   41.2599   76.4726 O   0  0  0  0  0  0  0  0  0  0  0  0
   12.5352   45.2471   70.7081 C   0  0  0  0  0  0  0  0  0  0  0  0
    6.0399   42.4734   77.2315 O   0  0  0  0  0  0  0  0  0  0  0  0
   12.1418   44.1501   71.4849 N   0  0  0  0  0  0  0  0  0  0  0  0
   11.6468   43.0196   70.8488 C   0  0  0  0  0  0  0  0  0  0  0  0
   11.5325   43.0243   69.4649 C   0  0  0  0  0  0  0  0  0  0  0  0
   11.2858   42.0486   71.5091 O   0  0  0  0  0  0  0  0  0  0  0  0
   11.4072   40.6903   69.2665 C   0  0  0  0  0  0  0  0  0  0  0  0
   11.1072   41.8910   68.7805 N   0  0  0  0  0  0  0  0  0  0  0  0
   12.5793   40.3585   69.4294 O   0  0  0  0  0  0  0  0  0  0  0  0
   10.5162   42.0304   67.4451 C   0  0  2  0  0  0  0  0  0  0  0  0
   11.4317   42.9123   66.5921 C   0  0  0  0  0  0  0  0  0  0  0  0
   11.9650   44.1242   68.7365 C   0  0  0  0  0  0  0  0  0  0  0  0
   11.8901   44.1094   67.3393 N   0  0  0  0  0  0  0  0  0  0  0  0
    9.1191   42.6531   67.5388 C   0  0  0  0  0  0  0  0  0  0  0  0
    8.1895   41.6922   68.1454 N   0  0  0  0  0  0  0  0  0  0  0  0
    6.7892   42.0657   72.0175 C   0  0  0  0  0  0  0  0  0  0  0  0
    7.2636   40.8440   71.5461 C   0  0  0  0  0  0  0  0  0  0  0  0
    7.7153   40.7204   70.2336 C   0  0  0  0  0  0  0  0  0  0  0  0
    7.7394   41.8277   69.3923 C   0  0  0  0  0  0  0  0  0  0  0  0
    7.2742   43.0505   69.8642 C   0  0  0  0  0  0  0  0  0  0  0  0
    6.7890   43.1669   71.1660 C   0  0  0  0  0  0  0  0  0  0  0  0
    6.5485   41.6060   76.4801 C   0  0  0  0  0  0  0  0  0  0  0  0
  1  3  1  0  0  0  0
  2  1  1  6  0  0  0
  2  6  1  0  0  0  0
  2 34  1  0  0  0  0
  3  4  2  0  0  0  0
  3 28  1  0  0  0  0
  5 13  1  0  0  0  0
  6  7  1  0  0  0  0
  7  8  1  0  0  0  0
  8  9  1  0  0  0  0
  8 10  1  0  0  0  0
 11 13  2  0  0  0  0
 11 24  1  0  0  0  0
 12 34  1  0  0  0  0
 13 15  1  0  0  0  0
 14 34  1  0  0  0  0
 15 16  1  0  0  0  0
 16 17  1  0  0  0  0
 16 18  2  0  0  0  0
 17 20  1  0  0  0  0
 17 24  2  0  0  0  0
 19 21  1  0  0  0  0
 19 20  1  0  0  0  0
 20 22  1  0  0  0  0
 22 23  1  0  0  0  0
 22 26  1  1  0  0  0
 23 25  1  0  0  0  0
 24 25  1  0  0  0  0
 26 27  1  0  0  0  0
 27 31  1  0  0  0  0
 28 29  2  0  0  0  0
 28 33  1  0  0  0  0
 29 30  1  0  0  0  0
 30 31  2  0  0  0  0
 31 32  1  0  0  0  0
 32 33  2  0  0  0  0
M  END
>  <CHROM.1>
176.28344209,-169.09030844,-55.40716379,-71.98688971,-58.12735874,-59.32078819
-70.04047627,106.54232646,-134.88400622,-9.06833383,8.76689364,42.08104122
72.12647301,2.27262349,0.56035445,1.45887052

>  <Name>
ligand

>  <RI>
0

>  <Rbt.Current_Directory>
/home/itssahil/PROJECTS/Mol_Feturizer/New_Systems/rnas/3SUH

>  <Rbt.Executable>
rbdock ($Id: //depot/dev/client3/rdock/2013.1/src/exe/rbdock.cxx#4 $)

>  <Rbt.Library>
libRbt.so (2013.1, Build901 2013/11/27)

>  <Rbt.Parameter_File>
/export/apps/rDock/src/rDock_2013.1_src/data/scripts/dock_solv.prm

>  <Rbt.Receptor>
prm/pocket_docking_7.prm

>  <SCORE>
-17.7158

>  <SCORE.INTER>
-13.0064

>  <SCORE.INTER.CONST>
1

>  <SCORE.INTER.POLAR>
0

>  <SCORE.INTER.ROT>
10

>  <SCORE.INTER.SOLV>
20.0795

>  <SCORE.INTER.VDW>
-25.6308

>  <SCORE.INTER.norm>
-0.382542

>  <SCORE.INTRA>
-4.70938

>  <SCORE.INTRA.DIHEDRAL>
-3.42949

>  <SCORE.INTRA.DIHEDRAL.0>
12.2703

>  <SCORE.INTRA.POLAR>
0

>  <SCORE.INTRA.POLAR.0>
0

>  <SCORE.INTRA.REPUL>
0

>  <SCORE.INTRA.REPUL.0>
0

>  <SCORE.INTRA.SOLV>
-0.629303

>  <SCORE.INTRA.SOLV.lig_0>
-64.3214

>  <SCORE.INTRA.VDW>
-2.67999

>  <SCORE.INTRA.VDW.0>
-1.67301

>  <SCORE.INTRA.norm>
-0.138511

>  <SCORE.RESTR>
0

>  <SCORE.RESTR.CAVITY>
0

>  <SCORE.RESTR.norm>
0

>  <SCORE.SYSTEM>
0

>  <SCORE.SYSTEM.CONST>
0

>  <SCORE.SYSTEM.DIHEDRAL>
0

>  <SCORE.SYSTEM.SOLV>
0

>  <SCORE.SYSTEM.norm>
0

>  <SCORE.heavy>
34

>  <SCORE.norm>
-0.521053

>  <RMSD>
3.295

$$$$
ligand
 OpenBabel11021811483D
libRbt.so/2013.1/901 2013/11/27
 34 36  0  0  0  0  0  0  0  0999 V2000
    5.8246   41.9651   74.0870 N   0  0  0  0  0  0  0  0  0  0  0  0
    5.3382   42.0859   75.4811 C   0  0  1  0  0  0  0  0  0  0  0  0
    6.2672   42.9982   73.3584 C   0  0  0  0  0  0  0  0  0  0  0  0
    6.3182   44.1630   73.7631 O   0  0  0  0  0  0  0  0  0  0  0  0
   12.7964   46.5407   71.1184 N   0  0  0  0  0  0  0  0  0  0  0  0
    6.4230   42.7364   76.3559 C   0  0  0  0  0  0  0  0  0  0  0  0
    7.6842   41.8652   76.4328 C   0  0  0  0  0  0  0  0  0  0  0  0
    7.3967   40.5314   77.1389 C   0  0  0  0  0  0  0  0  0  0  0  0
    7.2283   40.5659   78.3805 O   0  0  0  0  0  0  0  0  0  0  0  0
    7.3491   39.5063   76.4207 O   0  0  0  0  0  0  0  0  0  0  0  0
   12.2998   45.3115   69.2208 N   0  0  0  0  0  0  0  0  0  0  0  0
    3.9201   43.8992   74.8109 O   0  0  0  0  0  0  0  0  0  0  0  0
   12.3726   45.4099   70.5596 C   0  0  0  0  0  0  0  0  0  0  0  0
    3.1794   42.5180   76.4023 O   0  0  0  0  0  0  0  0  0  0  0  0
   12.0063   44.3332   71.3770 N   0  0  0  0  0  0  0  0  0  0  0  0
   11.5609   43.1600   70.7829 C   0  0  0  0  0  0  0  0  0  0  0  0
   11.4672   43.1025   69.3986 C   0  0  0  0  0  0  0  0  0  0  0  0
   11.2244   42.2054   71.4790 O   0  0  0  0  0  0  0  0  0  0  0  0
   11.4268   40.7593   69.2980 C   0  0  0  0  0  0  0  0  0  0  0  0
   11.0923   41.9270   68.7574 N   0  0  0  0  0  0  0  0  0  0  0  0
   12.6076   40.4734   69.4834 O   0  0  0  0  0  0  0  0  0  0  0  0
   10.5168   41.9890   67.4094 C   0  0  2  0  0  0  0  0  0  0  0  0
   11.4134   42.8664   66.5321 C   0  0  0  0  0  0  0  0  0  0  0  0
   11.8717   44.1855   68.6300 C   0  0  0  0  0  0  0  0  0  0  0  0
   11.8183   44.1094   67.2339 N   0  0  0  0  0  0  0  0  0  0  0  0
    9.0974   42.5648   67.4577 C   0  0  0  0  0  0  0  0  0  0  0  0
    8.2199   41.6545   68.2038 N   0  0  0  0  0  0  0  0  0  0  0  0
    6.7709   42.6227   71.9530 C   0  0  0  0  0  0  0  0  0  0  0  0
    6.8382   43.5820   70.9455 C   0  0  0  0  0  0  0  0  0  0  0  0
    7.3465   43.2538   69.6903 C   0  0  0  0  0  0  0  0  0  0  0  0
    7.7510   41.9518   69.4152 C   0  0  0  0  0  0  0  0  0  0  0  0
    7.6762   40.9904   70.4175 C   0  0  0  0  0  0  0  0  0  0  0  0
    7.2010   41.3263   71.6844 C   0  0  0  0  0  0  0  0  0  0  0  0
    4.0345   42.9060   75.5693 C   0  0  0  0  0  0  0  0  0  0  0  0
  1  3  1  0  0  0  0
  2  1  1  6  0  0  0
  2  6  1  0  0  0  0
  2 34  1  0  0  0  0
  3  4  2  0  0  0  0
  3 28  1  0  0  0  0
  5 13  1  0  0  0  0
  6  7  1  0  0  0  0
  7  8  1  0  0  0  0
  8  9  1  0  0  0  0
  8 10  1  0  0  0  0
 11 13  2  0  0  0  0
 11 24  1  0  0  0  0
 12 34  1  0  0  0  0
 13 15  1  0  0  0  0
 14 34  1  0  0  0  0
 15 16  1  0  0  0  0
 16 17  1  0  0  0  0
 16 18  2  0  0  0  0
 17 20  1  0  0  0  0
 17 24  2  0  0  0  0
 19 21  1  0  0  0  0
 19 20  1  0  0  0  0
 20 22  1  0  0  0  0
 22 23  1  0  0  0  0
 22 26  1  1  0  0  0
 23 25  1  0  0  0  0
 24 25  1  0  0  0  0
 26 27  1  0  0  0  0
 27 31  1  0  0  0  0
 28 29  2  0  0  0  0
 28 33  1  0  0  0  0
 29 30  1  0  0  0  0
 30 31  2  0  0  0  0
 31 32  1  0  0  0  0
 32 33  2  0  0  0  0
M  END
>  <CHROM.1>
-55.86678073,-63.27838383,-37.97184743,-64.65423315,-73.05855612,-59.74580324
-64.72490842,108.95617827,39.51345586,158.60353372,8.70025915,42.62202184
71.83712626,2.24163469,0.11223661,1.64306753

>  <Name>
ligand

>  <RI>
0

>  <Rbt.Current_Directory>
/home/itssahil/PROJECTS/Mol_Feturizer/New_Systems/rnas/3SUH

>  <Rbt.Executable>
rbdock ($Id: //depot/dev/client3/rdock/2013.1/src/exe/rbdock.cxx#4 $)

>  <Rbt.Library>
libRbt.so (2013.1, Build901 2013/11/27)

>  <Rbt.Parameter_File>
/export/apps/rDock/src/rDock_2013.1_src/data/scripts/dock_solv.prm

>  <Rbt.Receptor>
prm/pocket_docking_5.prm

>  <SCORE>
-17.6144

>  <SCORE.INTER>
-13.5926

>  <SCORE.INTER.CONST>
1

>  <SCORE.INTER.POLAR>
0

>  <SCORE.INTER.ROT>
10

>  <SCORE.INTER.SOLV>
19.2334

>  <SCORE.INTER.VDW>
-25.7395

>  <SCORE.INTER.norm>
-0.399783

>  <SCORE.INTRA>
-4.02177

>  <SCORE.INTRA.DIHEDRAL>
-4.66459

>  <SCORE.INTRA.DIHEDRAL.0>
12.2703

>  <SCORE.INTRA.POLAR>
0

>  <SCORE.INTRA.POLAR.0>
0

>  <SCORE.INTRA.REPUL>
0

>  <SCORE.INTRA.REPUL.0>
0

>  <SCORE.INTRA.SOLV>
0.265163

>  <SCORE.INTRA.SOLV.lig_0>
-64.3214

>  <SCORE.INTRA.VDW>
-1.82205

>  <SCORE.INTRA.VDW.0>
-1.67301

>  <SCORE.INTRA.norm>
-0.118287

>  <SCORE.RESTR>
0

>  <SCORE.RESTR.CAVITY>
0

>  <SCORE.RESTR.norm>
0

>  <SCORE.SYSTEM>
0

>  <SCORE.SYSTEM.CONST>
0

>  <SCORE.SYSTEM.DIHEDRAL>
0

>  <SCORE.SYSTEM.SOLV>
0

>  <SCORE.SYSTEM.norm>
0

>  <SCORE.heavy>
34

>  <SCORE.norm>
-0.518071

>  <RMSD>
3.315

$$$$
ligand
 OpenBabel11021811483D
libRbt.so/2013.1/901 2013/11/27
 34 36  0  0  0  0  0  0  0  0999 V2000
    5.1043   42.4625   74.7698 N   0  0  0  0  0  0  0  0  0  0  0  0
    4.4160   42.7355   76.0530 C   0  0  1  0  0  0  0  0  0  0  0  0
    5.4115   43.4073   73.8715 C   0  0  0  0  0  0  0  0  0  0  0  0
    5.1556   44.6068   74.0091 O   0  0  0  0  0  0  0  0  0  0  0  0
   13.3163   46.4857   70.5622 N   0  0  0  0  0  0  0  0  0  0  0  0
    4.1307   41.4118   76.7821 C   0  0  0  0  0  0  0  0  0  0  0  0
    2.6390   41.0534   76.7393 C   0  0  0  0  0  0  0  0  0  0  0  0
    2.1763   40.4381   78.0687 C   0  0  0  0  0  0  0  0  0  0  0  0
    1.4844   41.1609   78.8236 O   0  0  0  0  0  0  0  0  0  0  0  0
    2.5227   39.2569   78.2999 O   0  0  0  0  0  0  0  0  0  0  0  0
   12.3121   45.1700   68.9439 N   0  0  0  0  0  0  0  0  0  0  0  0
    5.0062   43.6320   78.1968 O   0  0  0  0  0  0  0  0  0  0  0  0
   12.7601   45.3322   70.2011 C   0  0  0  0  0  0  0  0  0  0  0  0
    6.0912   44.3992   76.4016 O   0  0  0  0  0  0  0  0  0  0  0  0
   12.6480   44.2983   71.1392 N   0  0  0  0  0  0  0  0  0  0  0  0
   12.0614   43.1009   70.7524 C   0  0  0  0  0  0  0  0  0  0  0  0
   11.5801   42.9775   69.4556 C   0  0  0  0  0  0  0  0  0  0  0  0
   11.9426   42.1829   71.5601 O   0  0  0  0  0  0  0  0  0  0  0  0
   11.5302   40.6325   69.4829 C   0  0  0  0  0  0  0  0  0  0  0  0
   11.0477   41.7752   69.0038 N   0  0  0  0  0  0  0  0  0  0  0  0
   10.8310   39.9064   70.1859 O   0  0  0  0  0  0  0  0  0  0  0  0
   10.1138   41.7761   67.8725 C   0  0  2  0  0  0  0  0  0  0  0  0
   10.7191   42.6045   66.7363 C   0  0  0  0  0  0  0  0  0  0  0  0
   11.7426   44.0198   68.5531 C   0  0  0  0  0  0  0  0  0  0  0  0
   11.2968   43.8772   67.2345 N   0  0  0  0  0  0  0  0  0  0  0  0
    8.7619   42.3628   68.2929 C   0  0  0  0  0  0  0  0  0  0  0  0
    8.1242   41.4792   69.2767 N   0  0  0  0  0  0  0  0  0  0  0  0
    6.1726   42.8940   72.6357 C   0  0  0  0  0  0  0  0  0  0  0  0
    6.5313   41.5522   72.5323 C   0  0  0  0  0  0  0  0  0  0  0  0
    7.1708   41.0781   71.3887 C   0  0  0  0  0  0  0  0  0  0  0  0
    7.4989   41.9494   70.3555 C   0  0  0  0  0  0  0  0  0  0  0  0
    7.1493   43.2914   70.4609 C   0  0  0  0  0  0  0  0  0  0  0  0
    6.4777   43.7598   71.5893 C   0  0  0  0  0  0  0  0  0  0  0  0
    5.2413   43.6670   76.9647 C   0  0  0  0  0  0  0  0  0  0  0  0
  1  3  1  0  0  0  0
  2  1  1  6  0  0  0
  2  6  1  0  0  0  0
  2 34  1  0  0  0  0
  3  4  2  0  0  0  0
  3 28  1  0  0  0  0
  5 13  1  0  0  0  0
  6  7  1  0  0  0  0
  7  8  1  0  0  0  0
  8  9  1  0  0  0  0
  8 10  1  0  0  0  0
 11 13  2  0  0  0  0
 11 24  1  0  0  0  0
 12 34  1  0  0  0  0
 13 15  1  0  0  0  0
 14 34  1  0  0  0  0
 15 16  1  0  0  0  0
 16 17  1  0  0  0  0
 16 18  2  0  0  0  0
 17 20  1  0  0  0  0
 17 24  2  0  0  0  0
 19 21  1  0  0  0  0
 19 20  1  0  0  0  0
 20 22  1  0  0  0  0
 22 23  1  0  0  0  0
 22 26  1  1  0  0  0
 23 25  1  0  0  0  0
 24 25  1  0  0  0  0
 26 27  1  0  0  0  0
 27 31  1  0  0  0  0
 28 29  2  0  0  0  0
 28 33  1  0  0  0  0
 29 30  1  0  0  0  0
 30 31  2  0  0  0  0
 31 32  1  0  0  0  0
 32 33  2  0  0  0  0
M  END
>  <CHROM.1>
175.72990853,-107.27624654,-157.44202383,-141.42659764,105.36596770,113.14112546
-66.01166227,137.97257069,-166.15555315,-2.17325731,7.93068856,42.64307813
72.37627079,-2.65807204,-0.66442839,-2.26757000

>  <Name>
ligand

>  <RI>
0

>  <Rbt.Current_Directory>
/home/itssahil/PROJECTS/Mol_Feturizer/New_Systems/rnas/3SUH

>  <Rbt.Executable>
rbdock ($Id: //depot/dev/client3/rdock/2013.1/src/exe/rbdock.cxx#4 $)

>  <Rbt.Library>
libRbt.so (2013.1, Build901 2013/11/27)

>  <Rbt.Parameter_File>
/export/apps/rDock/src/rDock_2013.1_src/data/scripts/dock_solv.prm

>  <Rbt.Receptor>
prm/pocket_docking_2.prm

>  <SCORE>
-5.04026

>  <SCORE.INTER>
-9.37413

>  <SCORE.INTER.CONST>
1

>  <SCORE.INTER.POLAR>
0

>  <SCORE.INTER.ROT>
10

>  <SCORE.INTER.SOLV>
21.9197

>  <SCORE.INTER.VDW>
-23.8227

>  <SCORE.INTER.norm>
-0.27571

>  <SCORE.INTRA>
2.18829

>  <SCORE.INTRA.DIHEDRAL>
5.00468

>  <SCORE.INTRA.DIHEDRAL.0>
12.2703

>  <SCORE.INTRA.POLAR>
0

>  <SCORE.INTRA.POLAR.0>
0

>  <SCORE.INTRA.REPUL>
0

>  <SCORE.INTRA.REPUL.0>
0

>  <SCORE.INTRA.SOLV>
0.115542

>  <SCORE.INTRA.SOLV.lig_0>
-64.3214

>  <SCORE.INTRA.VDW>
-0.371824

>  <SCORE.INTRA.VDW.0>
-1.67301

>  <SCORE.INTRA.norm>
0.0643614

>  <SCORE.RESTR>
2.14559

>  <SCORE.RESTR.CAVITY>
2.14559

>  <SCORE.RESTR.norm>
0.0631057

>  <SCORE.SYSTEM>
0

>  <SCORE.SYSTEM.CONST>
0

>  <SCORE.SYSTEM.DIHEDRAL>
0

>  <SCORE.SYSTEM.SOLV>
0

>  <SCORE.SYSTEM.norm>
0

>  <SCORE.heavy>
34

>  <SCORE.norm>
-0.148243

>  <RMSD>
3.336

$$$$
ligand
 OpenBabel11021811483D
libRbt.so/2013.1/901 2013/11/27
 34 36  0  0  0  0  0  0  0  0999 V2000
    5.0563   40.7393   77.2996 N   0  0  0  0  0  0  0  0  0  0  0  0
    4.5202   40.2575   78.5940 C   0  0  1  0  0  0  0  0  0  0  0  0
    4.5801   41.8063   76.6448 C   0  0  0  0  0  0  0  0  0  0  0  0
    3.6438   42.5050   77.0426 O   0  0  0  0  0  0  0  0  0  0  0  0
   12.5243   41.7112   73.2376 N   0  0  0  0  0  0  0  0  0  0  0  0
    5.1032   41.0969   79.7432 C   0  0  0  0  0  0  0  0  0  0  0  0
    6.6224   40.9145   79.8618 C   0  0  0  0  0  0  0  0  0  0  0  0
    6.9806   39.4728   80.2536 C   0  0  0  0  0  0  0  0  0  0  0  0
    6.5893   39.0705   81.3743 O   0  0  0  0  0  0  0  0  0  0  0  0
    7.6361   38.8036   79.4222 O   0  0  0  0  0  0  0  0  0  0  0  0
   11.0871   43.1253   72.1005 N   0  0  0  0  0  0  0  0  0  0  0  0
    2.3522   39.2691   78.3281 O   0  0  0  0  0  0  0  0  0  0  0  0
   11.5891   41.8958   72.3093 C   0  0  0  0  0  0  0  0  0  0  0  0
    2.4622   41.4034   78.9774 O   0  0  0  0  0  0  0  0  0  0  0  0
   11.1380   40.8022   71.5594 N   0  0  0  0  0  0  0  0  0  0  0  0
   10.1583   41.0060   70.5970 C   0  0  0  0  0  0  0  0  0  0  0  0
    9.6383   42.2825   70.4286 C   0  0  0  0  0  0  0  0  0  0  0  0
    9.7393   40.0607   69.9336 O   0  0  0  0  0  0  0  0  0  0  0  0
    8.7635   41.8622   68.2932 C   0  0  0  0  0  0  0  0  0  0  0  0
    8.7062   42.5471   69.4313 N   0  0  0  0  0  0  0  0  0  0  0  0
    7.9192   41.0066   68.0372 O   0  0  0  0  0  0  0  0  0  0  0  0
    7.8101   43.7009   69.5650 C   0  0  2  0  0  0  0  0  0  0  0  0
    8.6457   44.9339   69.9183 C   0  0  0  0  0  0  0  0  0  0  0  0
   10.1401   43.3403   71.1747 C   0  0  0  0  0  0  0  0  0  0  0  0
    9.6459   44.6336   70.9724 N   0  0  0  0  0  0  0  0  0  0  0  0
    6.7616   43.4430   70.6525 C   0  0  0  0  0  0  0  0  0  0  0  0
    7.4308   43.0870   71.9097 N   0  0  0  0  0  0  0  0  0  0  0  0
    5.3298   42.1479   75.3444 C   0  0  0  0  0  0  0  0  0  0  0  0
    5.4906   43.4732   74.9474 C   0  0  0  0  0  0  0  0  0  0  0  0
    6.2172   43.7837   73.7997 C   0  0  0  0  0  0  0  0  0  0  0  0
    6.7524   42.7700   73.0120 C   0  0  0  0  0  0  0  0  0  0  0  0
    6.5851   41.4456   73.4021 C   0  0  0  0  0  0  0  0  0  0  0  0
    5.8887   41.1356   74.5695 C   0  0  0  0  0  0  0  0  0  0  0  0
    2.9791   40.3113   78.6371 C   0  0  0  0  0  0  0  0  0  0  0  0
  1  3  1  0  0  0  0
  2  1  1  6  0  0  0
  2  6  1  0  0  0  0
  2 34  1  0  0  0  0
  3  4  2  0  0  0  0
  3 28  1  0  0  0  0
  5 13  1  0  0  0  0
  6  7  1  0  0  0  0
  7  8  1  0  0  0  0
  8  9  1  0  0  0  0
  8 10  1  0  0  0  0
 11 13  2  0  0  0  0
 11 24  1  0  0  0  0
 12 34  1  0  0  0  0
 13 15  1  0  0  0  0
 14 34  1  0  0  0  0
 15 16  1  0  0  0  0
 16 17  1  0  0  0  0
 16 18  2  0  0  0  0
 17 20  1  0  0  0  0
 17 24  2  0  0  0  0
 19 21  1  0  0  0  0
 19 20  1  0  0  0  0
 20 22  1  0  0  0  0
 22 23  1  0  0  0  0
 22 26  1  1  0  0  0
 23 25  1  0  0  0  0
 24 25  1  0  0  0  0
 26 27  1  0  0  0  0
 27 31  1  0  0  0  0
 28 29  2  0  0  0  0
 28 33  1  0  0  0  0
 29 30  1  0  0  0  0
 30 31  2  0  0  0  0
 31 32  1  0  0  0  0
 32 33  2  0  0  0  0
M  END
>  <CHROM.1>
-80.92354667,-64.51258966,94.34076607,-64.98216564,-63.73166951,107.81363773
54.74909415,-177.84658883,-79.89080764,-145.41258434,7.21764664,41.70678308
74.21408352,2.05916298,-0.24358186,1.92954391

>  <Name>
ligand

>  <RI>
0

>  <Rbt.Current_Directory>
/home/itssahil/PROJECTS/Mol_Feturizer/New_Systems/rnas/3SUH

>  <Rbt.Executable>
rbdock ($Id: //depot/dev/client3/rdock/2013.1/src/exe/rbdock.cxx#4 $)

>  <Rbt.Library>
libRbt.so (2013.1, Build901 2013/11/27)

>  <Rbt.Parameter_File>
/export/apps/rDock/src/rDock_2013.1_src/data/scripts/dock_solv.prm

>  <Rbt.Receptor>
prm/pocket_docking_2.prm

>  <SCORE>
1.77944

>  <SCORE.INTER>
1.25302

>  <SCORE.INTER.CONST>
1

>  <SCORE.INTER.POLAR>
0

>  <SCORE.INTER.ROT>
10

>  <SCORE.INTER.SOLV>
7.54978

>  <SCORE.INTER.VDW>
-11.9479

>  <SCORE.INTER.norm>
0.0368537

>  <SCORE.INTRA>
-1.94661

>  <SCORE.INTRA.DIHEDRAL>
-4.94269

>  <SCORE.INTRA.DIHEDRAL.0>
12.2703

>  <SCORE.INTRA.POLAR>
0

>  <SCORE.INTRA.POLAR.0>
0

>  <SCORE.INTRA.REPUL>
0

>  <SCORE.INTRA.REPUL.0>
0

>  <SCORE.INTRA.SOLV>
2.49943

>  <SCORE.INTRA.SOLV.lig_0>
-64.3214

>  <SCORE.INTRA.VDW>
-0.724984

>  <SCORE.INTRA.VDW.0>
-1.67301

>  <SCORE.INTRA.norm>
-0.0572534

>  <SCORE.RESTR>
2.47303

>  <SCORE.RESTR.CAVITY>
2.47303

>  <SCORE.RESTR.norm>
0.0727362

>  <SCORE.SYSTEM>
0

>  <SCORE.SYSTEM.CONST>
0

>  <SCORE.SYSTEM.DIHEDRAL>
0

>  <SCORE.SYSTEM.SOLV>
0

>  <SCORE.SYSTEM.norm>
0

>  <SCORE.heavy>
34

>  <SCORE.norm>
0.0523365

>  <RMSD>
3.337

$$$$
ligand
 OpenBabel11021811483D
libRbt.so/2013.1/901 2013/11/27
 34 36  0  0  0  0  0  0  0  0999 V2000
    5.7195   42.0247   74.4649 N   0  0  0  0  0  0  0  0  0  0  0  0
    5.1773   42.0616   75.8431 C   0  0  1  0  0  0  0  0  0  0  0  0
    5.8612   43.1072   73.6890 C   0  0  0  0  0  0  0  0  0  0  0  0
    5.5559   44.2529   74.0317 O   0  0  0  0  0  0  0  0  0  0  0  0
    9.7984   46.5329   71.2881 N   0  0  0  0  0  0  0  0  0  0  0  0
    5.0219   40.6286   76.3795 C   0  0  0  0  0  0  0  0  0  0  0  0
    4.2714   40.6047   77.7180 C   0  0  0  0  0  0  0  0  0  0  0  0
    4.1714   39.1761   78.2742 C   0  0  0  0  0  0  0  0  0  0  0  0
    3.3087   38.4229   77.7648 O   0  0  0  0  0  0  0  0  0  0  0  0
    4.9621   38.8677   79.1953 O   0  0  0  0  0  0  0  0  0  0  0  0
   10.0644   44.9987   69.5753 N   0  0  0  0  0  0  0  0  0  0  0  0
    7.3157   42.7747   76.6594 O   0  0  0  0  0  0  0  0  0  0  0  0
   10.0359   45.2862   70.8883 C   0  0  0  0  0  0  0  0  0  0  0  0
    5.4871   43.5980   77.6428 O   0  0  0  0  0  0  0  0  0  0  0  0
   10.2538   44.2862   71.8443 N   0  0  0  0  0  0  0  0  0  0  0  0
   10.4958   42.9881   71.4154 C   0  0  0  0  0  0  0  0  0  0  0  0
   10.4866   42.7188   70.0532 C   0  0  0  0  0  0  0  0  0  0  0  0
   10.6797   42.0918   72.2352 O   0  0  0  0  0  0  0  0  0  0  0  0
   11.6645   40.6989   70.2404 C   0  0  0  0  0  0  0  0  0  0  0  0
   10.7914   41.4492   69.5750 N   0  0  0  0  0  0  0  0  0  0  0  0
   12.8713   40.8266   70.0469 O   0  0  0  0  0  0  0  0  0  0  0  0
   10.3071   41.0374   68.2529 C   0  0  2  0  0  0  0  0  0  0  0  0
   10.6478   42.1344   67.2411 C   0  0  0  0  0  0  0  0  0  0  0  0
   10.2967   43.7499   69.1432 C   0  0  0  0  0  0  0  0  0  0  0  0
   10.3318   43.4842   67.7699 N   0  0  0  0  0  0  0  0  0  0  0  0
    8.7934   40.7998   68.2860 C   0  0  0  0  0  0  0  0  0  0  0  0
    8.1017   42.0602   68.5829 N   0  0  0  0  0  0  0  0  0  0  0  0
    6.4951   42.8318   72.3134 C   0  0  0  0  0  0  0  0  0  0  0  0
    6.8580   41.5378   71.9477 C   0  0  0  0  0  0  0  0  0  0  0  0
    7.3801   41.2818   70.6813 C   0  0  0  0  0  0  0  0  0  0  0  0
    7.5869   42.3237   69.7835 C   0  0  0  0  0  0  0  0  0  0  0  0
    7.2333   43.6178   70.1503 C   0  0  0  0  0  0  0  0  0  0  0  0
    6.6778   43.8697   71.4039 C   0  0  0  0  0  0  0  0  0  0  0  0
    6.0728   42.8816   76.7947 C   0  0  0  0  0  0  0  0  0  0  0  0
  1  3  1  0  0  0  0
  2  1  1  6  0  0  0
  2  6  1  0  0  0  0
  2 34  1  0  0  0  0
  3  4  2  0  0  0  0
  3 28  1  0  0  0  0
  5 13  1  0  0  0  0
  6  7  1  0  0  0  0
  7  8  1  0  0  0  0
  8  9  1  0  0  0  0
  8 10  1  0  0  0  0
 11 13  2  0  0  0  0
 11 24  1  0  0  0  0
 12 34  1  0  0  0  0
 13 15  1  0  0  0  0
 14 34  1  0  0  0  0
 15 16  1  0  0  0  0
 16 17  1  0  0  0  0
 16 18  2  0  0  0  0
 17 20  1  0  0  0  0
 17 24  2  0  0  0  0
 19 21  1  0  0  0  0
 19 20  1  0  0  0  0
 20 22  1  0  0  0  0
 22 23  1  0  0  0  0
 22 26  1  1  0  0  0
 23 25  1  0  0  0  0
 24 25  1  0  0  0  0
 26 27  1  0  0  0  0
 27 31  1  0  0  0  0
 28 29  2  0  0  0  0
 28 33  1  0  0  0  0
 29 30  1  0  0  0  0
 30 31  2  0  0  0  0
 31 32  1  0  0  0  0
 32 33  2  0  0  0  0
M  END
>  <CHROM.1>
174.18224632,-171.51831425,-39.01325291,-177.67381096,-77.90922859,-84.47245436
64.07679557,-103.84890717,-16.93230601,0.80035418,7.95774949,42.28104205
72.49823595,2.96573681,-0.97371343,-3.12709548

>  <Name>
ligand

>  <RI>
0

>  <Rbt.Current_Directory>
/home/itssahil/PROJECTS/Mol_Feturizer/New_Systems/rnas/3SUH

>  <Rbt.Executable>
rbdock ($Id: //depot/dev/client3/rdock/2013.1/src/exe/rbdock.cxx#4 $)

>  <Rbt.Library>
libRbt.so (2013.1, Build901 2013/11/27)

>  <Rbt.Parameter_File>
/export/apps/rDock/src/rDock_2013.1_src/data/scripts/dock_solv.prm

>  <Rbt.Receptor>
prm/pocket_docking_4.prm

>  <SCORE>
-12.5958

>  <SCORE.INTER>
-8.08607

>  <SCORE.INTER.CONST>
1

>  <SCORE.INTER.POLAR>
0

>  <SCORE.INTER.ROT>
10

>  <SCORE.INTER.SOLV>
14.6489

>  <SCORE.INTER.VDW>
-20.5403

>  <SCORE.INTER.norm>
-0.237826

>  <SCORE.INTRA>
-4.50973

>  <SCORE.INTRA.DIHEDRAL>
-4.77968

>  <SCORE.INTRA.DIHEDRAL.0>
12.2703

>  <SCORE.INTRA.POLAR>
0

>  <SCORE.INTRA.POLAR.0>
0

>  <SCORE.INTRA.REPUL>
0

>  <SCORE.INTRA.REPUL.0>
0

>  <SCORE.INTRA.SOLV>
1.922

>  <SCORE.INTRA.SOLV.lig_0>
-64.3214

>  <SCORE.INTRA.VDW>
-3.08089

>  <SCORE.INTRA.VDW.0>
-1.67301

>  <SCORE.INTRA.norm>
-0.132639

>  <SCORE.RESTR>
0

>  <SCORE.RESTR.CAVITY>
0

>  <SCORE.RESTR.norm>
0

>  <SCORE.SYSTEM>
0

>  <SCORE.SYSTEM.CONST>
0

>  <SCORE.SYSTEM.DIHEDRAL>
0

>  <SCORE.SYSTEM.SOLV>
0

>  <SCORE.SYSTEM.norm>
0

>  <SCORE.heavy>
34

>  <SCORE.norm>
-0.370465

>  <RMSD>
3.340

$$$$
ligand
 OpenBabel11021811483D
libRbt.so/2013.1/901 2013/11/27
 34 36  0  0  0  0  0  0  0  0999 V2000
    5.8535   42.7794   73.8842 N   0  0  0  0  0  0  0  0  0  0  0  0
    5.1195   42.5838   75.1562 C   0  0  1  0  0  0  0  0  0  0  0  0
    6.3201   41.7761   73.1294 C   0  0  0  0  0  0  0  0  0  0  0  0
    6.1936   40.5802   73.4074 O   0  0  0  0  0  0  0  0  0  0  0  0
   12.2887   46.5074   71.4196 N   0  0  0  0  0  0  0  0  0  0  0  0
    6.0405   41.9154   76.1907 C   0  0  0  0  0  0  0  0  0  0  0  0
    5.2491   41.3915   77.3967 C   0  0  0  0  0  0  0  0  0  0  0  0
    6.1703   40.6825   78.4011 C   0  0  0  0  0  0  0  0  0  0  0  0
    5.8775   39.5044   78.7131 O   0  0  0  0  0  0  0  0  0  0  0  0
    7.1491   41.3337   78.8332 O   0  0  0  0  0  0  0  0  0  0  0  0
   12.0450   45.3531   69.4280 N   0  0  0  0  0  0  0  0  0  0  0  0
    3.4676   43.8864   76.3060 O   0  0  0  0  0  0  0  0  0  0  0  0
   11.9916   45.3843   70.7710 C   0  0  0  0  0  0  0  0  0  0  0  0
    5.2904   44.9316   75.5485 O   0  0  0  0  0  0  0  0  0  0  0  0
   11.6254   44.2451   71.4988 N   0  0  0  0  0  0  0  0  0  0  0  0
   11.3128   43.0803   70.8111 C   0  0  0  0  0  0  0  0  0  0  0  0
   11.3468   43.0910   69.4228 C   0  0  0  0  0  0  0  0  0  0  0  0
   10.9789   42.0711   71.4268 O   0  0  0  0  0  0  0  0  0  0  0  0
   11.4696   40.7585   69.2076 C   0  0  0  0  0  0  0  0  0  0  0  0
   11.1085   41.9308   68.6946 N   0  0  0  0  0  0  0  0  0  0  0  0
   12.6362   40.5541   69.5356 O   0  0  0  0  0  0  0  0  0  0  0  0
   10.6527   42.0293   67.3037 C   0  0  2  0  0  0  0  0  0  0  0  0
   11.5644   43.0054   66.5557 C   0  0  0  0  0  0  0  0  0  0  0  0
   11.7462   44.2363   68.7473 C   0  0  0  0  0  0  0  0  0  0  0  0
   11.8225   44.2317   67.3502 N   0  0  0  0  0  0  0  0  0  0  0  0
    9.1999   42.5140   67.2480 C   0  0  0  0  0  0  0  0  0  0  0  0
    8.9380   43.4208   68.3724 N   0  0  0  0  0  0  0  0  0  0  0  0
    7.0052   42.2203   71.8244 C   0  0  0  0  0  0  0  0  0  0  0  0
    7.2490   43.5689   71.5766 C   0  0  0  0  0  0  0  0  0  0  0  0
    7.9190   43.9650   70.4208 C   0  0  0  0  0  0  0  0  0  0  0  0
    8.3123   43.0204   69.4787 C   0  0  0  0  0  0  0  0  0  0  0  0
    8.0616   41.6738   69.7203 C   0  0  0  0  0  0  0  0  0  0  0  0
    7.4230   41.2736   70.8933 C   0  0  0  0  0  0  0  0  0  0  0  0
    4.5773   43.9130   75.7208 C   0  0  0  0  0  0  0  0  0  0  0  0
  1  3  1  0  0  0  0
  2  1  1  6  0  0  0
  2  6  1  0  0  0  0
  2 34  1  0  0  0  0
  3  4  2  0  0  0  0
  3 28  1  0  0  0  0
  5 13  1  0  0  0  0
  6  7  1  0  0  0  0
  7  8  1  0  0  0  0
  8  9  1  0  0  0  0
  8 10  1  0  0  0  0
 11 13  2  0  0  0  0
 11 24  1  0  0  0  0
 12 34  1  0  0  0  0
 13 15  1  0  0  0  0
 14 34  1  0  0  0  0
 15 16  1  0  0  0  0
 16 17  1  0  0  0  0
 16 18  2  0  0  0  0
 17 20  1  0  0  0  0
 17 24  2  0  0  0  0
 19 21  1  0  0  0  0
 19 20  1  0  0  0  0
 20 22  1  0  0  0  0
 22 23  1  0  0  0  0
 22 26  1  1  0  0  0
 23 25  1  0  0  0  0
 24 25  1  0  0  0  0
 26 27  1  0  0  0  0
 27 31  1  0  0  0  0
 28 29  2  0  0  0  0
 28 33  1  0  0  0  0
 29 30  1  0  0  0  0
 30 31  2  0  0  0  0
 31 32  1  0  0  0  0
 32 33  2  0  0  0  0
M  END
>  <CHROM.1>
63.90463118,-166.48107310,144.35947400,178.01671309,-124.65669115,-56.91304210
32.10083686,-100.14642880,-170.54422986,7.75116184,8.62483593,42.71232182
72.00108516,-2.88563561,-0.92779486,-2.67242364

>  <Name>
ligand

>  <RI>
0

>  <Rbt.Current_Directory>
/home/itssahil/PROJECTS/Mol_Feturizer/New_Systems/rnas/3SUH

>  <Rbt.Executable>
rbdock ($Id: //depot/dev/client3/rdock/2013.1/src/exe/rbdock.cxx#4 $)

>  <Rbt.Library>
libRbt.so (2013.1, Build901 2013/11/27)

>  <Rbt.Parameter_File>
/export/apps/rDock/src/rDock_2013.1_src/data/scripts/dock_solv.prm

>  <Rbt.Receptor>
prm/pocket_docking_6.prm

>  <SCORE>
-11.3337

>  <SCORE.INTER>
-9.64065

>  <SCORE.INTER.CONST>
1

>  <SCORE.INTER.POLAR>
0

>  <SCORE.INTER.ROT>
10

>  <SCORE.INTER.SOLV>
17.4917

>  <SCORE.INTER.VDW>
-22.5243

>  <SCORE.INTER.norm>
-0.283549

>  <SCORE.INTRA>
-1.69303

>  <SCORE.INTRA.DIHEDRAL>
-1.9418

>  <SCORE.INTRA.DIHEDRAL.0>
12.2703

>  <SCORE.INTRA.POLAR>
0

>  <SCORE.INTRA.POLAR.0>
0

>  <SCORE.INTRA.REPUL>
0

>  <SCORE.INTRA.REPUL.0>
0

>  <SCORE.INTRA.SOLV>
2.2337

>  <SCORE.INTRA.SOLV.lig_0>
-64.3214

>  <SCORE.INTRA.VDW>
-1.83898

>  <SCORE.INTRA.VDW.0>
-1.67301

>  <SCORE.INTRA.norm>
-0.049795

>  <SCORE.RESTR>
0

>  <SCORE.RESTR.CAVITY>
0

>  <SCORE.RESTR.norm>
0

>  <SCORE.SYSTEM>
0

>  <SCORE.SYSTEM.CONST>
0

>  <SCORE.SYSTEM.DIHEDRAL>
0

>  <SCORE.SYSTEM.SOLV>
0

>  <SCORE.SYSTEM.norm>
0

>  <SCORE.heavy>
34

>  <SCORE.norm>
-0.333344

>  <RMSD>
3.370

$$$$
ligand
 OpenBabel11021811483D
libRbt.so/2013.1/901 2013/11/27
 34 36  0  0  0  0  0  0  0  0999 V2000
    5.4780   42.4233   74.0038 N   0  0  0  0  0  0  0  0  0  0  0  0
    4.9395   42.5908   75.3737 C   0  0  1  0  0  0  0  0  0  0  0  0
    6.6811   42.8655   73.6151 C   0  0  0  0  0  0  0  0  0  0  0  0
    7.4733   43.4615   74.3502 O   0  0  0  0  0  0  0  0  0  0  0  0
   12.7693   46.5576   71.0479 N   0  0  0  0  0  0  0  0  0  0  0  0
    5.8845   41.9263   76.3889 C   0  0  0  0  0  0  0  0  0  0  0  0
    6.0411   40.4242   76.1157 C   0  0  0  0  0  0  0  0  0  0  0  0
    7.0396   39.7825   77.0911 C   0  0  0  0  0  0  0  0  0  0  0  0
    8.2071   39.5964   76.6747 O   0  0  0  0  0  0  0  0  0  0  0  0
    6.6139   39.4944   78.2333 O   0  0  0  0  0  0  0  0  0  0  0  0
   12.2358   45.3146   69.1695 N   0  0  0  0  0  0  0  0  0  0  0  0
    5.7674   44.7591   75.9745 O   0  0  0  0  0  0  0  0  0  0  0  0
   12.3327   45.4236   70.5059 C   0  0  0  0  0  0  0  0  0  0  0  0
    3.5583   44.4946   75.7777 O   0  0  0  0  0  0  0  0  0  0  0  0
   11.9781   44.3545   71.3383 N   0  0  0  0  0  0  0  0  0  0  0  0
   11.5191   43.1778   70.7618 C   0  0  0  0  0  0  0  0  0  0  0  0
   11.4006   43.1094   69.3798 C   0  0  0  0  0  0  0  0  0  0  0  0
   11.1925   42.2297   71.4714 O   0  0  0  0  0  0  0  0  0  0  0  0
   11.3523   40.7656   69.2989 C   0  0  0  0  0  0  0  0  0  0  0  0
   11.0112   41.9299   68.7549 N   0  0  0  0  0  0  0  0  0  0  0  0
   10.4890   39.9621   69.6444 O   0  0  0  0  0  0  0  0  0  0  0  0
   10.4120   41.9827   67.4169 C   0  0  2  0  0  0  0  0  0  0  0  0
   11.2953   42.8505   66.5168 C   0  0  0  0  0  0  0  0  0  0  0  0
   11.7943   44.1851   68.5955 C   0  0  0  0  0  0  0  0  0  0  0  0
   11.7158   44.0980   67.2012 N   0  0  0  0  0  0  0  0  0  0  0  0
    8.9952   42.5628   67.4858 C   0  0  0  0  0  0  0  0  0  0  0  0
    8.1311   41.6658   68.2629 N   0  0  0  0  0  0  0  0  0  0  0  0
    7.0474   42.5306   72.1579 C   0  0  0  0  0  0  0  0  0  0  0  0
    7.0779   43.5298   71.1882 C   0  0  0  0  0  0  0  0  0  0  0  0
    7.4636   43.2352   69.8820 C   0  0  0  0  0  0  0  0  0  0  0  0
    7.7795   41.9297   69.5209 C   0  0  0  0  0  0  0  0  0  0  0  0
    7.7410   40.9290   70.4859 C   0  0  0  0  0  0  0  0  0  0  0  0
    7.3896   41.2293   71.8012 C   0  0  0  0  0  0  0  0  0  0  0  0
    4.7412   44.0764   75.7391 C   0  0  0  0  0  0  0  0  0  0  0  0
  1  3  1  0  0  0  0
  2  1  1  6  0  0  0
  2  6  1  0  0  0  0
  2 34  1  0  0  0  0
  3  4  2  0  0  0  0
  3 28  1  0  0  0  0
  5 13  1  0  0  0  0
  6  7  1  0  0  0  0
  7  8  1  0  0  0  0
  8  9  1  0  0  0  0
  8 10  1  0  0  0  0
 11 13  2  0  0  0  0
 11 24  1  0  0  0  0
 12 34  1  0  0  0  0
 13 15  1  0  0  0  0
 14 34  1  0  0  0  0
 15 16  1  0  0  0  0
 16 17  1  0  0  0  0
 16 18  2  0  0  0  0
 17 20  1  0  0  0  0
 17 24  2  0  0  0  0
 19 21  1  0  0  0  0
 19 20  1  0  0  0  0
 20 22  1  0  0  0  0
 22 23  1  0  0  0  0
 22 26  1  1  0  0  0
 23 25  1  0  0  0  0
 24 25  1  0  0  0  0
 26 27  1  0  0  0  0
 27 31  1  0  0  0  0
 28 29  2  0  0  0  0
 28 33  1  0  0  0  0
 29 30  1  0  0  0  0
 30 31  2  0  0  0  0
 31 32  1  0  0  0  0
 32 33  2  0  0  0  0
M  END
>  <CHROM.1>
-58.66721322,-60.05075491,-73.32062526,177.20716614,-99.31109419,120.13859079
-64.31831637,103.18443855,39.96630075,108.37715644,8.67735407,42.60527454
71.89807919,-3.02051166,-0.94783212,-2.82437281

>  <Name>
ligand

>  <RI>
0

>  <Rbt.Current_Directory>
/home/itssahil/PROJECTS/Mol_Feturizer/New_Systems/rnas/3SUH

>  <Rbt.Executable>
rbdock ($Id: //depot/dev/client3/rdock/2013.1/src/exe/rbdock.cxx#4 $)

>  <Rbt.Library>
libRbt.so (2013.1, Build901 2013/11/27)

>  <Rbt.Parameter_File>
/export/apps/rDock/src/rDock_2013.1_src/data/scripts/dock_solv.prm

>  <Rbt.Receptor>
prm/pocket_docking_7.prm

>  <SCORE>
-15.5283

>  <SCORE.INTER>
-11.1385

>  <SCORE.INTER.CONST>
1

>  <SCORE.INTER.POLAR>
0

>  <SCORE.INTER.ROT>
10

>  <SCORE.INTER.SOLV>
18.099

>  <SCORE.INTER.VDW>
-23.7254

>  <SCORE.INTER.norm>
-0.327604

>  <SCORE.INTRA>
-4.38973

>  <SCORE.INTRA.DIHEDRAL>
-4.64934

>  <SCORE.INTRA.DIHEDRAL.0>
12.2703

>  <SCORE.INTRA.POLAR>
0

>  <SCORE.INTRA.POLAR.0>
0

>  <SCORE.INTRA.REPUL>
0

>  <SCORE.INTRA.REPUL.0>
0

>  <SCORE.INTRA.SOLV>
0.929433

>  <SCORE.INTRA.SOLV.lig_0>
-64.3214

>  <SCORE.INTRA.VDW>
-2.52977

>  <SCORE.INTRA.VDW.0>
-1.67301

>  <SCORE.INTRA.norm>
-0.12911

>  <SCORE.RESTR>
0

>  <SCORE.RESTR.CAVITY>
0

>  <SCORE.RESTR.norm>
0

>  <SCORE.SYSTEM>
0

>  <SCORE.SYSTEM.CONST>
0

>  <SCORE.SYSTEM.DIHEDRAL>
0

>  <SCORE.SYSTEM.SOLV>
0

>  <SCORE.SYSTEM.norm>
0

>  <SCORE.heavy>
34

>  <SCORE.norm>
-0.456713

>  <RMSD>
3.385

$$$$
ligand
 OpenBabel11021811483D
libRbt.so/2013.1/901 2013/11/27
 34 36  0  0  0  0  0  0  0  0999 V2000
    5.7955   40.9958   75.2039 N   0  0  0  0  0  0  0  0  0  0  0  0
    4.7821   40.8934   76.2796 C   0  0  1  0  0  0  0  0  0  0  0  0
    5.9950   40.0530   74.2736 C   0  0  0  0  0  0  0  0  0  0  0  0
    5.3612   38.9960   74.2083 O   0  0  0  0  0  0  0  0  0  0  0  0
    7.7963   46.1117   71.7115 N   0  0  0  0  0  0  0  0  0  0  0  0
    5.4169   40.2718   77.5349 C   0  0  0  0  0  0  0  0  0  0  0  0
    4.3563   39.9041   78.5814 C   0  0  0  0  0  0  0  0  0  0  0  0
    4.9881   39.1926   79.7876 C   0  0  0  0  0  0  0  0  0  0  0  0
    5.3031   39.9036   80.7706 O   0  0  0  0  0  0  0  0  0  0  0  0
    5.1399   37.9524   79.7010 O   0  0  0  0  0  0  0  0  0  0  0  0
    7.7100   44.1758   70.4453 N   0  0  0  0  0  0  0  0  0  0  0  0
    4.9093   43.2742   76.5319 O   0  0  0  0  0  0  0  0  0  0  0  0
    8.3574   45.2901   70.8279 C   0  0  0  0  0  0  0  0  0  0  0  0
    2.9671   42.2706   76.9900 O   0  0  0  0  0  0  0  0  0  0  0  0
    9.6202   45.5983   70.3064 N   0  0  0  0  0  0  0  0  0  0  0  0
   10.1980   44.7312   69.3888 C   0  0  0  0  0  0  0  0  0  0  0  0
    9.5166   43.5728   69.0393 C   0  0  0  0  0  0  0  0  0  0  0  0
   11.3091   44.9748   68.9250 O   0  0  0  0  0  0  0  0  0  0  0  0
   10.7355   43.2109   67.0681 C   0  0  0  0  0  0  0  0  0  0  0  0
   10.0245   42.7104   68.0740 N   0  0  0  0  0  0  0  0  0  0  0  0
   11.3386   42.4655   66.2993 O   0  0  0  0  0  0  0  0  0  0  0  0
    9.6062   41.3043   68.0666 C   0  0  2  0  0  0  0  0  0  0  0  0
    8.0788   41.2455   68.1495 C   0  0  0  0  0  0  0  0  0  0  0  0
    8.2533   43.3268   69.5598 C   0  0  0  0  0  0  0  0  0  0  0  0
    7.5496   42.1812   69.1722 N   0  0  0  0  0  0  0  0  0  0  0  0
   10.2295   40.5528   69.2479 C   0  0  0  0  0  0  0  0  0  0  0  0
   10.0235   41.3173   70.4841 N   0  0  0  0  0  0  0  0  0  0  0  0
    7.0674   40.4024   73.2260 C   0  0  0  0  0  0  0  0  0  0  0  0
    7.6960   41.6451   73.2439 C   0  0  0  0  0  0  0  0  0  0  0  0
    8.7056   41.9394   72.3297 C   0  0  0  0  0  0  0  0  0  0  0  0
    9.0663   41.0109   71.3591 C   0  0  0  0  0  0  0  0  0  0  0  0
    8.4333   39.7727   71.3341 C   0  0  0  0  0  0  0  0  0  0  0  0
    7.4479   39.4641   72.2707 C   0  0  0  0  0  0  0  0  0  0  0  0
    4.1692   42.2654   76.6287 C   0  0  0  0  0  0  0  0  0  0  0  0
  1  3  1  0  0  0  0
  2  1  1  6  0  0  0
  2  6  1  0  0  0  0
  2 34  1  0  0  0  0
  3  4  2  0  0  0  0
  3 28  1  0  0  0  0
  5 13  1  0  0  0  0
  6  7  1  0  0  0  0
  7  8  1  0  0  0  0
  8  9  1  0  0  0  0
  8 10  1  0  0  0  0
 11 13  2  0  0  0  0
 11 24  1  0  0  0  0
 12 34  1  0  0  0  0
 13 15  1  0  0  0  0
 14 34  1  0  0  0  0
 15 16  1  0  0  0  0
 16 17  1  0  0  0  0
 16 18  2  0  0  0  0
 17 20  1  0  0  0  0
 17 24  2  0  0  0  0
 19 21  1  0  0  0  0
 19 20  1  0  0  0  0
 20 22  1  0  0  0  0
 22 23  1  0  0  0  0
 22 26  1  1  0  0  0
 23 25  1  0  0  0  0
 24 25  1  0  0  0  0
 26 27  1  0  0  0  0
 27 31  1  0  0  0  0
 28 29  2  0  0  0  0
 28 33  1  0  0  0  0
 29 30  1  0  0  0  0
 30 31  2  0  0  0  0
 31 32  1  0  0  0  0
 32 33  2  0  0  0  0
M  END
>  <CHROM.1>
92.37268823,-169.36625823,-33.07722605,175.92037529,94.14216710,170.62082494
48.77438888,100.63724099,-164.43727605,-3.45270067,7.55370997,41.84792183
72.62785599,2.76254370,-1.05800173,3.01422188

>  <Name>
ligand

>  <RI>
0

>  <Rbt.Current_Directory>
/home/itssahil/PROJECTS/Mol_Feturizer/New_Systems/rnas/3SUH

>  <Rbt.Executable>
rbdock ($Id: //depot/dev/client3/rdock/2013.1/src/exe/rbdock.cxx#4 $)

>  <Rbt.Library>
libRbt.so (2013.1, Build901 2013/11/27)

>  <Rbt.Parameter_File>
/export/apps/rDock/src/rDock_2013.1_src/data/scripts/dock_solv.prm

>  <Rbt.Receptor>
prm/pocket_docking_3.prm

>  <SCORE>
-6.1508

>  <SCORE.INTER>
-4.08608

>  <SCORE.INTER.CONST>
1

>  <SCORE.INTER.POLAR>
0

>  <SCORE.INTER.ROT>
10

>  <SCORE.INTER.SOLV>
14.0002

>  <SCORE.INTER.VDW>
-17.6574

>  <SCORE.INTER.norm>
-0.120179

>  <SCORE.INTRA>
-2.06471

>  <SCORE.INTRA.DIHEDRAL>
-3.51234

>  <SCORE.INTRA.DIHEDRAL.0>
12.2703

>  <SCORE.INTRA.POLAR>
0

>  <SCORE.INTRA.POLAR.0>
0

>  <SCORE.INTRA.REPUL>
0

>  <SCORE.INTRA.REPUL.0>
0

>  <SCORE.INTRA.SOLV>
2.37961

>  <SCORE.INTRA.SOLV.lig_0>
-64.3214

>  <SCORE.INTRA.VDW>
-1.49835

>  <SCORE.INTRA.VDW.0>
-1.67301

>  <SCORE.INTRA.norm>
-0.0607269

>  <SCORE.RESTR>
0

>  <SCORE.RESTR.CAVITY>
0

>  <SCORE.RESTR.norm>
0

>  <SCORE.SYSTEM>
0

>  <SCORE.SYSTEM.CONST>
0

>  <SCORE.SYSTEM.DIHEDRAL>
0

>  <SCORE.SYSTEM.SOLV>
0

>  <SCORE.SYSTEM.norm>
0

>  <SCORE.heavy>
34

>  <SCORE.norm>
-0.180906

>  <RMSD>
3.390

$$$$
ligand
 OpenBabel11021811483D
libRbt.so/2013.1/901 2013/11/27
 34 36  0  0  0  0  0  0  0  0999 V2000
    5.6644   41.7833   74.8535 N   0  0  0  0  0  0  0  0  0  0  0  0
    4.9363   41.9242   76.1360 C   0  0  1  0  0  0  0  0  0  0  0  0
    5.9482   40.6059   74.2813 C   0  0  0  0  0  0  0  0  0  0  0  0
    5.6383   39.5097   74.7562 O   0  0  0  0  0  0  0  0  0  0  0  0
    6.8545   45.9816   71.1042 N   0  0  0  0  0  0  0  0  0  0  0  0
    5.9146   42.3434   77.2462 C   0  0  0  0  0  0  0  0  0  0  0  0
    6.9434   41.2426   77.5379 C   0  0  0  0  0  0  0  0  0  0  0  0
    6.2572   39.9483   78.0005 C   0  0  0  0  0  0  0  0  0  0  0  0
    5.3987   40.0488   78.9082 O   0  0  0  0  0  0  0  0  0  0  0  0
    6.6045   38.8865   77.4341 O   0  0  0  0  0  0  0  0  0  0  0  0
    7.8274   44.6146   69.5096 N   0  0  0  0  0  0  0  0  0  0  0  0
    3.7621   43.7006   75.0345 O   0  0  0  0  0  0  0  0  0  0  0  0
    7.8585   45.1971   70.7208 C   0  0  0  0  0  0  0  0  0  0  0  0
    2.9564   42.9552   76.9798 O   0  0  0  0  0  0  0  0  0  0  0  0
    8.9385   44.9877   71.5876 N   0  0  0  0  0  0  0  0  0  0  0  0
    9.9780   44.1632   71.1787 C   0  0  0  0  0  0  0  0  0  0  0  0
    9.8995   43.5514   69.9345 C   0  0  0  0  0  0  0  0  0  0  0  0
   10.9313   43.9561   71.9254 O   0  0  0  0  0  0  0  0  0  0  0  0
   12.1942   43.0849   69.7959 C   0  0  0  0  0  0  0  0  0  0  0  0
   10.9473   42.7733   69.4550 N   0  0  0  0  0  0  0  0  0  0  0  0
   12.6687   44.1775   69.4936 O   0  0  0  0  0  0  0  0  0  0  0  0
   10.6845   41.7554   68.4318 C   0  0  2  0  0  0  0  0  0  0  0  0
    9.8726   42.3931   67.3015 C   0  0  0  0  0  0  0  0  0  0  0  0
    8.8232   43.8150   69.0982 C   0  0  0  0  0  0  0  0  0  0  0  0
    8.7678   43.2325   67.8272 N   0  0  0  0  0  0  0  0  0  0  0  0
    9.9157   40.5746   69.0344 C   0  0  0  0  0  0  0  0  0  0  0  0
    8.5097   40.9488   69.2307 N   0  0  0  0  0  0  0  0  0  0  0  0
    6.6671   40.7092   72.9240 C   0  0  0  0  0  0  0  0  0  0  0  0
    7.2427   39.5831   72.3405 C   0  0  0  0  0  0  0  0  0  0  0  0
    7.8443   39.6667   71.0864 C   0  0  0  0  0  0  0  0  0  0  0  0
    7.9165   40.8866   70.4224 C   0  0  0  0  0  0  0  0  0  0  0  0
    7.3501   42.0140   71.0076 C   0  0  0  0  0  0  0  0  0  0  0  0
    6.7166   41.9241   72.2463 C   0  0  0  0  0  0  0  0  0  0  0  0
    3.7867   42.9482   76.0384 C   0  0  0  0  0  0  0  0  0  0  0  0
  1  3  1  0  0  0  0
  2  1  1  6  0  0  0
  2  6  1  0  0  0  0
  2 34  1  0  0  0  0
  3  4  2  0  0  0  0
  3 28  1  0  0  0  0
  5 13  1  0  0  0  0
  6  7  1  0  0  0  0
  7  8  1  0  0  0  0
  8  9  1  0  0  0  0
  8 10  1  0  0  0  0
 11 13  2  0  0  0  0
 11 24  1  0  0  0  0
 12 34  1  0  0  0  0
 13 15  1  0  0  0  0
 14 34  1  0  0  0  0
 15 16  1  0  0  0  0
 16 17  1  0  0  0  0
 16 18  2  0  0  0  0
 17 20  1  0  0  0  0
 17 24  2  0  0  0  0
 19 21  1  0  0  0  0
 19 20  1  0  0  0  0
 20 22  1  0  0  0  0
 22 23  1  0  0  0  0
 22 26  1  1  0  0  0
 23 25  1  0  0  0  0
 24 25  1  0  0  0  0
 26 27  1  0  0  0  0
 27 31  1  0  0  0  0
 28 29  2  0  0  0  0
 28 33  1  0  0  0  0
 29 30  1  0  0  0  0
 30 31  2  0  0  0  0
 31 32  1  0  0  0  0
 32 33  2  0  0  0  0
M  END
>  <CHROM.1>
106.71206628,-65.87749757,-13.35617228,-60.27546982,-48.98428190,-60.64371004
75.79830792,-122.78468613,-59.65431150,167.87129592,7.70335629,42.24056351
72.52343032,2.54671635,-0.87412517,2.67196962

>  <Name>
ligand

>  <RI>
0

>  <Rbt.Current_Directory>
/home/itssahil/PROJECTS/Mol_Feturizer/New_Systems/rnas/3SUH

>  <Rbt.Executable>
rbdock ($Id: //depot/dev/client3/rdock/2013.1/src/exe/rbdock.cxx#4 $)

>  <Rbt.Library>
libRbt.so (2013.1, Build901 2013/11/27)

>  <Rbt.Parameter_File>
/export/apps/rDock/src/rDock_2013.1_src/data/scripts/dock_solv.prm

>  <Rbt.Receptor>
prm/pocket_docking_3.prm

>  <SCORE>
-9.72304

>  <SCORE.INTER>
-6.83145

>  <SCORE.INTER.CONST>
1

>  <SCORE.INTER.POLAR>
0

>  <SCORE.INTER.ROT>
10

>  <SCORE.INTER.SOLV>
15.5839

>  <SCORE.INTER.VDW>
-20.0156

>  <SCORE.INTER.norm>
-0.200925

>  <SCORE.INTRA>
-2.90249

>  <SCORE.INTRA.DIHEDRAL>
-2.74348

>  <SCORE.INTRA.DIHEDRAL.0>
12.2703

>  <SCORE.INTRA.POLAR>
0

>  <SCORE.INTRA.POLAR.0>
0

>  <SCORE.INTRA.REPUL>
0

>  <SCORE.INTRA.REPUL.0>
0

>  <SCORE.INTRA.SOLV>
2.3916

>  <SCORE.INTRA.SOLV.lig_0>
-64.3214

>  <SCORE.INTRA.VDW>
-2.72655

>  <SCORE.INTRA.VDW.0>
-1.67301

>  <SCORE.INTRA.norm>
-0.0853675

>  <SCORE.RESTR>
0.0109032

>  <SCORE.RESTR.CAVITY>
0.0109032

>  <SCORE.RESTR.norm>
0.000320682

>  <SCORE.SYSTEM>
0

>  <SCORE.SYSTEM.CONST>
0

>  <SCORE.SYSTEM.DIHEDRAL>
0

>  <SCORE.SYSTEM.SOLV>
0

>  <SCORE.SYSTEM.norm>
0

>  <SCORE.heavy>
34

>  <SCORE.norm>
-0.285972

>  <RMSD>
3.394

$$$$
ligand
 OpenBabel11021811483D
libRbt.so/2013.1/901 2013/11/27
 34 36  0  0  0  0  0  0  0  0999 V2000
    6.1608   41.0148   74.8919 N   0  0  0  0  0  0  0  0  0  0  0  0
    5.4449   41.2511   76.1673 C   0  0  1  0  0  0  0  0  0  0  0  0
    6.0330   39.9009   74.1591 C   0  0  0  0  0  0  0  0  0  0  0  0
    5.3091   38.9486   74.4626 O   0  0  0  0  0  0  0  0  0  0  0  0
   10.9708   47.2233   70.8895 N   0  0  0  0  0  0  0  0  0  0  0  0
    6.4143   41.8383   77.2068 C   0  0  0  0  0  0  0  0  0  0  0  0
    5.7511   41.9744   78.5841 C   0  0  0  0  0  0  0  0  0  0  0  0
    5.3212   40.6052   79.1323 C   0  0  0  0  0  0  0  0  0  0  0  0
    6.2072   39.9006   79.6706 O   0  0  0  0  0  0  0  0  0  0  0  0
    4.1149   40.2940   79.0033 O   0  0  0  0  0  0  0  0  0  0  0  0
    9.7921   45.4614   69.9598 N   0  0  0  0  0  0  0  0  0  0  0  0
    4.3888   43.1952   75.2437 O   0  0  0  0  0  0  0  0  0  0  0  0
   10.9364   46.1529   70.1000 C   0  0  0  0  0  0  0  0  0  0  0  0
    3.1878   41.8919   76.6031 O   0  0  0  0  0  0  0  0  0  0  0  0
   12.0976   45.7590   69.4231 N   0  0  0  0  0  0  0  0  0  0  0  0
   12.0511   44.6376   68.6059 C   0  0  0  0  0  0  0  0  0  0  0  0
   10.8619   43.9273   68.5082 C   0  0  0  0  0  0  0  0  0  0  0  0
   13.0592   44.2665   68.0098 O   0  0  0  0  0  0  0  0  0  0  0  0
   11.4447   42.8340   66.5165 C   0  0  0  0  0  0  0  0  0  0  0  0
   10.7493   42.8394   67.6497 N   0  0  0  0  0  0  0  0  0  0  0  0
   11.1968   43.6471   65.6289 O   0  0  0  0  0  0  0  0  0  0  0  0
    9.7265   41.8189   67.9037 C   0  0  2  0  0  0  0  0  0  0  0  0
    8.3833   42.5160   68.1340 C   0  0  0  0  0  0  0  0  0  0  0  0
    9.7292   44.3755   69.1743 C   0  0  0  0  0  0  0  0  0  0  0  0
    8.5205   43.6835   69.0393 N   0  0  0  0  0  0  0  0  0  0  0  0
   10.1017   40.9759   69.1273 C   0  0  0  0  0  0  0  0  0  0  0  0
    9.0668   39.9622   69.3653 N   0  0  0  0  0  0  0  0  0  0  0  0
    6.8354   39.9020   72.8454 C   0  0  0  0  0  0  0  0  0  0  0  0
    6.8015   41.0054   71.9962 C   0  0  0  0  0  0  0  0  0  0  0  0
    7.5718   41.0273   70.8352 C   0  0  0  0  0  0  0  0  0  0  0  0
    8.3493   39.9278   70.4878 C   0  0  0  0  0  0  0  0  0  0  0  0
    8.3774   38.8214   71.3300 C   0  0  0  0  0  0  0  0  0  0  0  0
    7.6348   38.8128   72.5099 C   0  0  0  0  0  0  0  0  0  0  0  0
    4.2382   42.1950   75.9863 C   0  0  0  0  0  0  0  0  0  0  0  0
  1  3  1  0  0  0  0
  2  1  1  6  0  0  0
  2  6  1  0  0  0  0
  2 34  1  0  0  0  0
  3  4  2  0  0  0  0
  3 28  1  0  0  0  0
  5 13  1  0  0  0  0
  6  7  1  0  0  0  0
  7  8  1  0  0  0  0
  8  9  1  0  0  0  0
  8 10  1  0  0  0  0
 11 13  2  0  0  0  0
 11 24  1  0  0  0  0
 12 34  1  0  0  0  0
 13 15  1  0  0  0  0
 14 34  1  0  0  0  0
 15 16  1  0  0  0  0
 16 17  1  0  0  0  0
 16 18  2  0  0  0  0
 17 20  1  0  0  0  0
 17 24  2  0  0  0  0
 19 21  1  0  0  0  0
 19 20  1  0  0  0  0
 20 22  1  0  0  0  0
 22 23  1  0  0  0  0
 22 26  1  1  0  0  0
 23 25  1  0  0  0  0
 24 25  1  0  0  0  0
 26 27  1  0  0  0  0
 27 31  1  0  0  0  0
 28 29  2  0  0  0  0
 28 33  1  0  0  0  0
 29 30  1  0  0  0  0
 30 31  2  0  0  0  0
 31 32  1  0  0  0  0
 32 33  2  0  0  0  0
M  END
>  <CHROM.1>
135.67609699,-174.54067444,-41.66670049,61.86011007,80.61936002,-66.29655550
179.96501806,-118.11427883,59.53783239,-46.92600198,8.10817507,42.15329065
72.09915075,2.83009649,0.99062778,0.68379571

>  <Name>
ligand

>  <RI>
0

>  <Rbt.Current_Directory>
/home/itssahil/PROJECTS/Mol_Feturizer/New_Systems/rnas/3SUH

>  <Rbt.Executable>
rbdock ($Id: //depot/dev/client3/rdock/2013.1/src/exe/rbdock.cxx#4 $)

>  <Rbt.Library>
libRbt.so (2013.1, Build901 2013/11/27)

>  <Rbt.Parameter_File>
/export/apps/rDock/src/rDock_2013.1_src/data/scripts/dock_solv.prm

>  <Rbt.Receptor>
prm/pocket_docking_5.prm

>  <SCORE>
-14.0038

>  <SCORE.INTER>
-9.90823

>  <SCORE.INTER.CONST>
1

>  <SCORE.INTER.POLAR>
0

>  <SCORE.INTER.ROT>
10

>  <SCORE.INTER.SOLV>
20.1157

>  <SCORE.INTER.VDW>
-23.5774

>  <SCORE.INTER.norm>
-0.291419

>  <SCORE.INTRA>
-4.09554

>  <SCORE.INTRA.DIHEDRAL>
-3.64819

>  <SCORE.INTRA.DIHEDRAL.0>
12.2703

>  <SCORE.INTRA.POLAR>
0

>  <SCORE.INTRA.POLAR.0>
0

>  <SCORE.INTRA.REPUL>
0

>  <SCORE.INTRA.REPUL.0>
0

>  <SCORE.INTRA.SOLV>
-0.832742

>  <SCORE.INTRA.SOLV.lig_0>
-64.3214

>  <SCORE.INTRA.VDW>
-1.85507

>  <SCORE.INTRA.VDW.0>
-1.67301

>  <SCORE.INTRA.norm>
-0.120457

>  <SCORE.RESTR>
0

>  <SCORE.RESTR.CAVITY>
0

>  <SCORE.RESTR.norm>
0

>  <SCORE.SYSTEM>
0

>  <SCORE.SYSTEM.CONST>
0

>  <SCORE.SYSTEM.DIHEDRAL>
0

>  <SCORE.SYSTEM.SOLV>
0

>  <SCORE.SYSTEM.norm>
0

>  <SCORE.heavy>
34

>  <SCORE.norm>
-0.411876

>  <RMSD>
3.396

$$$$
ligand
 OpenBabel11021811483D
libRbt.so/2013.1/901 2013/11/27
 34 36  0  0  0  0  0  0  0  0999 V2000
    5.9733   41.8951   74.0351 N   0  0  0  0  0  0  0  0  0  0  0  0
    5.4571   42.0491   75.4152 C   0  0  1  0  0  0  0  0  0  0  0  0
    6.0656   42.9012   73.1557 C   0  0  0  0  0  0  0  0  0  0  0  0
    5.7312   44.0651   73.3936 O   0  0  0  0  0  0  0  0  0  0  0  0
   12.5039   46.9147   70.9482 N   0  0  0  0  0  0  0  0  0  0  0  0
    5.4401   40.6821   76.1197 C   0  0  0  0  0  0  0  0  0  0  0  0
    4.4898   40.6795   77.3248 C   0  0  0  0  0  0  0  0  0  0  0  0
    4.9775   41.6400   78.4200 C   0  0  0  0  0  0  0  0  0  0  0  0
    4.2461   42.6223   78.6868 O   0  0  0  0  0  0  0  0  0  0  0  0
    6.0705   41.3693   78.9686 O   0  0  0  0  0  0  0  0  0  0  0  0
   12.1435   45.5704   69.0985 N   0  0  0  0  0  0  0  0  0  0  0  0
    7.5150   42.7999   76.3895 O   0  0  0  0  0  0  0  0  0  0  0  0
   12.1927   45.7282   70.4327 C   0  0  0  0  0  0  0  0  0  0  0  0
    5.6883   44.0474   76.6992 O   0  0  0  0  0  0  0  0  0  0  0  0
   11.9191   44.6552   71.2903 N   0  0  0  0  0  0  0  0  0  0  0  0
   11.5906   43.4231   70.7411 C   0  0  0  0  0  0  0  0  0  0  0  0
   11.5173   43.3023   69.3596 C   0  0  0  0  0  0  0  0  0  0  0  0
   11.3366   42.4696   71.4728 O   0  0  0  0  0  0  0  0  0  0  0  0
   11.6953   40.9634   69.3535 C   0  0  0  0  0  0  0  0  0  0  0  0
   11.2597   42.0726   68.7639 N   0  0  0  0  0  0  0  0  0  0  0  0
   12.8311   40.9098   69.8197 O   0  0  0  0  0  0  0  0  0  0  0  0
   10.6953   42.0274   67.4105 C   0  0  2  0  0  0  0  0  0  0  0  0
   11.5160   42.9490   66.5048 C   0  0  0  0  0  0  0  0  0  0  0  0
   11.8279   44.3870   68.5507 C   0  0  0  0  0  0  0  0  0  0  0  0
   11.7965   44.2511   67.1585 N   0  0  0  0  0  0  0  0  0  0  0  0
    9.2282   42.4702   67.4258 C   0  0  0  0  0  0  0  0  0  0  0  0
    8.4286   41.5051   68.1903 N   0  0  0  0  0  0  0  0  0  0  0  0
    6.6809   42.5129   71.7991 C   0  0  0  0  0  0  0  0  0  0  0  0
    6.8910   43.4763   70.8155 C   0  0  0  0  0  0  0  0  0  0  0  0
    7.4990   43.1336   69.6094 C   0  0  0  0  0  0  0  0  0  0  0  0
    7.8625   41.8152   69.3561 C   0  0  0  0  0  0  0  0  0  0  0  0
    7.6453   40.8502   70.3338 C   0  0  0  0  0  0  0  0  0  0  0  0
    7.0695   41.1987   71.5547 C   0  0  0  0  0  0  0  0  0  0  0  0
    6.2949   43.0503   76.2371 C   0  0  0  0  0  0  0  0  0  0  0  0
  1  3  1  0  0  0  0
  2  1  1  6  0  0  0
  2  6  1  0  0  0  0
  2 34  1  0  0  0  0
  3  4  2  0  0  0  0
  3 28  1  0  0  0  0
  5 13  1  0  0  0  0
  6  7  1  0  0  0  0
  7  8  1  0  0  0  0
  8  9  1  0  0  0  0
  8 10  1  0  0  0  0
 11 13  2  0  0  0  0
 11 24  1  0  0  0  0
 12 34  1  0  0  0  0
 13 15  1  0  0  0  0
 14 34  1  0  0  0  0
 15 16  1  0  0  0  0
 16 17  1  0  0  0  0
 16 18  2  0  0  0  0
 17 20  1  0  0  0  0
 17 24  2  0  0  0  0
 19 21  1  0  0  0  0
 19 20  1  0  0  0  0
 20 22  1  0  0  0  0
 22 23  1  0  0  0  0
 22 26  1  1  0  0  0
 23 25  1  0  0  0  0
 24 25  1  0  0  0  0
 26 27  1  0  0  0  0
 27 31  1  0  0  0  0
 28 29  2  0  0  0  0
 28 33  1  0  0  0  0
 29 30  1  0  0  0  0
 30 31  2  0  0  0  0
 31 32  1  0  0  0  0
 32 33  2  0  0  0  0
M  END
>  <CHROM.1>
177.68889042,-160.05893637,-59.26746206,-65.02504642,115.86405623,-43.89454166
-65.30569002,112.36361993,28.36387970,-177.07415260,8.63978429,42.76828530
72.02317609,2.36057793,0.60645190,1.19077127

>  <Name>
ligand

>  <RI>
0

>  <Rbt.Current_Directory>
/home/itssahil/PROJECTS/Mol_Feturizer/New_Systems/rnas/3SUH

>  <Rbt.Executable>
rbdock ($Id: //depot/dev/client3/rdock/2013.1/src/exe/rbdock.cxx#4 $)

>  <Rbt.Library>
libRbt.so (2013.1, Build901 2013/11/27)

>  <Rbt.Parameter_File>
/export/apps/rDock/src/rDock_2013.1_src/data/scripts/dock_solv.prm

>  <Rbt.Receptor>
prm/pocket_docking_3.prm

>  <SCORE>
-15.3754

>  <SCORE.INTER>
-12.2535

>  <SCORE.INTER.CONST>
1

>  <SCORE.INTER.POLAR>
0

>  <SCORE.INTER.ROT>
10

>  <SCORE.INTER.SOLV>
19.6852

>  <SCORE.INTER.VDW>
-24.9974

>  <SCORE.INTER.norm>
-0.360396

>  <SCORE.INTRA>
-3.66847

>  <SCORE.INTRA.DIHEDRAL>
-2.90643

>  <SCORE.INTRA.DIHEDRAL.0>
12.2703

>  <SCORE.INTRA.POLAR>
0

>  <SCORE.INTRA.POLAR.0>
0

>  <SCORE.INTRA.REPUL>
0

>  <SCORE.INTRA.REPUL.0>
0

>  <SCORE.INTRA.SOLV>
-0.493133

>  <SCORE.INTRA.SOLV.lig_0>
-64.3214

>  <SCORE.INTRA.VDW>
-1.96869

>  <SCORE.INTRA.VDW.0>
-1.67301

>  <SCORE.INTRA.norm>
-0.107896

>  <SCORE.RESTR>
0.546508

>  <SCORE.RESTR.CAVITY>
0.546508

>  <SCORE.RESTR.norm>
0.0160738

>  <SCORE.SYSTEM>
0

>  <SCORE.SYSTEM.CONST>
0

>  <SCORE.SYSTEM.DIHEDRAL>
0

>  <SCORE.SYSTEM.SOLV>
0

>  <SCORE.SYSTEM.norm>
0

>  <SCORE.heavy>
34

>  <SCORE.norm>
-0.452218

>  <RMSD>
3.397

$$$$
ligand
 OpenBabel11021811483D
libRbt.so/2013.1/901 2013/11/27
 34 36  0  0  0  0  0  0  0  0999 V2000
    6.1030   41.2594   74.1488 N   0  0  0  0  0  0  0  0  0  0  0  0
    5.6165   41.1988   75.5469 C   0  0  1  0  0  0  0  0  0  0  0  0
    6.1752   42.3883   73.4316 C   0  0  0  0  0  0  0  0  0  0  0  0
    5.8446   43.5008   73.8514 O   0  0  0  0  0  0  0  0  0  0  0  0
   13.0683   46.3962   71.2444 N   0  0  0  0  0  0  0  0  0  0  0  0
    5.6756   39.7487   76.0557 C   0  0  0  0  0  0  0  0  0  0  0  0
    5.0526   39.6140   77.4518 C   0  0  0  0  0  0  0  0  0  0  0  0
    5.1638   38.1735   77.9740 C   0  0  0  0  0  0  0  0  0  0  0  0
    6.2085   37.8695   78.5963 O   0  0  0  0  0  0  0  0  0  0  0  0
    4.1999   37.4082   77.7415 O   0  0  0  0  0  0  0  0  0  0  0  0
   12.4744   45.2637   69.3149 N   0  0  0  0  0  0  0  0  0  0  0  0
    7.6794   42.1223   76.3463 O   0  0  0  0  0  0  0  0  0  0  0  0
   12.5966   45.3015   70.6532 C   0  0  0  0  0  0  0  0  0  0  0  0
    5.7825   42.7870   77.3204 O   0  0  0  0  0  0  0  0  0  0  0  0
   12.2321   44.1989   71.4361 N   0  0  0  0  0  0  0  0  0  0  0  0
   11.7365   43.0639   70.8086 C   0  0  0  0  0  0  0  0  0  0  0  0
   11.5928   43.0695   69.4274 C   0  0  0  0  0  0  0  0  0  0  0  0
   11.4005   42.0879   71.4747 O   0  0  0  0  0  0  0  0  0  0  0  0
   11.4895   40.7346   69.2276 C   0  0  0  0  0  0  0  0  0  0  0  0
   11.1659   41.9326   68.7502 N   0  0  0  0  0  0  0  0  0  0  0  0
   10.6357   40.0183   69.7455 O   0  0  0  0  0  0  0  0  0  0  0  0
   10.5452   42.0674   67.4278 C   0  0  2  0  0  0  0  0  0  0  0  0
   11.4324   42.9609   66.5573 C   0  0  0  0  0  0  0  0  0  0  0  0
   11.9974   44.1753   68.6921 C   0  0  0  0  0  0  0  0  0  0  0  0
   11.8930   44.1620   67.2968 N   0  0  0  0  0  0  0  0  0  0  0  0
    9.1434   42.6742   67.5523 C   0  0  0  0  0  0  0  0  0  0  0  0
    8.2417   41.7082   68.1919 N   0  0  0  0  0  0  0  0  0  0  0  0
    6.7615   42.2142   72.0189 C   0  0  0  0  0  0  0  0  0  0  0  0
    7.2106   40.9684   71.5876 C   0  0  0  0  0  0  0  0  0  0  0  0
    7.6894   40.8005   70.2898 C   0  0  0  0  0  0  0  0  0  0  0  0
    7.7664   41.8863   69.4240 C   0  0  0  0  0  0  0  0  0  0  0  0
    7.3266   43.1330   69.8560 C   0  0  0  0  0  0  0  0  0  0  0  0
    6.8142   43.2944   71.1425 C   0  0  0  0  0  0  0  0  0  0  0  0
    6.4321   42.1146   76.4827 C   0  0  0  0  0  0  0  0  0  0  0  0
  1  3  1  0  0  0  0
  2  1  1  6  0  0  0
  2  6  1  0  0  0  0
  2 34  1  0  0  0  0
  3  4  2  0  0  0  0
  3 28  1  0  0  0  0
  5 13  1  0  0  0  0
  6  7  1  0  0  0  0
  7  8  1  0  0  0  0
  8  9  1  0  0  0  0
  8 10  1  0  0  0  0
 11 13  2  0  0  0  0
 11 24  1  0  0  0  0
 12 34  1  0  0  0  0
 13 15  1  0  0  0  0
 14 34  1  0  0  0  0
 15 16  1  0  0  0  0
 16 17  1  0  0  0  0
 16 18  2  0  0  0  0
 17 20  1  0  0  0  0
 17 24  2  0  0  0  0
 19 21  1  0  0  0  0
 19 20  1  0  0  0  0
 20 22  1  0  0  0  0
 22 23  1  0  0  0  0
 22 26  1  1  0  0  0
 23 25  1  0  0  0  0
 24 25  1  0  0  0  0
 26 27  1  0  0  0  0
 27 31  1  0  0  0  0
 28 29  2  0  0  0  0
 28 33  1  0  0  0  0
 29 30  1  0  0  0  0
 30 31  2  0  0  0  0
 31 32  1  0  0  0  0
 32 33  2  0  0  0  0
M  END
>  <CHROM.1>
-179.79770954,-174.40382272,-42.81806688,-177.85139693,87.88014912,108.38976500
-69.33948770,110.17008002,-139.09334519,-2.15854448,8.65998832,42.01580793
72.08281661,2.46804093,0.78043874,1.24942647

>  <Name>
ligand

>  <RI>
0

>  <Rbt.Current_Directory>
/home/itssahil/PROJECTS/Mol_Feturizer/New_Systems/rnas/3SUH

>  <Rbt.Executable>
rbdock ($Id: //depot/dev/client3/rdock/2013.1/src/exe/rbdock.cxx#4 $)

>  <Rbt.Library>
libRbt.so (2013.1, Build901 2013/11/27)

>  <Rbt.Parameter_File>
/export/apps/rDock/src/rDock_2013.1_src/data/scripts/dock_solv.prm

>  <Rbt.Receptor>
prm/pocket_docking_6.prm

>  <SCORE>
-17.7172

>  <SCORE.INTER>
-13.2923

>  <SCORE.INTER.CONST>
1

>  <SCORE.INTER.POLAR>
0

>  <SCORE.INTER.ROT>
10

>  <SCORE.INTER.SOLV>
19.9129

>  <SCORE.INTER.VDW>
-25.7659

>  <SCORE.INTER.norm>
-0.390951

>  <SCORE.INTRA>
-4.42483

>  <SCORE.INTRA.DIHEDRAL>
-4.06957

>  <SCORE.INTRA.DIHEDRAL.0>
12.2703

>  <SCORE.INTRA.POLAR>
0

>  <SCORE.INTRA.POLAR.0>
0

>  <SCORE.INTRA.REPUL>
0

>  <SCORE.INTRA.REPUL.0>
0

>  <SCORE.INTRA.SOLV>
0.0774878

>  <SCORE.INTRA.SOLV.lig_0>
-64.3214

>  <SCORE.INTRA.VDW>
-2.42879

>  <SCORE.INTRA.VDW.0>
-1.67301

>  <SCORE.INTRA.norm>
-0.130142

>  <SCORE.RESTR>
0

>  <SCORE.RESTR.CAVITY>
0

>  <SCORE.RESTR.norm>
0

>  <SCORE.SYSTEM>
0

>  <SCORE.SYSTEM.CONST>
0

>  <SCORE.SYSTEM.DIHEDRAL>
0

>  <SCORE.SYSTEM.SOLV>
0

>  <SCORE.SYSTEM.norm>
0

>  <SCORE.heavy>
34

>  <SCORE.norm>
-0.521093

>  <RMSD>
3.406

$$$$
ligand
 OpenBabel11021811483D
libRbt.so/2013.1/901 2013/11/27
 34 36  0  0  0  0  0  0  0  0999 V2000
    6.4186   42.5375   74.6455 N   0  0  0  0  0  0  0  0  0  0  0  0
    6.0260   42.7179   76.0625 C   0  0  1  0  0  0  0  0  0  0  0  0
    5.9579   43.2941   73.6408 C   0  0  0  0  0  0  0  0  0  0  0  0
    5.1563   44.2221   73.7806 O   0  0  0  0  0  0  0  0  0  0  0  0
    9.4866   46.7125   70.9599 N   0  0  0  0  0  0  0  0  0  0  0  0
    4.9449   41.6903   76.4376 C   0  0  0  0  0  0  0  0  0  0  0  0
    5.3838   40.2593   76.0987 C   0  0  0  0  0  0  0  0  0  0  0  0
    6.5437   39.8055   76.9981 C   0  0  0  0  0  0  0  0  0  0  0  0
    7.5970   39.4338   76.4294 O   0  0  0  0  0  0  0  0  0  0  0  0
    6.3523   39.8427   78.2353 O   0  0  0  0  0  0  0  0  0  0  0  0
    9.8194   45.1088   69.3241 N   0  0  0  0  0  0  0  0  0  0  0  0
    7.0279   42.7827   78.2396 O   0  0  0  0  0  0  0  0  0  0  0  0
    9.7976   45.4641   70.6205 C   0  0  0  0  0  0  0  0  0  0  0  0
    8.3318   42.2819   76.4967 O   0  0  0  0  0  0  0  0  0  0  0  0
   10.0989   44.5329   71.6224 N   0  0  0  0  0  0  0  0  0  0  0  0
   10.4170   43.2319   71.2567 C   0  0  0  0  0  0  0  0  0  0  0  0
   10.3992   42.8898   69.9109 C   0  0  0  0  0  0  0  0  0  0  0  0
   10.6750   42.3947   72.1179 O   0  0  0  0  0  0  0  0  0  0  0  0
   11.7102   40.9629   70.1769 C   0  0  0  0  0  0  0  0  0  0  0  0
   10.7773   41.6186   69.4931 N   0  0  0  0  0  0  0  0  0  0  0  0
   11.5064   39.8155   70.5671 O   0  0  0  0  0  0  0  0  0  0  0  0
   10.2955   41.1061   68.2058 C   0  0  2  0  0  0  0  0  0  0  0  0
   10.5441   42.1668   67.1304 C   0  0  0  0  0  0  0  0  0  0  0  0
   10.1247   43.8562   68.9528 C   0  0  0  0  0  0  0  0  0  0  0  0
   10.1507   43.5199   67.5948 N   0  0  0  0  0  0  0  0  0  0  0  0
    8.8016   40.7737   68.2856 C   0  0  0  0  0  0  0  0  0  0  0  0
    8.0337   42.0026   68.5212 N   0  0  0  0  0  0  0  0  0  0  0  0
    6.5469   42.9544   72.2597 C   0  0  0  0  0  0  0  0  0  0  0  0
    6.9653   41.6583   71.9681 C   0  0  0  0  0  0  0  0  0  0  0  0
    7.4465   41.3399   70.6997 C   0  0  0  0  0  0  0  0  0  0  0  0
    7.5567   42.3241   69.7232 C   0  0  0  0  0  0  0  0  0  0  0  0
    7.1476   43.6208   70.0155 C   0  0  0  0  0  0  0  0  0  0  0  0
    6.6328   43.9325   71.2731 C   0  0  0  0  0  0  0  0  0  0  0  0
    7.2298   42.5821   77.0175 C   0  0  0  0  0  0  0  0  0  0  0  0
  1  3  1  0  0  0  0
  2  1  1  6  0  0  0
  2  6  1  0  0  0  0
  2 34  1  0  0  0  0
  3  4  2  0  0  0  0
  3 28  1  0  0  0  0
  5 13  1  0  0  0  0
  6  7  1  0  0  0  0
  7  8  1  0  0  0  0
  8  9  1  0  0  0  0
  8 10  1  0  0  0  0
 11 13  2  0  0  0  0
 11 24  1  0  0  0  0
 12 34  1  0  0  0  0
 13 15  1  0  0  0  0
 14 34  1  0  0  0  0
 15 16  1  0  0  0  0
 16 17  1  0  0  0  0
 16 18  2  0  0  0  0
 17 20  1  0  0  0  0
 17 24  2  0  0  0  0
 19 21  1  0  0  0  0
 19 20  1  0  0  0  0
 20 22  1  0  0  0  0
 22 23  1  0  0  0  0
 22 26  1  1  0  0  0
 23 25  1  0  0  0  0
 24 25  1  0  0  0  0
 26 27  1  0  0  0  0
 27 31  1  0  0  0  0
 28 29  2  0  0  0  0
 28 33  1  0  0  0  0
 29 30  1  0  0  0  0
 30 31  2  0  0  0  0
 31 32  1  0  0  0  0
 32 33  2  0  0  0  0
M  END
>  <CHROM.1>
99.58011931,53.12511637,176.50440753,68.05779466,-123.00176083,128.24798915
64.51991504,-101.87887553,-18.04008046,29.17156885,8.30751341,42.40664457
72.30563006,2.39696829,-0.95833919,2.46324200

>  <Name>
ligand

>  <RI>
0

>  <Rbt.Current_Directory>
/home/itssahil/PROJECTS/Mol_Feturizer/New_Systems/rnas/3SUH

>  <Rbt.Executable>
rbdock ($Id: //depot/dev/client3/rdock/2013.1/src/exe/rbdock.cxx#4 $)

>  <Rbt.Library>
libRbt.so (2013.1, Build901 2013/11/27)

>  <Rbt.Parameter_File>
/export/apps/rDock/src/rDock_2013.1_src/data/scripts/dock_solv.prm

>  <Rbt.Receptor>
prm/pocket_docking_5.prm

>  <SCORE>
-11.7173

>  <SCORE.INTER>
-7.84432

>  <SCORE.INTER.CONST>
1

>  <SCORE.INTER.POLAR>
0

>  <SCORE.INTER.ROT>
10

>  <SCORE.INTER.SOLV>
14.3661

>  <SCORE.INTER.VDW>
-20.2849

>  <SCORE.INTER.norm>
-0.230715

>  <SCORE.INTRA>
-3.87296

>  <SCORE.INTRA.DIHEDRAL>
-3.62325

>  <SCORE.INTRA.DIHEDRAL.0>
12.2703

>  <SCORE.INTRA.POLAR>
0

>  <SCORE.INTRA.POLAR.0>
0

>  <SCORE.INTRA.REPUL>
0

>  <SCORE.INTRA.REPUL.0>
0

>  <SCORE.INTRA.SOLV>
2.29214

>  <SCORE.INTRA.SOLV.lig_0>
-64.3214

>  <SCORE.INTRA.VDW>
-3.2074

>  <SCORE.INTRA.VDW.0>
-1.67301

>  <SCORE.INTRA.norm>
-0.11391

>  <SCORE.RESTR>
0

>  <SCORE.RESTR.CAVITY>
0

>  <SCORE.RESTR.norm>
0

>  <SCORE.SYSTEM>
0

>  <SCORE.SYSTEM.CONST>
0

>  <SCORE.SYSTEM.DIHEDRAL>
0

>  <SCORE.SYSTEM.SOLV>
0

>  <SCORE.SYSTEM.norm>
0

>  <SCORE.heavy>
34

>  <SCORE.norm>
-0.344626

>  <RMSD>
3.411

$$$$
ligand
 OpenBabel11021811483D
libRbt.so/2013.1/901 2013/11/27
 34 36  0  0  0  0  0  0  0  0999 V2000
    5.7849   41.1444   75.3512 N   0  0  0  0  0  0  0  0  0  0  0  0
    5.1291   41.1233   76.6795 C   0  0  1  0  0  0  0  0  0  0  0  0
    5.8285   40.0925   74.5232 C   0  0  0  0  0  0  0  0  0  0  0  0
    5.3312   38.9908   74.7723 O   0  0  0  0  0  0  0  0  0  0  0  0
    6.6280   46.1307   70.7612 N   0  0  0  0  0  0  0  0  0  0  0  0
    5.6321   42.3042   77.5267 C   0  0  0  0  0  0  0  0  0  0  0  0
    7.1296   42.1789   77.8380 C   0  0  0  0  0  0  0  0  0  0  0  0
    7.6180   43.3509   78.7029 C   0  0  0  0  0  0  0  0  0  0  0  0
    7.5015   44.5032   78.2235 O   0  0  0  0  0  0  0  0  0  0  0  0
    8.0950   43.0688   79.8261 O   0  0  0  0  0  0  0  0  0  0  0  0
    7.7049   44.6778   69.3163 N   0  0  0  0  0  0  0  0  0  0  0  0
    3.0820   42.2169   76.0785 O   0  0  0  0  0  0  0  0  0  0  0  0
    7.6249   45.2851   70.5130 C   0  0  0  0  0  0  0  0  0  0  0  0
    2.9592   40.1753   76.9760 O   0  0  0  0  0  0  0  0  0  0  0  0
    8.5813   45.0378   71.5059 N   0  0  0  0  0  0  0  0  0  0  0  0
    9.6142   44.1498   71.2374 C   0  0  0  0  0  0  0  0  0  0  0  0
    9.6494   43.5151   70.0028 C   0  0  0  0  0  0  0  0  0  0  0  0
   10.4593   43.9089   72.0958 O   0  0  0  0  0  0  0  0  0  0  0  0
   11.9147   42.9232   70.1467 C   0  0  0  0  0  0  0  0  0  0  0  0
   10.7015   42.6712   69.6645 N   0  0  0  0  0  0  0  0  0  0  0  0
   12.5380   43.9164   69.7788 O   0  0  0  0  0  0  0  0  0  0  0  0
   10.5052   41.6460   68.6337 C   0  0  2  0  0  0  0  0  0  0  0  0
    9.8696   42.3005   67.4044 C   0  0  0  0  0  0  0  0  0  0  0  0
    8.6961   43.8169   69.0398 C   0  0  0  0  0  0  0  0  0  0  0  0
    8.7590   43.2095   67.7809 N   0  0  0  0  0  0  0  0  0  0  0  0
    9.6056   40.5220   69.1592 C   0  0  0  0  0  0  0  0  0  0  0  0
    8.2857   41.0651   69.5028 N   0  0  0  0  0  0  0  0  0  0  0  0
    6.5190   40.3660   73.1748 C   0  0  0  0  0  0  0  0  0  0  0  0
    7.1190   39.3294   72.4638 C   0  0  0  0  0  0  0  0  0  0  0  0
    7.6947   39.5683   71.2175 C   0  0  0  0  0  0  0  0  0  0  0  0
    7.7166   40.8547   70.6892 C   0  0  0  0  0  0  0  0  0  0  0  0
    7.1258   41.8926   71.4019 C   0  0  0  0  0  0  0  0  0  0  0  0
    6.5181   41.6481   72.6326 C   0  0  0  0  0  0  0  0  0  0  0  0
    3.5917   41.1790   76.5659 C   0  0  0  0  0  0  0  0  0  0  0  0
  1  3  1  0  0  0  0
  2  1  1  6  0  0  0
  2  6  1  0  0  0  0
  2 34  1  0  0  0  0
  3  4  2  0  0  0  0
  3 28  1  0  0  0  0
  5 13  1  0  0  0  0
  6  7  1  0  0  0  0
  7  8  1  0  0  0  0
  8  9  1  0  0  0  0
  8 10  1  0  0  0  0
 11 13  2  0  0  0  0
 11 24  1  0  0  0  0
 12 34  1  0  0  0  0
 13 15  1  0  0  0  0
 14 34  1  0  0  0  0
 15 16  1  0  0  0  0
 16 17  1  0  0  0  0
 16 18  2  0  0  0  0
 17 20  1  0  0  0  0
 17 24  2  0  0  0  0
 19 21  1  0  0  0  0
 19 20  1  0  0  0  0
 20 22  1  0  0  0  0
 22 23  1  0  0  0  0
 22 26  1  1  0  0  0
 23 25  1  0  0  0  0
 24 25  1  0  0  0  0
 26 27  1  0  0  0  0
 27 31  1  0  0  0  0
 28 29  2  0  0  0  0
 28 33  1  0  0  0  0
 29 30  1  0  0  0  0
 30 31  2  0  0  0  0
 31 32  1  0  0  0  0
 32 33  2  0  0  0  0
M  END
>  <CHROM.1>
162.32477438,-64.73885621,-64.49722396,-179.10086661,-60.48238162,-68.07624423
61.52138401,-128.16913903,-47.11261404,153.77584077,7.69476044,42.34479272
72.77548479,2.30179790,0.78477136,1.16945436

>  <Name>
ligand

>  <RI>
0

>  <Rbt.Current_Directory>
/home/itssahil/PROJECTS/Mol_Feturizer/New_Systems/rnas/3SUH

>  <Rbt.Executable>
rbdock ($Id: //depot/dev/client3/rdock/2013.1/src/exe/rbdock.cxx#4 $)

>  <Rbt.Library>
libRbt.so (2013.1, Build901 2013/11/27)

>  <Rbt.Parameter_File>
/export/apps/rDock/src/rDock_2013.1_src/data/scripts/dock_solv.prm

>  <Rbt.Receptor>
prm/pocket_docking_4.prm

>  <SCORE>
-9.02635

>  <SCORE.INTER>
-5.11662

>  <SCORE.INTER.CONST>
1

>  <SCORE.INTER.POLAR>
0

>  <SCORE.INTER.ROT>
10

>  <SCORE.INTER.SOLV>
15.7472

>  <SCORE.INTER.VDW>
-18.9268

>  <SCORE.INTER.norm>
-0.150489

>  <SCORE.INTRA>
-3.91348

>  <SCORE.INTRA.DIHEDRAL>
-4.62565

>  <SCORE.INTRA.DIHEDRAL.0>
12.2703

>  <SCORE.INTRA.POLAR>
0

>  <SCORE.INTRA.POLAR.0>
0

>  <SCORE.INTRA.REPUL>
0

>  <SCORE.INTRA.REPUL.0>
0

>  <SCORE.INTRA.SOLV>
1.88418

>  <SCORE.INTRA.SOLV.lig_0>
-64.3214

>  <SCORE.INTRA.VDW>
-2.54275

>  <SCORE.INTRA.VDW.0>
-1.67301

>  <SCORE.INTRA.norm>
-0.115102

>  <SCORE.RESTR>
0.00374818

>  <SCORE.RESTR.CAVITY>
0.00374818

>  <SCORE.RESTR.norm>
0.000110241

>  <SCORE.SYSTEM>
0

>  <SCORE.SYSTEM.CONST>
0

>  <SCORE.SYSTEM.DIHEDRAL>
0

>  <SCORE.SYSTEM.SOLV>
0

>  <SCORE.SYSTEM.norm>
0

>  <SCORE.heavy>
34

>  <SCORE.norm>
-0.265481

>  <RMSD>
3.413

$$$$
ligand
 OpenBabel11021811483D
libRbt.so/2013.1/901 2013/11/27
 34 36  0  0  0  0  0  0  0  0999 V2000
    6.1680   42.3402   74.5634 N   0  0  0  0  0  0  0  0  0  0  0  0
    5.7691   42.4632   75.9848 C   0  0  1  0  0  0  0  0  0  0  0  0
    5.9368   43.2813   73.6388 C   0  0  0  0  0  0  0  0  0  0  0  0
    5.3662   44.3521   73.8645 O   0  0  0  0  0  0  0  0  0  0  0  0
    9.7031   46.6770   71.0577 N   0  0  0  0  0  0  0  0  0  0  0  0
    6.2127   41.2110   76.7598 C   0  0  0  0  0  0  0  0  0  0  0  0
    5.5429   39.9424   76.2145 C   0  0  0  0  0  0  0  0  0  0  0  0
    6.0142   38.6936   76.9751 C   0  0  0  0  0  0  0  0  0  0  0  0
    7.1194   38.2046   76.6429 O   0  0  0  0  0  0  0  0  0  0  0  0
    5.2597   38.2568   77.8744 O   0  0  0  0  0  0  0  0  0  0  0  0
   10.0005   45.0947   69.3946 N   0  0  0  0  0  0  0  0  0  0  0  0
    5.6779   44.2982   77.5250 O   0  0  0  0  0  0  0  0  0  0  0  0
    9.9516   45.4203   70.6980 C   0  0  0  0  0  0  0  0  0  0  0  0
    7.4976   44.0877   76.2470 O   0  0  0  0  0  0  0  0  0  0  0  0
   10.1594   44.4496   71.6860 N   0  0  0  0  0  0  0  0  0  0  0  0
   10.4130   43.1407   71.2989 C   0  0  0  0  0  0  0  0  0  0  0  0
   10.4248   42.8316   69.9452 C   0  0  0  0  0  0  0  0  0  0  0  0
   10.5884   42.2695   72.1472 O   0  0  0  0  0  0  0  0  0  0  0  0
   11.6080   40.8234   70.2087 C   0  0  0  0  0  0  0  0  0  0  0  0
   10.7419   41.5500   69.5089 N   0  0  0  0  0  0  0  0  0  0  0  0
   12.8162   40.9339   70.0127 O   0  0  0  0  0  0  0  0  0  0  0  0
   10.2787   41.0976   68.1925 C   0  0  2  0  0  0  0  0  0  0  0  0
   10.6299   42.1660   67.1541 C   0  0  0  0  0  0  0  0  0  0  0  0
   10.2442   43.8349   69.0027 C   0  0  0  0  0  0  0  0  0  0  0  0
   10.3006   43.5293   67.6384 N   0  0  0  0  0  0  0  0  0  0  0  0
    8.7657   40.8543   68.2104 C   0  0  0  0  0  0  0  0  0  0  0  0
    8.0668   42.1095   68.5126 N   0  0  0  0  0  0  0  0  0  0  0  0
    6.4884   42.9546   72.2392 C   0  0  0  0  0  0  0  0  0  0  0  0
    6.6697   43.9638   71.2966 C   0  0  0  0  0  0  0  0  0  0  0  0
    7.2211   43.6752   70.0499 C   0  0  0  0  0  0  0  0  0  0  0  0
    7.5551   42.3671   69.7158 C   0  0  0  0  0  0  0  0  0  0  0  0
    7.3664   41.3567   70.6526 C   0  0  0  0  0  0  0  0  0  0  0  0
    6.8480   41.6500   71.9131 C   0  0  0  0  0  0  0  0  0  0  0  0
    6.3639   43.7243   76.6449 C   0  0  0  0  0  0  0  0  0  0  0  0
  1  3  1  0  0  0  0
  2  1  1  6  0  0  0
  2  6  1  0  0  0  0
  2 34  1  0  0  0  0
  3  4  2  0  0  0  0
  3 28  1  0  0  0  0
  5 13  1  0  0  0  0
  6  7  1  0  0  0  0
  7  8  1  0  0  0  0
  8  9  1  0  0  0  0
  8 10  1  0  0  0  0
 11 13  2  0  0  0  0
 11 24  1  0  0  0  0
 12 34  1  0  0  0  0
 13 15  1  0  0  0  0
 14 34  1  0  0  0  0
 15 16  1  0  0  0  0
 16 17  1  0  0  0  0
 16 18  2  0  0  0  0
 17 20  1  0  0  0  0
 17 24  2  0  0  0  0
 19 21  1  0  0  0  0
 19 20  1  0  0  0  0
 20 22  1  0  0  0  0
 22 23  1  0  0  0  0
 22 26  1  1  0  0  0
 23 25  1  0  0  0  0
 24 25  1  0  0  0  0
 26 27  1  0  0  0  0
 27 31  1  0  0  0  0
 28 29  2  0  0  0  0
 28 33  1  0  0  0  0
 29 30  1  0  0  0  0
 30 31  2  0  0  0  0
 31 32  1  0  0  0  0
 32 33  2  0  0  0  0
M  END
>  <CHROM.1>
-179.05728697,-61.57580132,146.42144293,178.80890737,-80.74119228,-85.74404208
61.85956574,-103.00621152,163.36996268,-161.40701616,8.23898438,42.41955498
72.26118965,2.75070869,-1.01012525,2.89503469

>  <Name>
ligand

>  <RI>
0

>  <Rbt.Current_Directory>
/home/itssahil/PROJECTS/Mol_Feturizer/New_Systems/rnas/3SUH

>  <Rbt.Executable>
rbdock ($Id: //depot/dev/client3/rdock/2013.1/src/exe/rbdock.cxx#4 $)

>  <Rbt.Library>
libRbt.so (2013.1, Build901 2013/11/27)

>  <Rbt.Parameter_File>
/export/apps/rDock/src/rDock_2013.1_src/data/scripts/dock_solv.prm

>  <Rbt.Receptor>
prm/pocket_docking_6.prm

>  <SCORE>
-12.8

>  <SCORE.INTER>
-7.8552

>  <SCORE.INTER.CONST>
1

>  <SCORE.INTER.POLAR>
0

>  <SCORE.INTER.ROT>
10

>  <SCORE.INTER.SOLV>
14.608

>  <SCORE.INTER.VDW>
-20.3728

>  <SCORE.INTER.norm>
-0.231035

>  <SCORE.INTRA>
-4.9448

>  <SCORE.INTRA.DIHEDRAL>
-5.06731

>  <SCORE.INTRA.DIHEDRAL.0>
12.2703

>  <SCORE.INTRA.POLAR>
0

>  <SCORE.INTRA.POLAR.0>
0

>  <SCORE.INTRA.REPUL>
0

>  <SCORE.INTRA.REPUL.0>
0

>  <SCORE.INTRA.SOLV>
2.23759

>  <SCORE.INTRA.SOLV.lig_0>
-64.3214

>  <SCORE.INTRA.VDW>
-3.52994

>  <SCORE.INTRA.VDW.0>
-1.67301

>  <SCORE.INTRA.norm>
-0.145435

>  <SCORE.RESTR>
0

>  <SCORE.RESTR.CAVITY>
0

>  <SCORE.RESTR.norm>
0

>  <SCORE.SYSTEM>
0

>  <SCORE.SYSTEM.CONST>
0

>  <SCORE.SYSTEM.DIHEDRAL>
0

>  <SCORE.SYSTEM.SOLV>
0

>  <SCORE.SYSTEM.norm>
0

>  <SCORE.heavy>
34

>  <SCORE.norm>
-0.376471

>  <RMSD>
3.442

$$$$
ligand
 OpenBabel11021811483D
libRbt.so/2013.1/901 2013/11/27
 34 36  0  0  0  0  0  0  0  0999 V2000
    5.8896   42.3887   75.5127 N   0  0  0  0  0  0  0  0  0  0  0  0
    5.4257   42.0373   76.8751 C   0  0  1  0  0  0  0  0  0  0  0  0
    5.9750   41.5120   74.5037 C   0  0  0  0  0  0  0  0  0  0  0  0
    5.6800   40.3171   74.5943 O   0  0  0  0  0  0  0  0  0  0  0  0
   13.3501   40.3790   72.4483 N   0  0  0  0  0  0  0  0  0  0  0  0
    5.8380   43.1394   77.8654 C   0  0  0  0  0  0  0  0  0  0  0  0
    7.3642   43.2537   77.9801 C   0  0  0  0  0  0  0  0  0  0  0  0
    7.9869   41.9316   78.4541 C   0  0  0  0  0  0  0  0  0  0  0  0
    7.8461   41.6340   79.6635 O   0  0  0  0  0  0  0  0  0  0  0  0
    8.5882   41.2461   77.5954 O   0  0  0  0  0  0  0  0  0  0  0  0
   12.6038   41.6435   70.6587 N   0  0  0  0  0  0  0  0  0  0  0  0
    3.4439   41.0894   77.8352 O   0  0  0  0  0  0  0  0  0  0  0  0
   12.3966   40.6761   71.5690 C   0  0  0  0  0  0  0  0  0  0  0  0
    3.2172   42.4203   76.0558 O   0  0  0  0  0  0  0  0  0  0  0  0
   11.1850   39.9744   71.6039 N   0  0  0  0  0  0  0  0  0  0  0  0
   10.1956   40.2964   70.6846 C   0  0  0  0  0  0  0  0  0  0  0  0
   10.4296   41.3224   69.7786 C   0  0  0  0  0  0  0  0  0  0  0  0
    9.1206   39.7020   70.7019 O   0  0  0  0  0  0  0  0  0  0  0  0
    8.7421   40.6628   68.2889 C   0  0  0  0  0  0  0  0  0  0  0  0
    9.4959   41.6334   68.7964 N   0  0  0  0  0  0  0  0  0  0  0  0
    7.5874   40.8904   67.9351 O   0  0  0  0  0  0  0  0  0  0  0  0
    9.4937   42.9723   68.1968 C   0  0  2  0  0  0  0  0  0  0  0  0
   10.9215   43.3218   67.7697 C   0  0  0  0  0  0  0  0  0  0  0  0
   11.6588   41.9676   69.7631 C   0  0  0  0  0  0  0  0  0  0  0  0
   11.9087   42.9710   68.8204 N   0  0  0  0  0  0  0  0  0  0  0  0
    8.9726   44.0082   69.1989 C   0  0  0  0  0  0  0  0  0  0  0  0
    7.5713   43.7178   69.5262 N   0  0  0  0  0  0  0  0  0  0  0  0
    6.4338   42.1178   73.1649 C   0  0  0  0  0  0  0  0  0  0  0  0
    6.9201   41.3001   72.1477 C   0  0  0  0  0  0  0  0  0  0  0  0
    7.2826   41.8435   70.9168 C   0  0  0  0  0  0  0  0  0  0  0  0
    7.2053   43.2159   70.7052 C   0  0  0  0  0  0  0  0  0  0  0  0
    6.7282   44.0351   71.7229 C   0  0  0  0  0  0  0  0  0  0  0  0
    6.3317   43.4882   72.9425 C   0  0  0  0  0  0  0  0  0  0  0  0
    3.8980   41.8303   76.9299 C   0  0  0  0  0  0  0  0  0  0  0  0
  1  3  1  0  0  0  0
  2  1  1  6  0  0  0
  2  6  1  0  0  0  0
  2 34  1  0  0  0  0
  3  4  2  0  0  0  0
  3 28  1  0  0  0  0
  5 13  1  0  0  0  0
  6  7  1  0  0  0  0
  7  8  1  0  0  0  0
  8  9  1  0  0  0  0
  8 10  1  0  0  0  0
 11 13  2  0  0  0  0
 11 24  1  0  0  0  0
 12 34  1  0  0  0  0
 13 15  1  0  0  0  0
 14 34  1  0  0  0  0
 15 16  1  0  0  0  0
 16 17  1  0  0  0  0
 16 18  2  0  0  0  0
 17 20  1  0  0  0  0
 17 24  2  0  0  0  0
 19 21  1  0  0  0  0
 19 20  1  0  0  0  0
 20 22  1  0  0  0  0
 22 23  1  0  0  0  0
 22 26  1  1  0  0  0
 23 25  1  0  0  0  0
 24 25  1  0  0  0  0
 26 27  1  0  0  0  0
 27 31  1  0  0  0  0
 28 29  2  0  0  0  0
 28 33  1  0  0  0  0
 29 30  1  0  0  0  0
 30 31  2  0  0  0  0
 31 32  1  0  0  0  0
 32 33  2  0  0  0  0
M  END
>  <CHROM.1>
163.34174518,-63.91534332,154.75774102,-59.28535770,-74.43843134,146.64579452
-63.89575641,107.35961257,-83.28321060,162.09068310,8.13176945,41.87842915
72.75716616,2.10756228,-0.21218471,1.67930756

>  <Name>
ligand

>  <RI>
0

>  <Rbt.Current_Directory>
/home/itssahil/PROJECTS/Mol_Feturizer/New_Systems/rnas/3SUH

>  <Rbt.Executable>
rbdock ($Id: //depot/dev/client3/rdock/2013.1/src/exe/rbdock.cxx#4 $)

>  <Rbt.Library>
libRbt.so (2013.1, Build901 2013/11/27)

>  <Rbt.Parameter_File>
/export/apps/rDock/src/rDock_2013.1_src/data/scripts/dock_solv.prm

>  <Rbt.Receptor>
prm/pocket_docking_6.prm

>  <SCORE>
-12.7213

>  <SCORE.INTER>
-7.39157

>  <SCORE.INTER.CONST>
1

>  <SCORE.INTER.POLAR>
0

>  <SCORE.INTER.ROT>
10

>  <SCORE.INTER.SOLV>
16.6885

>  <SCORE.INTER.VDW>
-20.7572

>  <SCORE.INTER.norm>
-0.217399

>  <SCORE.INTRA>
-5.32971

>  <SCORE.INTRA.DIHEDRAL>
-4.76693

>  <SCORE.INTRA.DIHEDRAL.0>
12.2703

>  <SCORE.INTRA.POLAR>
0

>  <SCORE.INTRA.POLAR.0>
0

>  <SCORE.INTRA.REPUL>
0

>  <SCORE.INTRA.REPUL.0>
0

>  <SCORE.INTRA.SOLV>
0.686446

>  <SCORE.INTRA.SOLV.lig_0>
-64.3214

>  <SCORE.INTRA.VDW>
-3.28947

>  <SCORE.INTRA.VDW.0>
-1.67301

>  <SCORE.INTRA.norm>
-0.156756

>  <SCORE.RESTR>
0

>  <SCORE.RESTR.CAVITY>
0

>  <SCORE.RESTR.norm>
0

>  <SCORE.SYSTEM>
0

>  <SCORE.SYSTEM.CONST>
0

>  <SCORE.SYSTEM.DIHEDRAL>
0

>  <SCORE.SYSTEM.SOLV>
0

>  <SCORE.SYSTEM.norm>
0

>  <SCORE.heavy>
34

>  <SCORE.norm>
-0.374155

>  <RMSD>
3.449

$$$$
ligand
 OpenBabel11021811483D
libRbt.so/2013.1/901 2013/11/27
 34 36  0  0  0  0  0  0  0  0999 V2000
    7.6795   41.2454   75.5427 N   0  0  0  0  0  0  0  0  0  0  0  0
    7.4549   40.4621   76.7800 C   0  0  1  0  0  0  0  0  0  0  0  0
    7.0486   41.0099   74.3849 C   0  0  0  0  0  0  0  0  0  0  0  0
    6.2136   40.1166   74.2176 O   0  0  0  0  0  0  0  0  0  0  0  0
   12.7295   38.9345   71.3978 N   0  0  0  0  0  0  0  0  0  0  0  0
    8.3948   40.9618   77.8899 C   0  0  0  0  0  0  0  0  0  0  0  0
    8.4843   39.9592   79.0484 C   0  0  0  0  0  0  0  0  0  0  0  0
    7.1653   39.8972   79.8335 C   0  0  0  0  0  0  0  0  0  0  0  0
    6.5956   38.7832   79.9079 O   0  0  0  0  0  0  0  0  0  0  0  0
    6.7567   40.9653   80.3445 O   0  0  0  0  0  0  0  0  0  0  0  0
   12.2157   40.6029   69.8778 N   0  0  0  0  0  0  0  0  0  0  0  0
    5.4920   41.6866   77.4087 O   0  0  0  0  0  0  0  0  0  0  0  0
   11.8234   39.6937   70.7870 C   0  0  0  0  0  0  0  0  0  0  0  0
    5.4031   39.4556   77.4673 O   0  0  0  0  0  0  0  0  0  0  0  0
   10.4677   39.5349   71.1009 N   0  0  0  0  0  0  0  0  0  0  0  0
    9.5317   40.3361   70.4608 C   0  0  0  0  0  0  0  0  0  0  0  0
    9.9732   41.2874   69.5506 C   0  0  0  0  0  0  0  0  0  0  0  0
    8.3378   40.2225   70.7267 O   0  0  0  0  0  0  0  0  0  0  0  0
    7.8895   41.5458   68.5048 C   0  0  0  0  0  0  0  0  0  0  0  0
    9.0684   42.0641   68.8355 N   0  0  0  0  0  0  0  0  0  0  0  0
    7.8247   40.4674   67.9190 O   0  0  0  0  0  0  0  0  0  0  0  0
    9.4968   43.3560   68.2880 C   0  0  2  0  0  0  0  0  0  0  0  0
   10.8131   43.1572   67.5323 C   0  0  0  0  0  0  0  0  0  0  0  0
   11.3250   41.3854   69.2498 C   0  0  0  0  0  0  0  0  0  0  0  0
   11.7630   42.3144   68.2996 N   0  0  0  0  0  0  0  0  0  0  0  0
    9.6818   44.3807   69.4124 C   0  0  0  0  0  0  0  0  0  0  0  0
    8.4246   44.5318   70.1552 N   0  0  0  0  0  0  0  0  0  0  0  0
    7.4059   41.9863   73.2497 C   0  0  0  0  0  0  0  0  0  0  0  0
    8.6230   42.6634   73.2553 C   0  0  0  0  0  0  0  0  0  0  0  0
    8.9686   43.5041   72.1992 C   0  0  0  0  0  0  0  0  0  0  0  0
    8.0817   43.7119   71.1482 C   0  0  0  0  0  0  0  0  0  0  0  0
    6.8621   43.0435   71.1453 C   0  0  0  0  0  0  0  0  0  0  0  0
    6.5304   42.1745   72.1839 C   0  0  0  0  0  0  0  0  0  0  0  0
    5.9906   40.5450   77.2586 C   0  0  0  0  0  0  0  0  0  0  0  0
  1  3  1  0  0  0  0
  2  1  1  6  0  0  0
  2  6  1  0  0  0  0
  2 34  1  0  0  0  0
  3  4  2  0  0  0  0
  3 28  1  0  0  0  0
  5 13  1  0  0  0  0
  6  7  1  0  0  0  0
  7  8  1  0  0  0  0
  8  9  1  0  0  0  0
  8 10  1  0  0  0  0
 11 13  2  0  0  0  0
 11 24  1  0  0  0  0
 12 34  1  0  0  0  0
 13 15  1  0  0  0  0
 14 34  1  0  0  0  0
 15 16  1  0  0  0  0
 16 17  1  0  0  0  0
 16 18  2  0  0  0  0
 17 20  1  0  0  0  0
 17 24  2  0  0  0  0
 19 21  1  0  0  0  0
 19 20  1  0  0  0  0
 20 22  1  0  0  0  0
 22 23  1  0  0  0  0
 22 26  1  1  0  0  0
 23 25  1  0  0  0  0
 24 25  1  0  0  0  0
 26 27  1  0  0  0  0
 27 31  1  0  0  0  0
 28 29  2  0  0  0  0
 28 33  1  0  0  0  0
 29 30  1  0  0  0  0
 30 31  2  0  0  0  0
 31 32  1  0  0  0  0
 32 33  2  0  0  0  0
M  END
>  <CHROM.1>
177.20004434,-164.33173412,-53.01573399,-69.58381758,121.52632003,-52.52265719
-58.09612952,84.55948123,53.19353438,24.52660866,8.49571410,41.30102577,72.89262040
1.97050683,-0.59281142,1.98092476

>  <Name>
ligand

>  <RI>
0

>  <Rbt.Current_Directory>
/home/itssahil/PROJECTS/Mol_Feturizer/New_Systems/rnas/3SUH

>  <Rbt.Executable>
rbdock ($Id: //depot/dev/client3/rdock/2013.1/src/exe/rbdock.cxx#4 $)

>  <Rbt.Library>
libRbt.so (2013.1, Build901 2013/11/27)

>  <Rbt.Parameter_File>
/export/apps/rDock/src/rDock_2013.1_src/data/scripts/dock_solv.prm

>  <Rbt.Receptor>
prm/pocket_docking_4.prm

>  <SCORE>
-9.10237

>  <SCORE.INTER>
-2.79878

>  <SCORE.INTER.CONST>
1

>  <SCORE.INTER.POLAR>
0

>  <SCORE.INTER.ROT>
10

>  <SCORE.INTER.SOLV>
12.2787

>  <SCORE.INTER.VDW>
-16.2254

>  <SCORE.INTER.norm>
-0.082317

>  <SCORE.INTRA>
-6.30359

>  <SCORE.INTRA.DIHEDRAL>
-4.16023

>  <SCORE.INTRA.DIHEDRAL.0>
12.2703

>  <SCORE.INTRA.POLAR>
0

>  <SCORE.INTRA.POLAR.0>
0

>  <SCORE.INTRA.REPUL>
0

>  <SCORE.INTRA.REPUL.0>
0

>  <SCORE.INTRA.SOLV>
0.296993

>  <SCORE.INTRA.SOLV.lig_0>
-64.3214

>  <SCORE.INTRA.VDW>
-4.37197

>  <SCORE.INTRA.VDW.0>
-1.67301

>  <SCORE.INTRA.norm>
-0.1854

>  <SCORE.RESTR>
0

>  <SCORE.RESTR.CAVITY>
0

>  <SCORE.RESTR.norm>
0

>  <SCORE.SYSTEM>
0

>  <SCORE.SYSTEM.CONST>
0

>  <SCORE.SYSTEM.DIHEDRAL>
0

>  <SCORE.SYSTEM.SOLV>
0

>  <SCORE.SYSTEM.norm>
0

>  <SCORE.heavy>
34

>  <SCORE.norm>
-0.267717

>  <RMSD>
3.474

$$$$
ligand
 OpenBabel11021811483D
libRbt.so/2013.1/901 2013/11/27
 34 36  0  0  0  0  0  0  0  0999 V2000
    6.0605   41.3604   74.1356 N   0  0  0  0  0  0  0  0  0  0  0  0
    5.5676   41.3263   75.5322 C   0  0  1  0  0  0  0  0  0  0  0  0
    6.1751   42.4812   73.4113 C   0  0  0  0  0  0  0  0  0  0  0  0
    5.8828   43.6075   73.8227 O   0  0  0  0  0  0  0  0  0  0  0  0
   12.9472   46.4433   71.2597 N   0  0  0  0  0  0  0  0  0  0  0  0
    5.4527   39.8683   76.0078 C   0  0  0  0  0  0  0  0  0  0  0  0
    4.7792   39.7742   77.3837 C   0  0  0  0  0  0  0  0  0  0  0  0
    4.5488   38.3110   77.7914 C   0  0  0  0  0  0  0  0  0  0  0  0
    3.5614   37.7256   77.2880 O   0  0  0  0  0  0  0  0  0  0  0  0
    5.3670   37.8091   78.5959 O   0  0  0  0  0  0  0  0  0  0  0  0
   12.4108   45.2762   69.3340 N   0  0  0  0  0  0  0  0  0  0  0  0
    5.9360   42.8591   77.3385 O   0  0  0  0  0  0  0  0  0  0  0  0
   12.4970   45.3365   70.6743 C   0  0  0  0  0  0  0  0  0  0  0  0
    7.7213   41.9610   76.3409 O   0  0  0  0  0  0  0  0  0  0  0  0
   12.1172   44.2449   71.4653 N   0  0  0  0  0  0  0  0  0  0  0  0
   11.6442   43.0971   70.8436 C   0  0  0  0  0  0  0  0  0  0  0  0
   11.5375   43.0793   69.4592 C   0  0  0  0  0  0  0  0  0  0  0  0
   11.2954   42.1303   71.5165 O   0  0  0  0  0  0  0  0  0  0  0  0
   11.4513   40.7410   69.2952 C   0  0  0  0  0  0  0  0  0  0  0  0
   11.1346   41.9292   68.7897 N   0  0  0  0  0  0  0  0  0  0  0  0
   12.6277   40.4300   69.4673 O   0  0  0  0  0  0  0  0  0  0  0  0
   10.5488   42.0390   67.4492 C   0  0  2  0  0  0  0  0  0  0  0  0
   11.4545   42.9230   66.5880 C   0  0  0  0  0  0  0  0  0  0  0  0
   11.9561   44.1752   68.7167 C   0  0  0  0  0  0  0  0  0  0  0  0
   11.8892   44.1384   67.3196 N   0  0  0  0  0  0  0  0  0  0  0  0
    9.1412   42.6401   67.5261 C   0  0  0  0  0  0  0  0  0  0  0  0
    8.2341   41.6916   68.1839 N   0  0  0  0  0  0  0  0  0  0  0  0
    6.7595   42.2771   72.0018 C   0  0  0  0  0  0  0  0  0  0  0  0
    7.1880   41.0179   71.5888 C   0  0  0  0  0  0  0  0  0  0  0  0
    7.6650   40.8235   70.2941 C   0  0  0  0  0  0  0  0  0  0  0  0
    7.7608   41.8953   69.4129 C   0  0  0  0  0  0  0  0  0  0  0  0
    7.3416   43.1552   69.8266 C   0  0  0  0  0  0  0  0  0  0  0  0
    6.8310   43.3436   71.1101 C   0  0  0  0  0  0  0  0  0  0  0  0
    6.4845   42.1171   76.4881 C   0  0  0  0  0  0  0  0  0  0  0  0
  1  3  1  0  0  0  0
  2  1  1  6  0  0  0
  2  6  1  0  0  0  0
  2 34  1  0  0  0  0
  3  4  2  0  0  0  0
  3 28  1  0  0  0  0
  5 13  1  0  0  0  0
  6  7  1  0  0  0  0
  7  8  1  0  0  0  0
  8  9  1  0  0  0  0
  8 10  1  0  0  0  0
 11 13  2  0  0  0  0
 11 24  1  0  0  0  0
 12 34  1  0  0  0  0
 13 15  1  0  0  0  0
 14 34  1  0  0  0  0
 15 16  1  0  0  0  0
 16 17  1  0  0  0  0
 16 18  2  0  0  0  0
 17 20  1  0  0  0  0
 17 24  2  0  0  0  0
 19 21  1  0  0  0  0
 19 20  1  0  0  0  0
 20 22  1  0  0  0  0
 22 23  1  0  0  0  0
 22 26  1  1  0  0  0
 23 25  1  0  0  0  0
 24 25  1  0  0  0  0
 26 27  1  0  0  0  0
 27 31  1  0  0  0  0
 28 29  2  0  0  0  0
 28 33  1  0  0  0  0
 29 30  1  0  0  0  0
 30 31  2  0  0  0  0
 31 32  1  0  0  0  0
 32 33  2  0  0  0  0
M  END
>  <CHROM.1>
175.10744374,-172.79058272,136.61209750,174.64372108,-79.50693902,-59.43372842
-68.09961174,108.50727503,-139.74804476,-3.32748514,8.63090474,42.06893573
72.05599781,2.50150756,0.74683236,1.22317947

>  <Name>
ligand

>  <RI>
0

>  <Rbt.Current_Directory>
/home/itssahil/PROJECTS/Mol_Feturizer/New_Systems/rnas/3SUH

>  <Rbt.Executable>
rbdock ($Id: //depot/dev/client3/rdock/2013.1/src/exe/rbdock.cxx#4 $)

>  <Rbt.Library>
libRbt.so (2013.1, Build901 2013/11/27)

>  <Rbt.Parameter_File>
/export/apps/rDock/src/rDock_2013.1_src/data/scripts/dock_solv.prm

>  <Rbt.Receptor>
prm/pocket_docking_5.prm

>  <SCORE>
-17.6762

>  <SCORE.INTER>
-13.0739

>  <SCORE.INTER.CONST>
1

>  <SCORE.INTER.POLAR>
0

>  <SCORE.INTER.ROT>
10

>  <SCORE.INTER.SOLV>
19.7824

>  <SCORE.INTER.VDW>
-25.5767

>  <SCORE.INTER.norm>
-0.384525

>  <SCORE.INTRA>
-4.6023

>  <SCORE.INTRA.DIHEDRAL>
-4.24406

>  <SCORE.INTRA.DIHEDRAL.0>
12.2703

>  <SCORE.INTRA.POLAR>
0

>  <SCORE.INTRA.POLAR.0>
0

>  <SCORE.INTRA.REPUL>
0

>  <SCORE.INTRA.REPUL.0>
0

>  <SCORE.INTRA.SOLV>
-0.652173

>  <SCORE.INTRA.SOLV.lig_0>
-64.3214

>  <SCORE.INTRA.VDW>
-2.15418

>  <SCORE.INTRA.VDW.0>
-1.67301

>  <SCORE.INTRA.norm>
-0.135362

>  <SCORE.RESTR>
0

>  <SCORE.RESTR.CAVITY>
0

>  <SCORE.RESTR.norm>
0

>  <SCORE.SYSTEM>
0

>  <SCORE.SYSTEM.CONST>
0

>  <SCORE.SYSTEM.DIHEDRAL>
0

>  <SCORE.SYSTEM.SOLV>
0

>  <SCORE.SYSTEM.norm>
0

>  <SCORE.heavy>
34

>  <SCORE.norm>
-0.519887

>  <RMSD>
3.480

$$$$
ligand
 OpenBabel11021811483D
libRbt.so/2013.1/901 2013/11/27
 34 36  0  0  0  0  0  0  0  0999 V2000
    5.8767   41.4596   75.6284 N   0  0  0  0  0  0  0  0  0  0  0  0
    5.4653   40.8736   76.9254 C   0  0  1  0  0  0  0  0  0  0  0  0
    5.9465   40.7663   74.4845 C   0  0  0  0  0  0  0  0  0  0  0  0
    5.6789   39.5659   74.3818 O   0  0  0  0  0  0  0  0  0  0  0  0
   13.0768   39.4714   71.8782 N   0  0  0  0  0  0  0  0  0  0  0  0
    6.6904   40.7322   77.8443 C   0  0  0  0  0  0  0  0  0  0  0  0
    7.7320   39.7724   77.2534 C   0  0  0  0  0  0  0  0  0  0  0  0
    8.8816   39.5223   78.2413 C   0  0  0  0  0  0  0  0  0  0  0  0
    9.6962   40.4580   78.4200 O   0  0  0  0  0  0  0  0  0  0  0  0
    8.9190   38.4012   78.7985 O   0  0  0  0  0  0  0  0  0  0  0  0
   12.3588   41.0785   70.3749 N   0  0  0  0  0  0  0  0  0  0  0  0
    3.5469   41.1195   78.3423 O   0  0  0  0  0  0  0  0  0  0  0  0
   12.1049   40.0039   71.1418 C   0  0  0  0  0  0  0  0  0  0  0  0
    4.4155   42.9590   77.4200 O   0  0  0  0  0  0  0  0  0  0  0  0
   10.8252   39.4358   71.1758 N   0  0  0  0  0  0  0  0  0  0  0  0
    9.8177   40.0029   70.4071 C   0  0  0  0  0  0  0  0  0  0  0  0
   10.1054   41.1316   69.6510 C   0  0  0  0  0  0  0  0  0  0  0  0
    8.6847   39.5287   70.4281 O   0  0  0  0  0  0  0  0  0  0  0  0
    8.2516   40.9001   68.2325 C   0  0  0  0  0  0  0  0  0  0  0  0
    9.1474   41.6924   68.8137 N   0  0  0  0  0  0  0  0  0  0  0  0
    7.3396   41.3773   67.5610 O   0  0  0  0  0  0  0  0  0  0  0  0
    9.2590   43.1033   68.4278 C   0  0  2  0  0  0  0  0  0  0  0  0
   10.6842   43.3666   67.9349 C   0  0  0  0  0  0  0  0  0  0  0  0
   11.3973   41.6394   69.6259 C   0  0  0  0  0  0  0  0  0  0  0  0
   11.6953   42.7501   68.8289 N   0  0  0  0  0  0  0  0  0  0  0  0
    8.9343   44.0126   69.6179 C   0  0  0  0  0  0  0  0  0  0  0  0
    7.5239   43.8518   69.9923 N   0  0  0  0  0  0  0  0  0  0  0  0
    6.3485   41.5989   73.2536 C   0  0  0  0  0  0  0  0  0  0  0  0
    6.2907   42.9900   73.2905 C   0  0  0  0  0  0  0  0  0  0  0  0
    6.7076   43.7436   72.1950 C   0  0  0  0  0  0  0  0  0  0  0  0
    7.1441   43.1134   71.0346 C   0  0  0  0  0  0  0  0  0  0  0  0
    7.1940   41.7241   70.9928 C   0  0  0  0  0  0  0  0  0  0  0  0
    6.8108   40.9700   72.1010 C   0  0  0  0  0  0  0  0  0  0  0  0
    4.3824   41.7211   77.6249 C   0  0  0  0  0  0  0  0  0  0  0  0
  1  3  1  0  0  0  0
  2  1  1  6  0  0  0
  2  6  1  0  0  0  0
  2 34  1  0  0  0  0
  3  4  2  0  0  0  0
  3 28  1  0  0  0  0
  5 13  1  0  0  0  0
  6  7  1  0  0  0  0
  7  8  1  0  0  0  0
  8  9  1  0  0  0  0
  8 10  1  0  0  0  0
 11 13  2  0  0  0  0
 11 24  1  0  0  0  0
 12 34  1  0  0  0  0
 13 15  1  0  0  0  0
 14 34  1  0  0  0  0
 15 16  1  0  0  0  0
 16 17  1  0  0  0  0
 16 18  2  0  0  0  0
 17 20  1  0  0  0  0
 17 24  2  0  0  0  0
 19 21  1  0  0  0  0
 19 20  1  0  0  0  0
 20 22  1  0  0  0  0
 22 23  1  0  0  0  0
 22 26  1  1  0  0  0
 23 25  1  0  0  0  0
 24 25  1  0  0  0  0
 26 27  1  0  0  0  0
 27 31  1  0  0  0  0
 28 29  2  0  0  0  0
 28 33  1  0  0  0  0
 29 30  1  0  0  0  0
 30 31  2  0  0  0  0
 31 32  1  0  0  0  0
 32 33  2  0  0  0  0
M  END
>  <CHROM.1>
107.32267929,-62.59514023,148.61912462,-174.03253948,-72.75423297,175.05307901
-65.66718925,101.53972364,105.96152703,-15.79056701,8.18333520,41.28319545
72.79133410,2.03202360,-0.41568309,1.89707320

>  <Name>
ligand

>  <RI>
0

>  <Rbt.Current_Directory>
/home/itssahil/PROJECTS/Mol_Feturizer/New_Systems/rnas/3SUH

>  <Rbt.Executable>
rbdock ($Id: //depot/dev/client3/rdock/2013.1/src/exe/rbdock.cxx#4 $)

>  <Rbt.Library>
libRbt.so (2013.1, Build901 2013/11/27)

>  <Rbt.Parameter_File>
/export/apps/rDock/src/rDock_2013.1_src/data/scripts/dock_solv.prm

>  <Rbt.Receptor>
prm/pocket_docking_4.prm

>  <SCORE>
-10.4744

>  <SCORE.INTER>
-6.85169

>  <SCORE.INTER.CONST>
1

>  <SCORE.INTER.POLAR>
0

>  <SCORE.INTER.ROT>
10

>  <SCORE.INTER.SOLV>
15.8033

>  <SCORE.INTER.VDW>
-20.1022

>  <SCORE.INTER.norm>
-0.20152

>  <SCORE.INTRA>
-3.62274

>  <SCORE.INTRA.DIHEDRAL>
-3.6316

>  <SCORE.INTRA.DIHEDRAL.0>
12.2703

>  <SCORE.INTRA.POLAR>
0

>  <SCORE.INTRA.POLAR.0>
0

>  <SCORE.INTRA.REPUL>
0

>  <SCORE.INTRA.REPUL.0>
0

>  <SCORE.INTRA.SOLV>
0.492761

>  <SCORE.INTRA.SOLV.lig_0>
-64.3214

>  <SCORE.INTRA.VDW>
-2.05332

>  <SCORE.INTRA.VDW.0>
-1.67301

>  <SCORE.INTRA.norm>
-0.106551

>  <SCORE.RESTR>
0

>  <SCORE.RESTR.CAVITY>
0

>  <SCORE.RESTR.norm>
0

>  <SCORE.SYSTEM>
0

>  <SCORE.SYSTEM.CONST>
0

>  <SCORE.SYSTEM.DIHEDRAL>
0

>  <SCORE.SYSTEM.SOLV>
0

>  <SCORE.SYSTEM.norm>
0

>  <SCORE.heavy>
34

>  <SCORE.norm>
-0.308071

>  <RMSD>
3.502

$$$$
ligand
 OpenBabel11021811483D
libRbt.so/2013.1/901 2013/11/27
 34 36  0  0  0  0  0  0  0  0999 V2000
    6.0665   41.0445   74.7997 N   0  0  0  0  0  0  0  0  0  0  0  0
    5.6249   40.8971   76.2061 C   0  0  1  0  0  0  0  0  0  0  0  0
    5.8959   42.1588   74.0763 C   0  0  0  0  0  0  0  0  0  0  0  0
    5.3524   43.1840   74.4968 O   0  0  0  0  0  0  0  0  0  0  0  0
    9.7224   46.5278   71.3957 N   0  0  0  0  0  0  0  0  0  0  0  0
    5.8934   39.4615   76.6879 C   0  0  0  0  0  0  0  0  0  0  0  0
    4.8285   38.4841   76.1721 C   0  0  0  0  0  0  0  0  0  0  0  0
    3.4406   38.8255   76.7354 C   0  0  0  0  0  0  0  0  0  0  0  0
    3.3861   39.2154   77.9254 O   0  0  0  0  0  0  0  0  0  0  0  0
    2.4643   38.6915   75.9623 O   0  0  0  0  0  0  0  0  0  0  0  0
    9.9784   45.0313   69.6484 N   0  0  0  0  0  0  0  0  0  0  0  0
    5.8123   42.1095   78.2660 O   0  0  0  0  0  0  0  0  0  0  0  0
   10.0083   45.3018   70.9649 C   0  0  0  0  0  0  0  0  0  0  0  0
    7.3717   42.4455   76.7026 O   0  0  0  0  0  0  0  0  0  0  0  0
   10.3377   44.3054   71.8925 N   0  0  0  0  0  0  0  0  0  0  0  0
   10.6293   43.0286   71.4318 C   0  0  0  0  0  0  0  0  0  0  0  0
   10.5579   42.7747   70.0684 C   0  0  0  0  0  0  0  0  0  0  0  0
   10.9110   42.1353   72.2267 O   0  0  0  0  0  0  0  0  0  0  0  0
   11.8591   40.8251   70.1596 C   0  0  0  0  0  0  0  0  0  0  0  0
   10.9078   41.5306   69.5554 N   0  0  0  0  0  0  0  0  0  0  0  0
   13.0374   41.1629   70.0710 O   0  0  0  0  0  0  0  0  0  0  0  0
   10.3734   41.1061   68.2567 C   0  0  2  0  0  0  0  0  0  0  0  0
   10.5921   42.2326   67.2435 C   0  0  0  0  0  0  0  0  0  0  0  0
   10.2574   43.8032   69.1857 C   0  0  0  0  0  0  0  0  0  0  0  0
   10.2294   43.5556   67.8088 N   0  0  0  0  0  0  0  0  0  0  0  0
    8.8803   40.7802   68.3714 C   0  0  0  0  0  0  0  0  0  0  0  0
    8.1558   41.9529   68.8765 N   0  0  0  0  0  0  0  0  0  0  0  0
    6.4828   42.0966   72.6546 C   0  0  0  0  0  0  0  0  0  0  0  0
    6.7088   43.2647   71.9304 C   0  0  0  0  0  0  0  0  0  0  0  0
    7.2917   43.2104   70.6659 C   0  0  0  0  0  0  0  0  0  0  0  0
    7.6133   41.9844   70.0933 C   0  0  0  0  0  0  0  0  0  0  0  0
    7.3801   40.8164   70.8113 C   0  0  0  0  0  0  0  0  0  0  0  0
    6.8298   40.8720   72.0911 C   0  0  0  0  0  0  0  0  0  0  0  0
    6.3285   41.9023   77.1412 C   0  0  0  0  0  0  0  0  0  0  0  0
  1  3  1  0  0  0  0
  2  1  1  6  0  0  0
  2  6  1  0  0  0  0
  2 34  1  0  0  0  0
  3  4  2  0  0  0  0
  3 28  1  0  0  0  0
  5 13  1  0  0  0  0
  6  7  1  0  0  0  0
  7  8  1  0  0  0  0
  8  9  1  0  0  0  0
  8 10  1  0  0  0  0
 11 13  2  0  0  0  0
 11 24  1  0  0  0  0
 12 34  1  0  0  0  0
 13 15  1  0  0  0  0
 14 34  1  0  0  0  0
 15 16  1  0  0  0  0
 16 17  1  0  0  0  0
 16 18  2  0  0  0  0
 17 20  1  0  0  0  0
 17 24  2  0  0  0  0
 19 21  1  0  0  0  0
 19 20  1  0  0  0  0
 20 22  1  0  0  0  0
 22 23  1  0  0  0  0
 22 26  1  1  0  0  0
 23 25  1  0  0  0  0
 24 25  1  0  0  0  0
 26 27  1  0  0  0  0
 27 31  1  0  0  0  0
 28 29  2  0  0  0  0
 28 33  1  0  0  0  0
 29 30  1  0  0  0  0
 30 31  2  0  0  0  0
 31 32  1  0  0  0  0
 32 33  2  0  0  0  0
M  END
>  <CHROM.1>
176.11018765,-78.57358148,162.49492250,-63.72702203,-38.13832020,-72.58288290
57.50937991,-110.59942777,161.31093420,-162.35474288,7.96285285,41.92585380
72.46524692,2.76262202,0.86910680,0.81662268

>  <Name>
ligand

>  <RI>
0

>  <Rbt.Current_Directory>
/home/itssahil/PROJECTS/Mol_Feturizer/New_Systems/rnas/3SUH

>  <Rbt.Executable>
rbdock ($Id: //depot/dev/client3/rdock/2013.1/src/exe/rbdock.cxx#4 $)

>  <Rbt.Library>
libRbt.so (2013.1, Build901 2013/11/27)

>  <Rbt.Parameter_File>
/export/apps/rDock/src/rDock_2013.1_src/data/scripts/dock_solv.prm

>  <Rbt.Receptor>
prm/pocket_docking_4.prm

>  <SCORE>
-11.5479

>  <SCORE.INTER>
-8.01692

>  <SCORE.INTER.CONST>
1

>  <SCORE.INTER.POLAR>
0

>  <SCORE.INTER.ROT>
10

>  <SCORE.INTER.SOLV>
14.1132

>  <SCORE.INTER.VDW>
-20.3157

>  <SCORE.INTER.norm>
-0.235792

>  <SCORE.INTRA>
-3.53094

>  <SCORE.INTRA.DIHEDRAL>
-3.49034

>  <SCORE.INTRA.DIHEDRAL.0>
12.2703

>  <SCORE.INTRA.POLAR>
0

>  <SCORE.INTRA.POLAR.0>
0

>  <SCORE.INTRA.REPUL>
0

>  <SCORE.INTRA.REPUL.0>
0

>  <SCORE.INTRA.SOLV>
2.10104

>  <SCORE.INTRA.SOLV.lig_0>
-64.3214

>  <SCORE.INTRA.VDW>
-2.83629

>  <SCORE.INTRA.VDW.0>
-1.67301

>  <SCORE.INTRA.norm>
-0.103851

>  <SCORE.RESTR>
0

>  <SCORE.RESTR.CAVITY>
0

>  <SCORE.RESTR.norm>
0

>  <SCORE.SYSTEM>
0

>  <SCORE.SYSTEM.CONST>
0

>  <SCORE.SYSTEM.DIHEDRAL>
0

>  <SCORE.SYSTEM.SOLV>
0

>  <SCORE.SYSTEM.norm>
0

>  <SCORE.heavy>
34

>  <SCORE.norm>
-0.339643

>  <RMSD>
3.509

$$$$
ligand
 OpenBabel11021811483D
libRbt.so/2013.1/901 2013/11/27
 34 36  0  0  0  0  0  0  0  0999 V2000
    5.8601   41.8271   76.2773 N   0  0  0  0  0  0  0  0  0  0  0  0
    5.3223   42.1357   77.6228 C   0  0  1  0  0  0  0  0  0  0  0  0
    5.3269   42.2849   75.1370 C   0  0  0  0  0  0  0  0  0  0  0  0
    4.3306   43.0109   75.0779 O   0  0  0  0  0  0  0  0  0  0  0  0
   11.8687   47.3241   70.8713 N   0  0  0  0  0  0  0  0  0  0  0  0
    4.4616   40.9624   78.1206 C   0  0  0  0  0  0  0  0  0  0  0  0
    3.2015   40.7825   77.2633 C   0  0  0  0  0  0  0  0  0  0  0  0
    2.3371   39.6228   77.7812 C   0  0  0  0  0  0  0  0  0  0  0  0
    2.5261   38.4949   77.2682 O   0  0  0  0  0  0  0  0  0  0  0  0
    1.5077   39.8894   78.6811 O   0  0  0  0  0  0  0  0  0  0  0  0
   10.1895   45.8532   70.2589 N   0  0  0  0  0  0  0  0  0  0  0  0
    7.4577   41.6899   78.6174 O   0  0  0  0  0  0  0  0  0  0  0  0
   11.4787   46.2324   70.2183 C   0  0  0  0  0  0  0  0  0  0  0  0
    6.2569   43.3918   79.4239 O   0  0  0  0  0  0  0  0  0  0  0  0
   12.4202   45.4898   69.4946 N   0  0  0  0  0  0  0  0  0  0  0  0
   12.0027   44.3497   68.8212 C   0  0  0  0  0  0  0  0  0  0  0  0
   10.6704   43.9680   68.9100 C   0  0  0  0  0  0  0  0  0  0  0  0
   12.8117   43.6762   68.1880 O   0  0  0  0  0  0  0  0  0  0  0  0
   10.7321   42.5842   67.0170 C   0  0  0  0  0  0  0  0  0  0  0  0
   10.1931   42.8736   68.1975 N   0  0  0  0  0  0  0  0  0  0  0  0
   10.6672   43.3866   66.0884 O   0  0  0  0  0  0  0  0  0  0  0  0
    8.9832   42.1823   68.6563 C   0  0  2  0  0  0  0  0  0  0  0  0
    7.8919   43.2233   68.9183 C   0  0  0  0  0  0  0  0  0  0  0  0
    9.7687   44.7544   69.6142 C   0  0  0  0  0  0  0  0  0  0  0  0
    8.4182   44.3920   69.6657 N   0  0  0  0  0  0  0  0  0  0  0  0
    9.2719   41.3855   69.9332 C   0  0  0  0  0  0  0  0  0  0  0  0
    8.0401   40.7379   70.4006 N   0  0  0  0  0  0  0  0  0  0  0  0
    6.0880   41.8750   73.8632 C   0  0  0  0  0  0  0  0  0  0  0  0
    6.4824   40.5534   73.6688 C   0  0  0  0  0  0  0  0  0  0  0  0
    7.1218   40.1731   72.4906 C   0  0  0  0  0  0  0  0  0  0  0  0
    7.4141   41.1189   71.5137 C   0  0  0  0  0  0  0  0  0  0  0  0
    7.0290   42.4408   71.7101 C   0  0  0  0  0  0  0  0  0  0  0  0
    6.3574   42.8154   72.8730 C   0  0  0  0  0  0  0  0  0  0  0  0
    6.4441   42.4294   78.6402 C   0  0  0  0  0  0  0  0  0  0  0  0
  1  3  1  0  0  0  0
  2  1  1  6  0  0  0
  2  6  1  0  0  0  0
  2 34  1  0  0  0  0
  3  4  2  0  0  0  0
  3 28  1  0  0  0  0
  5 13  1  0  0  0  0
  6  7  1  0  0  0  0
  7  8  1  0  0  0  0
  8  9  1  0  0  0  0
  8 10  1  0  0  0  0
 11 13  2  0  0  0  0
 11 24  1  0  0  0  0
 12 34  1  0  0  0  0
 13 15  1  0  0  0  0
 14 34  1  0  0  0  0
 15 16  1  0  0  0  0
 16 17  1  0  0  0  0
 16 18  2  0  0  0  0
 17 20  1  0  0  0  0
 17 24  2  0  0  0  0
 19 21  1  0  0  0  0
 19 20  1  0  0  0  0
 20 22  1  0  0  0  0
 22 23  1  0  0  0  0
 22 26  1  1  0  0  0
 23 25  1  0  0  0  0
 24 25  1  0  0  0  0
 26 27  1  0  0  0  0
 27 31  1  0  0  0  0
 28 29  2  0  0  0  0
 28 33  1  0  0  0  0
 29 30  1  0  0  0  0
 30 31  2  0  0  0  0
 31 32  1  0  0  0  0
 32 33  2  0  0  0  0
M  END
>  <CHROM.1>
99.20436807,-65.83575454,-42.48849949,-179.09978767,-93.11008986,-61.79540404
178.13557163,-110.51553567,-126.47196417,47.41187157,7.64682292,42.57193021
72.74403744,-2.47602124,-0.75789204,-1.95733839

>  <Name>
ligand

>  <RI>
0

>  <Rbt.Current_Directory>
/home/itssahil/PROJECTS/Mol_Feturizer/New_Systems/rnas/3SUH

>  <Rbt.Executable>
rbdock ($Id: //depot/dev/client3/rdock/2013.1/src/exe/rbdock.cxx#4 $)

>  <Rbt.Library>
libRbt.so (2013.1, Build901 2013/11/27)

>  <Rbt.Parameter_File>
/export/apps/rDock/src/rDock_2013.1_src/data/scripts/dock_solv.prm

>  <Rbt.Receptor>
prm/pocket_docking_4.prm

>  <SCORE>
-11.8367

>  <SCORE.INTER>
-8.33093

>  <SCORE.INTER.CONST>
1

>  <SCORE.INTER.POLAR>
0

>  <SCORE.INTER.ROT>
10

>  <SCORE.INTER.SOLV>
14.8498

>  <SCORE.INTER.VDW>
-20.7705

>  <SCORE.INTER.norm>
-0.245027

>  <SCORE.INTRA>
-3.5058

>  <SCORE.INTRA.DIHEDRAL>
-3.86168

>  <SCORE.INTRA.DIHEDRAL.0>
12.2703

>  <SCORE.INTRA.POLAR>
0

>  <SCORE.INTRA.POLAR.0>
0

>  <SCORE.INTRA.REPUL>
0

>  <SCORE.INTRA.REPUL.0>
0

>  <SCORE.INTRA.SOLV>
-0.187427

>  <SCORE.INTRA.SOLV.lig_0>
-64.3214

>  <SCORE.INTRA.VDW>
-1.48125

>  <SCORE.INTRA.VDW.0>
-1.67301

>  <SCORE.INTRA.norm>
-0.103112

>  <SCORE.RESTR>
0

>  <SCORE.RESTR.CAVITY>
0

>  <SCORE.RESTR.norm>
0

>  <SCORE.SYSTEM>
0

>  <SCORE.SYSTEM.CONST>
0

>  <SCORE.SYSTEM.DIHEDRAL>
0

>  <SCORE.SYSTEM.SOLV>
0

>  <SCORE.SYSTEM.norm>
0

>  <SCORE.heavy>
34

>  <SCORE.norm>
-0.348139

>  <RMSD>
3.509

$$$$
ligand
 OpenBabel11021811483D
libRbt.so/2013.1/901 2013/11/27
 34 36  0  0  0  0  0  0  0  0999 V2000
    6.1484   40.8902   75.2266 N   0  0  0  0  0  0  0  0  0  0  0  0
    5.7471   40.2561   76.5040 C   0  0  1  0  0  0  0  0  0  0  0  0
    6.0511   40.2911   74.0326 C   0  0  0  0  0  0  0  0  0  0  0  0
    5.6197   39.1474   73.8619 O   0  0  0  0  0  0  0  0  0  0  0  0
   12.0159   39.3798   72.0037 N   0  0  0  0  0  0  0  0  0  0  0  0
    6.2672   41.0920   77.6855 C   0  0  0  0  0  0  0  0  0  0  0  0
    6.1802   40.3171   79.0074 C   0  0  0  0  0  0  0  0  0  0  0  0
    4.7200   40.1242   79.4440 C   0  0  0  0  0  0  0  0  0  0  0  0
    4.0453   41.1587   79.6576 O   0  0  0  0  0  0  0  0  0  0  0  0
    4.3096   38.9458   79.5523 O   0  0  0  0  0  0  0  0  0  0  0  0
   11.8163   41.5574   71.2442 N   0  0  0  0  0  0  0  0  0  0  0  0
    3.7617   38.9276   76.7065 O   0  0  0  0  0  0  0  0  0  0  0  0
   11.5046   40.2537   71.1404 C   0  0  0  0  0  0  0  0  0  0  0  0
    3.5349   41.1468   76.5953 O   0  0  0  0  0  0  0  0  0  0  0  0
   10.6448   39.8021   70.1312 N   0  0  0  0  0  0  0  0  0  0  0  0
   10.1134   40.7238   69.2393 C   0  0  0  0  0  0  0  0  0  0  0  0
   10.4302   42.0670   69.3940 C   0  0  0  0  0  0  0  0  0  0  0  0
    9.3488   40.3534   68.3519 O   0  0  0  0  0  0  0  0  0  0  0  0
    9.8207   42.6692   67.2104 C   0  0  0  0  0  0  0  0  0  0  0  0
    9.9770   43.0160   68.4844 N   0  0  0  0  0  0  0  0  0  0  0  0
   10.7978   42.5241   66.4792 O   0  0  0  0  0  0  0  0  0  0  0  0
    9.8714   44.4204   68.8949 C   0  0  2  0  0  0  0  0  0  0  0  0
   11.1849   44.8378   69.5612 C   0  0  0  0  0  0  0  0  0  0  0  0
   11.3120   42.4616   70.3910 C   0  0  0  0  0  0  0  0  0  0  0  0
   11.6646   43.8098   70.5175 N   0  0  0  0  0  0  0  0  0  0  0  0
    8.7018   44.6088   69.8672 C   0  0  0  0  0  0  0  0  0  0  0  0
    7.7274   43.5262   69.6838 N   0  0  0  0  0  0  0  0  0  0  0  0
    6.4801   41.1646   72.8398 C   0  0  0  0  0  0  0  0  0  0  0  0
    6.4200   42.5536   72.9221 C   0  0  0  0  0  0  0  0  0  0  0  0
    6.8610   43.3438   71.8624 C   0  0  0  0  0  0  0  0  0  0  0  0
    7.3246   42.7531   70.6917 C   0  0  0  0  0  0  0  0  0  0  0  0
    7.3770   41.3660   70.6045 C   0  0  0  0  0  0  0  0  0  0  0  0
    6.9694   40.5749   71.6777 C   0  0  0  0  0  0  0  0  0  0  0  0
    4.2169   40.0931   76.6126 C   0  0  0  0  0  0  0  0  0  0  0  0
  1  3  1  0  0  0  0
  2  1  1  6  0  0  0
  2  6  1  0  0  0  0
  2 34  1  0  0  0  0
  3  4  2  0  0  0  0
  3 28  1  0  0  0  0
  5 13  1  0  0  0  0
  6  7  1  0  0  0  0
  7  8  1  0  0  0  0
  8  9  1  0  0  0  0
  8 10  1  0  0  0  0
 11 13  2  0  0  0  0
 11 24  1  0  0  0  0
 12 34  1  0  0  0  0
 13 15  1  0  0  0  0
 14 34  1  0  0  0  0
 15 16  1  0  0  0  0
 16 17  1  0  0  0  0
 16 18  2  0  0  0  0
 17 20  1  0  0  0  0
 17 24  2  0  0  0  0
 19 21  1  0  0  0  0
 19 20  1  0  0  0  0
 20 22  1  0  0  0  0
 22 23  1  0  0  0  0
 22 26  1  1  0  0  0
 23 25  1  0  0  0  0
 24 25  1  0  0  0  0
 26 27  1  0  0  0  0
 27 31  1  0  0  0  0
 28 29  2  0  0  0  0
 28 33  1  0  0  0  0
 29 30  1  0  0  0  0
 30 31  2  0  0  0  0
 31 32  1  0  0  0  0
 32 33  2  0  0  0  0
M  END
>  <CHROM.1>
167.92937351,-166.16377783,118.08401655,-69.42434015,-60.78651034,-74.77920021
-23.14306047,125.24144710,51.42989551,-25.39514014,7.86435159,41.44285285
72.65863502,2.21633057,-0.49984258,2.17830755

>  <Name>
ligand

>  <RI>
0

>  <Rbt.Current_Directory>
/home/itssahil/PROJECTS/Mol_Feturizer/New_Systems/rnas/3SUH

>  <Rbt.Executable>
rbdock ($Id: //depot/dev/client3/rdock/2013.1/src/exe/rbdock.cxx#4 $)

>  <Rbt.Library>
libRbt.so (2013.1, Build901 2013/11/27)

>  <Rbt.Parameter_File>
/export/apps/rDock/src/rDock_2013.1_src/data/scripts/dock_solv.prm

>  <Rbt.Receptor>
prm/pocket_docking_3.prm

>  <SCORE>
-10.1877

>  <SCORE.INTER>
-7.36771

>  <SCORE.INTER.CONST>
1

>  <SCORE.INTER.POLAR>
0

>  <SCORE.INTER.ROT>
10

>  <SCORE.INTER.SOLV>
13.4776

>  <SCORE.INTER.VDW>
-19.671

>  <SCORE.INTER.norm>
-0.216697

>  <SCORE.INTRA>
-2.88532

>  <SCORE.INTRA.DIHEDRAL>
-0.0861645

>  <SCORE.INTRA.DIHEDRAL.0>
12.2703

>  <SCORE.INTRA.POLAR>
0

>  <SCORE.INTRA.POLAR.0>
0

>  <SCORE.INTRA.REPUL>
0

>  <SCORE.INTRA.REPUL.0>
0

>  <SCORE.INTRA.SOLV>
0.72394

>  <SCORE.INTRA.SOLV.lig_0>
-64.3214

>  <SCORE.INTRA.VDW>
-3.20421

>  <SCORE.INTRA.VDW.0>
-1.67301

>  <SCORE.INTRA.norm>
-0.0848624

>  <SCORE.RESTR>
0.0653016

>  <SCORE.RESTR.CAVITY>
0.0653016

>  <SCORE.RESTR.norm>
0.00192063

>  <SCORE.SYSTEM>
0

>  <SCORE.SYSTEM.CONST>
0

>  <SCORE.SYSTEM.DIHEDRAL>
0

>  <SCORE.SYSTEM.SOLV>
0

>  <SCORE.SYSTEM.norm>
0

>  <SCORE.heavy>
34

>  <SCORE.norm>
-0.299639

>  <RMSD>
3.516

$$$$
ligand
 OpenBabel11021811483D
libRbt.so/2013.1/901 2013/11/27
 34 36  0  0  0  0  0  0  0  0999 V2000
    5.0663   41.5607   75.2273 N   0  0  0  0  0  0  0  0  0  0  0  0
    4.5302   41.2756   76.5786 C   0  0  1  0  0  0  0  0  0  0  0  0
    5.7521   42.6678   74.9143 C   0  0  0  0  0  0  0  0  0  0  0  0
    6.0127   43.5728   75.7120 O   0  0  0  0  0  0  0  0  0  0  0  0
   11.5671   41.2777   73.9166 N   0  0  0  0  0  0  0  0  0  0  0  0
    5.6591   41.3772   77.6181 C   0  0  0  0  0  0  0  0  0  0  0  0
    5.1453   41.1051   79.0385 C   0  0  0  0  0  0  0  0  0  0  0  0
    4.6610   39.6546   79.1864 C   0  0  0  0  0  0  0  0  0  0  0  0
    5.4322   38.8496   79.7594 O   0  0  0  0  0  0  0  0  0  0  0  0
    3.5286   39.3832   78.7253 O   0  0  0  0  0  0  0  0  0  0  0  0
   11.3231   42.6499   72.0684 N   0  0  0  0  0  0  0  0  0  0  0  0
    2.4070   41.7518   77.5852 O   0  0  0  0  0  0  0  0  0  0  0  0
   11.1375   41.4625   72.6709 C   0  0  0  0  0  0  0  0  0  0  0  0
    3.5074   43.4316   76.6072 O   0  0  0  0  0  0  0  0  0  0  0  0
   10.4949   40.4134   72.0015 N   0  0  0  0  0  0  0  0  0  0  0  0
   10.0465   40.6194   70.7038 C   0  0  0  0  0  0  0  0  0  0  0  0
   10.2254   41.8676   70.1221 C   0  0  0  0  0  0  0  0  0  0  0  0
    9.4709   39.7177   70.0996 O   0  0  0  0  0  0  0  0  0  0  0  0
    9.9391   41.1061   67.9220 C   0  0  0  0  0  0  0  0  0  0  0  0
    9.8547   42.0992   68.8022 N   0  0  0  0  0  0  0  0  0  0  0  0
   10.5611   41.2543   66.8725 O   0  0  0  0  0  0  0  0  0  0  0  0
    9.5713   43.4686   68.3589 C   0  0  2  0  0  0  0  0  0  0  0  0
   10.7193   44.3773   68.8058 C   0  0  0  0  0  0  0  0  0  0  0  0
   10.8962   42.8663   70.8150 C   0  0  0  0  0  0  0  0  0  0  0  0
   11.1146   44.1092   70.2105 N   0  0  0  0  0  0  0  0  0  0  0  0
    8.2460   43.9607   68.9505 C   0  0  0  0  0  0  0  0  0  0  0  0
    7.5087   42.8271   69.5220 N   0  0  0  0  0  0  0  0  0  0  0  0
    6.2544   42.7215   73.4601 C   0  0  0  0  0  0  0  0  0  0  0  0
    6.7318   41.5730   72.8334 C   0  0  0  0  0  0  0  0  0  0  0  0
    7.1339   41.6113   71.4997 C   0  0  0  0  0  0  0  0  0  0  0  0
    7.1053   42.8082   70.7919 C   0  0  0  0  0  0  0  0  0  0  0  0
    6.6372   43.9580   71.4190 C   0  0  0  0  0  0  0  0  0  0  0  0
    6.2013   43.9131   72.7425 C   0  0  0  0  0  0  0  0  0  0  0  0
    3.3820   42.2331   76.9587 C   0  0  0  0  0  0  0  0  0  0  0  0
  1  3  1  0  0  0  0
  2  1  1  6  0  0  0
  2  6  1  0  0  0  0
  2 34  1  0  0  0  0
  3  4  2  0  0  0  0
  3 28  1  0  0  0  0
  5 13  1  0  0  0  0
  6  7  1  0  0  0  0
  7  8  1  0  0  0  0
  8  9  1  0  0  0  0
  8 10  1  0  0  0  0
 11 13  2  0  0  0  0
 11 24  1  0  0  0  0
 12 34  1  0  0  0  0
 13 15  1  0  0  0  0
 14 34  1  0  0  0  0
 15 16  1  0  0  0  0
 16 17  1  0  0  0  0
 16 18  2  0  0  0  0
 17 20  1  0  0  0  0
 17 24  2  0  0  0  0
 19 21  1  0  0  0  0
 19 20  1  0  0  0  0
 20 22  1  0  0  0  0
 22 23  1  0  0  0  0
 22 26  1  1  0  0  0
 23 25  1  0  0  0  0
 24 25  1  0  0  0  0
 26 27  1  0  0  0  0
 27 31  1  0  0  0  0
 28 29  2  0  0  0  0
 28 33  1  0  0  0  0
 29 30  1  0  0  0  0
 30 31  2  0  0  0  0
 31 32  1  0  0  0  0
 32 33  2  0  0  0  0
M  END
>  <CHROM.1>
-53.82553807,179.33043093,140.80509213,65.31230574,101.52941622,-126.60097476
-13.03594234,124.00901282,-143.24488572,-38.51573136,7.54342316,41.94963402
73.08301234,2.25271320,-0.48742920,2.08072936

>  <Name>
ligand

>  <RI>
0

>  <Rbt.Current_Directory>
/home/itssahil/PROJECTS/Mol_Feturizer/New_Systems/rnas/3SUH

>  <Rbt.Executable>
rbdock ($Id: //depot/dev/client3/rdock/2013.1/src/exe/rbdock.cxx#4 $)

>  <Rbt.Library>
libRbt.so (2013.1, Build901 2013/11/27)

>  <Rbt.Parameter_File>
/export/apps/rDock/src/rDock_2013.1_src/data/scripts/dock_solv.prm

>  <Rbt.Receptor>
prm/pocket_docking_2.prm

>  <SCORE>
-1.52505

>  <SCORE.INTER>
-2.27698

>  <SCORE.INTER.CONST>
1

>  <SCORE.INTER.POLAR>
0

>  <SCORE.INTER.ROT>
10

>  <SCORE.INTER.SOLV>
11.6935

>  <SCORE.INTER.VDW>
-15.6825

>  <SCORE.INTER.norm>
-0.0669699

>  <SCORE.INTRA>
-0.877351

>  <SCORE.INTRA.DIHEDRAL>
0.392717

>  <SCORE.INTRA.DIHEDRAL.0>
12.2703

>  <SCORE.INTRA.POLAR>
0

>  <SCORE.INTRA.POLAR.0>
0

>  <SCORE.INTRA.REPUL>
0

>  <SCORE.INTRA.REPUL.0>
0

>  <SCORE.INTRA.SOLV>
1.45337

>  <SCORE.INTRA.SOLV.lig_0>
-64.3214

>  <SCORE.INTRA.VDW>
-1.80039

>  <SCORE.INTRA.VDW.0>
-1.67301

>  <SCORE.INTRA.norm>
-0.0258044

>  <SCORE.RESTR>
1.62928

>  <SCORE.RESTR.CAVITY>
1.62928

>  <SCORE.RESTR.norm>
0.04792

>  <SCORE.SYSTEM>
0

>  <SCORE.SYSTEM.CONST>
0

>  <SCORE.SYSTEM.DIHEDRAL>
0

>  <SCORE.SYSTEM.SOLV>
0

>  <SCORE.SYSTEM.norm>
0

>  <SCORE.heavy>
34

>  <SCORE.norm>
-0.0448544

>  <RMSD>
3.521

$$$$
ligand
 OpenBabel11021811483D
libRbt.so/2013.1/901 2013/11/27
 34 36  0  0  0  0  0  0  0  0999 V2000
    6.8697   42.2190   74.4131 N   0  0  0  0  0  0  0  0  0  0  0  0
    6.5727   42.4282   75.8493 C   0  0  1  0  0  0  0  0  0  0  0  0
    6.2724   42.8925   73.4213 C   0  0  0  0  0  0  0  0  0  0  0  0
    5.4096   43.7586   73.5903 O   0  0  0  0  0  0  0  0  0  0  0  0
   12.8655   46.5580   71.0799 N   0  0  0  0  0  0  0  0  0  0  0  0
    5.7122   41.2679   76.3769 C   0  0  0  0  0  0  0  0  0  0  0  0
    5.2251   41.5311   77.8083 C   0  0  0  0  0  0  0  0  0  0  0  0
    4.4099   40.3449   78.3455 C   0  0  0  0  0  0  0  0  0  0  0  0
    4.9998   39.5438   79.1079 O   0  0  0  0  0  0  0  0  0  0  0  0
    3.2134   40.2667   77.9838 O   0  0  0  0  0  0  0  0  0  0  0  0
   12.3260   45.3305   69.1930 N   0  0  0  0  0  0  0  0  0  0  0  0
    8.7466   41.6802   76.5296 O   0  0  0  0  0  0  0  0  0  0  0  0
   12.4361   45.4252   70.5295 C   0  0  0  0  0  0  0  0  0  0  0  0
    7.9192   43.5192   77.4901 O   0  0  0  0  0  0  0  0  0  0  0  0
   12.1030   44.3425   71.3531 N   0  0  0  0  0  0  0  0  0  0  0  0
   11.6515   43.1673   70.7679 C   0  0  0  0  0  0  0  0  0  0  0  0
   11.5188   43.1134   69.3867 C   0  0  0  0  0  0  0  0  0  0  0  0
   11.3435   42.2073   71.4699 O   0  0  0  0  0  0  0  0  0  0  0  0
   11.4966   40.7703   69.2790 C   0  0  0  0  0  0  0  0  0  0  0  0
   11.1363   41.9367   68.7523 N   0  0  0  0  0  0  0  0  0  0  0  0
   10.6484   39.9903   69.7062 O   0  0  0  0  0  0  0  0  0  0  0  0
   10.5220   41.9978   67.4215 C   0  0  2  0  0  0  0  0  0  0  0  0
   11.3853   42.8862   66.5221 C   0  0  0  0  0  0  0  0  0  0  0  0
   11.8914   44.2026   68.6107 C   0  0  0  0  0  0  0  0  0  0  0  0
   11.7988   44.1306   67.2164 N   0  0  0  0  0  0  0  0  0  0  0  0
    9.0994   42.5605   67.5123 C   0  0  0  0  0  0  0  0  0  0  0  0
    8.2447   41.6259   68.2547 N   0  0  0  0  0  0  0  0  0  0  0  0
    6.7806   42.5419   72.0111 C   0  0  0  0  0  0  0  0  0  0  0  0
    7.0143   43.5449   71.0733 C   0  0  0  0  0  0  0  0  0  0  0  0
    7.5270   43.2311   69.8162 C   0  0  0  0  0  0  0  0  0  0  0  0
    7.7689   41.9066   69.4674 C   0  0  0  0  0  0  0  0  0  0  0  0
    7.5276   40.9030   70.3994 C   0  0  0  0  0  0  0  0  0  0  0  0
    7.0483   41.2192   71.6698 C   0  0  0  0  0  0  0  0  0  0  0  0
    7.8582   42.5512   76.6933 C   0  0  0  0  0  0  0  0  0  0  0  0
  1  3  1  0  0  0  0
  2  1  1  6  0  0  0
  2  6  1  0  0  0  0
  2 34  1  0  0  0  0
  3  4  2  0  0  0  0
  3 28  1  0  0  0  0
  5 13  1  0  0  0  0
  6  7  1  0  0  0  0
  7  8  1  0  0  0  0
  8  9  1  0  0  0  0
  8 10  1  0  0  0  0
 11 13  2  0  0  0  0
 11 24  1  0  0  0  0
 12 34  1  0  0  0  0
 13 15  1  0  0  0  0
 14 34  1  0  0  0  0
 15 16  1  0  0  0  0
 16 17  1  0  0  0  0
 16 18  2  0  0  0  0
 17 20  1  0  0  0  0
 17 24  2  0  0  0  0
 19 21  1  0  0  0  0
 19 20  1  0  0  0  0
 20 22  1  0  0  0  0
 22 23  1  0  0  0  0
 22 26  1  1  0  0  0
 23 25  1  0  0  0  0
 24 25  1  0  0  0  0
 26 27  1  0  0  0  0
 27 31  1  0  0  0  0
 28 29  2  0  0  0  0
 28 33  1  0  0  0  0
 29 30  1  0  0  0  0
 30 31  2  0  0  0  0
 31 32  1  0  0  0  0
 32 33  2  0  0  0  0
M  END
>  <CHROM.1>
104.47650901,-172.51319051,-48.92374601,-177.91046520,99.93344243,115.26609717
-65.95425088,110.81837856,29.62668716,-137.15747580,8.72487313,42.47996569
72.14556586,2.29016343,0.58690094,1.34174879

>  <Name>
ligand

>  <RI>
0

>  <Rbt.Current_Directory>
/home/itssahil/PROJECTS/Mol_Feturizer/New_Systems/rnas/3SUH

>  <Rbt.Executable>
rbdock ($Id: //depot/dev/client3/rdock/2013.1/src/exe/rbdock.cxx#4 $)

>  <Rbt.Library>
libRbt.so (2013.1, Build901 2013/11/27)

>  <Rbt.Parameter_File>
/export/apps/rDock/src/rDock_2013.1_src/data/scripts/dock_solv.prm

>  <Rbt.Receptor>
prm/pocket_docking_5.prm

>  <SCORE>
-15.9307

>  <SCORE.INTER>
-12.1365

>  <SCORE.INTER.CONST>
1

>  <SCORE.INTER.POLAR>
0

>  <SCORE.INTER.ROT>
10

>  <SCORE.INTER.SOLV>
18.0478

>  <SCORE.INTER.VDW>
-24.3736

>  <SCORE.INTER.norm>
-0.356955

>  <SCORE.INTRA>
-3.79421

>  <SCORE.INTRA.DIHEDRAL>
-3.15411

>  <SCORE.INTRA.DIHEDRAL.0>
12.2703

>  <SCORE.INTRA.POLAR>
0

>  <SCORE.INTRA.POLAR.0>
0

>  <SCORE.INTRA.REPUL>
0

>  <SCORE.INTRA.REPUL.0>
0

>  <SCORE.INTRA.SOLV>
-0.117161

>  <SCORE.INTRA.SOLV.lig_0>
-64.3214

>  <SCORE.INTRA.VDW>
-2.15857

>  <SCORE.INTRA.VDW.0>
-1.67301

>  <SCORE.INTRA.norm>
-0.111594

>  <SCORE.RESTR>
0

>  <SCORE.RESTR.CAVITY>
0

>  <SCORE.RESTR.norm>
0

>  <SCORE.SYSTEM>
0

>  <SCORE.SYSTEM.CONST>
0

>  <SCORE.SYSTEM.DIHEDRAL>
0

>  <SCORE.SYSTEM.SOLV>
0

>  <SCORE.SYSTEM.norm>
0

>  <SCORE.heavy>
34

>  <SCORE.norm>
-0.468549

>  <RMSD>
3.533

$$$$
ligand
 OpenBabel11021811483D
libRbt.so/2013.1/901 2013/11/27
 34 36  0  0  0  0  0  0  0  0999 V2000
    6.5514   41.9532   74.3971 N   0  0  0  0  0  0  0  0  0  0  0  0
    6.1996   42.0810   75.8305 C   0  0  1  0  0  0  0  0  0  0  0  0
    6.1746   42.8276   73.4549 C   0  0  0  0  0  0  0  0  0  0  0  0
    5.4932   43.8333   73.6726 O   0  0  0  0  0  0  0  0  0  0  0  0
   13.0099   46.3487   71.3411 N   0  0  0  0  0  0  0  0  0  0  0  0
    5.1107   41.0569   76.1921 C   0  0  0  0  0  0  0  0  0  0  0  0
    5.5236   39.6314   75.8013 C   0  0  0  0  0  0  0  0  0  0  0  0
    6.6397   39.1050   76.7164 C   0  0  0  0  0  0  0  0  0  0  0  0
    7.7642   38.9150   76.1962 O   0  0  0  0  0  0  0  0  0  0  0  0
    6.3445   38.9065   77.9173 O   0  0  0  0  0  0  0  0  0  0  0  0
   12.4348   45.2219   69.4025 N   0  0  0  0  0  0  0  0  0  0  0  0
    7.2685   42.0752   77.9765 O   0  0  0  0  0  0  0  0  0  0  0  0
   12.5410   45.2569   70.7422 C   0  0  0  0  0  0  0  0  0  0  0  0
    8.4991   41.5514   76.1875 O   0  0  0  0  0  0  0  0  0  0  0  0
   12.1626   44.1544   71.5187 N   0  0  0  0  0  0  0  0  0  0  0  0
   11.6701   43.0225   70.8833 C   0  0  0  0  0  0  0  0  0  0  0  0
   11.5431   43.0311   69.5005 C   0  0  0  0  0  0  0  0  0  0  0  0
   11.3222   42.0467   71.5435 O   0  0  0  0  0  0  0  0  0  0  0  0
   11.4330   40.6970   69.2952 C   0  0  0  0  0  0  0  0  0  0  0  0
   11.1199   41.8971   68.8161 N   0  0  0  0  0  0  0  0  0  0  0  0
   12.6089   40.3597   69.4125 O   0  0  0  0  0  0  0  0  0  0  0  0
   10.5158   42.0367   67.4866 C   0  0  2  0  0  0  0  0  0  0  0  0
   11.4170   42.9281   66.6284 C   0  0  0  0  0  0  0  0  0  0  0  0
   11.9610   44.1366   68.7720 C   0  0  0  0  0  0  0  0  0  0  0  0
   11.8735   44.1260   67.3755 N   0  0  0  0  0  0  0  0  0  0  0  0
    9.1150   42.6489   67.5951 C   0  0  0  0  0  0  0  0  0  0  0  0
    8.2177   41.7111   68.2812 N   0  0  0  0  0  0  0  0  0  0  0  0
    6.7025   42.5159   72.0428 C   0  0  0  0  0  0  0  0  0  0  0  0
    6.8659   43.5349   71.1075 C   0  0  0  0  0  0  0  0  0  0  0  0
    7.3962   43.2599   69.8486 C   0  0  0  0  0  0  0  0  0  0  0  0
    7.7264   41.9558   69.4956 C   0  0  0  0  0  0  0  0  0  0  0  0
    7.5555   40.9356   70.4252 C   0  0  0  0  0  0  0  0  0  0  0  0
    7.0584   41.2153   71.6974 C   0  0  0  0  0  0  0  0  0  0  0  0
    7.4257   41.8853   76.7461 C   0  0  0  0  0  0  0  0  0  0  0  0
  1  3  1  0  0  0  0
  2  1  1  6  0  0  0
  2  6  1  0  0  0  0
  2 34  1  0  0  0  0
  3  4  2  0  0  0  0
  3 28  1  0  0  0  0
  5 13  1  0  0  0  0
  6  7  1  0  0  0  0
  7  8  1  0  0  0  0
  8  9  1  0  0  0  0
  8 10  1  0  0  0  0
 11 13  2  0  0  0  0
 11 24  1  0  0  0  0
 12 34  1  0  0  0  0
 13 15  1  0  0  0  0
 14 34  1  0  0  0  0
 15 16  1  0  0  0  0
 16 17  1  0  0  0  0
 16 18  2  0  0  0  0
 17 20  1  0  0  0  0
 17 24  2  0  0  0  0
 19 21  1  0  0  0  0
 19 20  1  0  0  0  0
 20 22  1  0  0  0  0
 22 23  1  0  0  0  0
 22 26  1  1  0  0  0
 23 25  1  0  0  0  0
 24 25  1  0  0  0  0
 26 27  1  0  0  0  0
 27 31  1  0  0  0  0
 28 29  2  0  0  0  0
 28 33  1  0  0  0  0
 29 30  1  0  0  0  0
 30 31  2  0  0  0  0
 31 32  1  0  0  0  0
 32 33  2  0  0  0  0
M  END
>  <CHROM.1>
105.76360705,53.95871170,174.53417576,71.18587290,-112.88872308,-61.28504875
-66.58421701,111.75463953,35.81739266,-154.24551152,8.98860528,42.21204826
71.99038898,2.21384276,0.47401395,1.55699656

>  <Name>
ligand

>  <RI>
0

>  <Rbt.Current_Directory>
/home/itssahil/PROJECTS/Mol_Feturizer/New_Systems/rnas/3SUH

>  <Rbt.Executable>
rbdock ($Id: //depot/dev/client3/rdock/2013.1/src/exe/rbdock.cxx#4 $)

>  <Rbt.Library>
libRbt.so (2013.1, Build901 2013/11/27)

>  <Rbt.Parameter_File>
/export/apps/rDock/src/rDock_2013.1_src/data/scripts/dock_solv.prm

>  <Rbt.Receptor>
prm/pocket_docking_5.prm

>  <SCORE>
-16.5807

>  <SCORE.INTER>
-12.886

>  <SCORE.INTER.CONST>
1

>  <SCORE.INTER.POLAR>
0

>  <SCORE.INTER.ROT>
10

>  <SCORE.INTER.SOLV>
18.8816

>  <SCORE.INTER.VDW>
-25.1512

>  <SCORE.INTER.norm>
-0.379001

>  <SCORE.INTRA>
-3.69466

>  <SCORE.INTRA.DIHEDRAL>
-2.86208

>  <SCORE.INTRA.DIHEDRAL.0>
12.2703

>  <SCORE.INTRA.POLAR>
0

>  <SCORE.INTRA.POLAR.0>
0

>  <SCORE.INTRA.REPUL>
0

>  <SCORE.INTRA.REPUL.0>
0

>  <SCORE.INTRA.SOLV>
-0.45987

>  <SCORE.INTRA.SOLV.lig_0>
-64.3214

>  <SCORE.INTRA.VDW>
-2.03368

>  <SCORE.INTRA.VDW.0>
-1.67301

>  <SCORE.INTRA.norm>
-0.108666

>  <SCORE.RESTR>
0

>  <SCORE.RESTR.CAVITY>
0

>  <SCORE.RESTR.norm>
0

>  <SCORE.SYSTEM>
0

>  <SCORE.SYSTEM.CONST>
0

>  <SCORE.SYSTEM.DIHEDRAL>
0

>  <SCORE.SYSTEM.SOLV>
0

>  <SCORE.SYSTEM.norm>
0

>  <SCORE.heavy>
34

>  <SCORE.norm>
-0.487668

>  <RMSD>
3.546

$$$$
ligand
 OpenBabel11021811483D
libRbt.so/2013.1/901 2013/11/27
 34 36  0  0  0  0  0  0  0  0999 V2000
    6.7947   42.5593   75.6252 N   0  0  0  0  0  0  0  0  0  0  0  0
    6.5597   42.2514   77.0551 C   0  0  1  0  0  0  0  0  0  0  0  0
    5.8226   42.6258   74.7061 C   0  0  0  0  0  0  0  0  0  0  0  0
    4.6264   42.4373   74.9447 O   0  0  0  0  0  0  0  0  0  0  0  0
   12.9594   39.6066   72.0924 N   0  0  0  0  0  0  0  0  0  0  0  0
    7.8943   42.2776   77.8190 C   0  0  0  0  0  0  0  0  0  0  0  0
    7.7274   41.7904   79.2647 C   0  0  0  0  0  0  0  0  0  0  0  0
    9.0734   41.7742   80.0051 C   0  0  0  0  0  0  0  0  0  0  0  0
    9.1898   42.5311   80.9973 O   0  0  0  0  0  0  0  0  0  0  0  0
    9.9561   41.0028   79.5638 O   0  0  0  0  0  0  0  0  0  0  0  0
   12.3443   41.0373   70.3797 N   0  0  0  0  0  0  0  0  0  0  0  0
    4.8488   42.8103   78.6389 O   0  0  0  0  0  0  0  0  0  0  0  0
   12.0233   40.0937   71.2819 C   0  0  0  0  0  0  0  0  0  0  0  0
    5.5488   44.4052   77.2407 O   0  0  0  0  0  0  0  0  0  0  0  0
   10.7107   39.6150   71.3801 N   0  0  0  0  0  0  0  0  0  0  0  0
    9.7412   40.1341   70.5325 C   0  0  0  0  0  0  0  0  0  0  0  0
   10.0993   41.1306   69.6341 C   0  0  0  0  0  0  0  0  0  0  0  0
    8.5809   39.7375   70.6065 O   0  0  0  0  0  0  0  0  0  0  0  0
    8.2362   40.8241   68.2423 C   0  0  0  0  0  0  0  0  0  0  0  0
    9.1788   41.6310   68.7199 N   0  0  0  0  0  0  0  0  0  0  0  0
    7.3345   41.2684   67.5353 O   0  0  0  0  0  0  0  0  0  0  0  0
    9.3784   42.9674   68.1486 C   0  0  2  0  0  0  0  0  0  0  0  0
   10.8177   43.0737   67.6383 C   0  0  0  0  0  0  0  0  0  0  0  0
   11.4203   41.5499   69.5530 C   0  0  0  0  0  0  0  0  0  0  0  0
   11.7876   42.5225   68.6165 N   0  0  0  0  0  0  0  0  0  0  0  0
    9.1096   44.0471   69.2024 C   0  0  0  0  0  0  0  0  0  0  0  0
    7.6814   44.0619   69.5418 N   0  0  0  0  0  0  0  0  0  0  0  0
    6.2998   43.0127   73.2946 C   0  0  0  0  0  0  0  0  0  0  0  0
    6.4924   44.3494   72.9542 C   0  0  0  0  0  0  0  0  0  0  0  0
    6.9775   44.6948   71.6944 C   0  0  0  0  0  0  0  0  0  0  0  0
    7.2325   43.7099   70.7461 C   0  0  0  0  0  0  0  0  0  0  0  0
    7.0323   42.3751   71.0813 C   0  0  0  0  0  0  0  0  0  0  0  0
    6.5808   42.0263   72.3534 C   0  0  0  0  0  0  0  0  0  0  0  0
    5.5671   43.2385   77.7033 C   0  0  0  0  0  0  0  0  0  0  0  0
  1  3  1  0  0  0  0
  2  1  1  6  0  0  0
  2  6  1  0  0  0  0
  2 34  1  0  0  0  0
  3  4  2  0  0  0  0
  3 28  1  0  0  0  0
  5 13  1  0  0  0  0
  6  7  1  0  0  0  0
  7  8  1  0  0  0  0
  8  9  1  0  0  0  0
  8 10  1  0  0  0  0
 11 13  2  0  0  0  0
 11 24  1  0  0  0  0
 12 34  1  0  0  0  0
 13 15  1  0  0  0  0
 14 34  1  0  0  0  0
 15 16  1  0  0  0  0
 16 17  1  0  0  0  0
 16 18  2  0  0  0  0
 17 20  1  0  0  0  0
 17 24  2  0  0  0  0
 19 21  1  0  0  0  0
 19 20  1  0  0  0  0
 20 22  1  0  0  0  0
 22 23  1  0  0  0  0
 22 26  1  1  0  0  0
 23 25  1  0  0  0  0
 24 25  1  0  0  0  0
 26 27  1  0  0  0  0
 27 31  1  0  0  0  0
 28 29  2  0  0  0  0
 28 33  1  0  0  0  0
 29 30  1  0  0  0  0
 30 31  2  0  0  0  0
 31 32  1  0  0  0  0
 32 33  2  0  0  0  0
M  END
>  <CHROM.1>
-179.23055516,-172.74075836,149.47918988,178.04596182,117.16154204,172.95803303
-67.95062751,113.28235724,96.30657934,-82.90696941,8.38608117,42.13466353
72.99923648,1.88097406,-0.46728092,1.63650089

>  <Name>
ligand

>  <RI>
0

>  <Rbt.Current_Directory>
/home/itssahil/PROJECTS/Mol_Feturizer/New_Systems/rnas/3SUH

>  <Rbt.Executable>
rbdock ($Id: //depot/dev/client3/rdock/2013.1/src/exe/rbdock.cxx#4 $)

>  <Rbt.Library>
libRbt.so (2013.1, Build901 2013/11/27)

>  <Rbt.Parameter_File>
/export/apps/rDock/src/rDock_2013.1_src/data/scripts/dock_solv.prm

>  <Rbt.Receptor>
prm/pocket_docking_4.prm

>  <SCORE>
-10.2272

>  <SCORE.INTER>
-5.47792

>  <SCORE.INTER.CONST>
1

>  <SCORE.INTER.POLAR>
0

>  <SCORE.INTER.ROT>
10

>  <SCORE.INTER.SOLV>
15.2394

>  <SCORE.INTER.VDW>
-18.9984

>  <SCORE.INTER.norm>
-0.161115

>  <SCORE.INTRA>
-4.74927

>  <SCORE.INTRA.DIHEDRAL>
-4.50108

>  <SCORE.INTRA.DIHEDRAL.0>
12.2703

>  <SCORE.INTRA.POLAR>
0

>  <SCORE.INTRA.POLAR.0>
0

>  <SCORE.INTRA.REPUL>
0

>  <SCORE.INTRA.REPUL.0>
0

>  <SCORE.INTRA.SOLV>
0.00836955

>  <SCORE.INTRA.SOLV.lig_0>
-64.3214

>  <SCORE.INTRA.VDW>
-2.50291

>  <SCORE.INTRA.VDW.0>
-1.67301

>  <SCORE.INTRA.norm>
-0.139684

>  <SCORE.RESTR>
0

>  <SCORE.RESTR.CAVITY>
0

>  <SCORE.RESTR.norm>
0

>  <SCORE.SYSTEM>
0

>  <SCORE.SYSTEM.CONST>
0

>  <SCORE.SYSTEM.DIHEDRAL>
0

>  <SCORE.SYSTEM.SOLV>
0

>  <SCORE.SYSTEM.norm>
0

>  <SCORE.heavy>
34

>  <SCORE.norm>
-0.3008

>  <RMSD>
3.550

$$$$
ligand
 OpenBabel11021811483D
libRbt.so/2013.1/901 2013/11/27
 34 36  0  0  0  0  0  0  0  0999 V2000
    5.1791   43.5398   74.2817 N   0  0  0  0  0  0  0  0  0  0  0  0
    4.2845   44.1389   75.2993 C   0  0  1  0  0  0  0  0  0  0  0  0
    5.5898   42.2651   74.3061 C   0  0  0  0  0  0  0  0  0  0  0  0
    5.2724   41.4491   75.1759 O   0  0  0  0  0  0  0  0  0  0  0  0
   13.1782   46.5328   70.5068 N   0  0  0  0  0  0  0  0  0  0  0  0
    4.7640   43.7491   76.7076 C   0  0  0  0  0  0  0  0  0  0  0  0
    3.6612   43.9503   77.7558 C   0  0  0  0  0  0  0  0  0  0  0  0
    3.9390   43.1246   79.0212 C   0  0  0  0  0  0  0  0  0  0  0  0
    4.2577   43.7545   80.0569 O   0  0  0  0  0  0  0  0  0  0  0  0
    3.8241   41.8810   78.9255 O   0  0  0  0  0  0  0  0  0  0  0  0
   12.2049   45.0458   69.0236 N   0  0  0  0  0  0  0  0  0  0  0  0
    3.1779   46.2460   75.5882 O   0  0  0  0  0  0  0  0  0  0  0  0
   12.7962   45.2944   70.2051 C   0  0  0  0  0  0  0  0  0  0  0  0
    5.2128   46.2446   74.6673 O   0  0  0  0  0  0  0  0  0  0  0  0
   13.0158   44.2624   71.1262 N   0  0  0  0  0  0  0  0  0  0  0  0
   12.6086   42.9752   70.8025 C   0  0  0  0  0  0  0  0  0  0  0  0
   11.9720   42.7584   69.5875 C   0  0  0  0  0  0  0  0  0  0  0  0
   12.7811   42.0553   71.5982 O   0  0  0  0  0  0  0  0  0  0  0  0
   12.3584   40.4448   69.5693 C   0  0  0  0  0  0  0  0  0  0  0  0
   11.6088   41.4759   69.1915 N   0  0  0  0  0  0  0  0  0  0  0  0
   11.9179   39.6082   70.3544 O   0  0  0  0  0  0  0  0  0  0  0  0
   10.5340   41.2983   68.2091 C   0  0  2  0  0  0  0  0  0  0  0  0
   10.8021   42.2186   67.0155 C   0  0  0  0  0  0  0  0  0  0  0  0
   11.8051   43.8081   68.6945 C   0  0  0  0  0  0  0  0  0  0  0  0
   11.2033   43.5787   67.4523 N   0  0  0  0  0  0  0  0  0  0  0  0
    9.1745   41.6269   68.8355 C   0  0  0  0  0  0  0  0  0  0  0  0
    8.9318   40.7422   69.9817 N   0  0  0  0  0  0  0  0  0  0  0  0
    6.4736   41.8532   73.1149 C   0  0  0  0  0  0  0  0  0  0  0  0
    7.2682   42.7941   72.4644 C   0  0  0  0  0  0  0  0  0  0  0  0
    8.1095   42.4091   71.4224 C   0  0  0  0  0  0  0  0  0  0  0  0
    8.1317   41.0873   70.9900 C   0  0  0  0  0  0  0  0  0  0  0  0
    7.3323   40.1481   71.6326 C   0  0  0  0  0  0  0  0  0  0  0  0
    6.5168   40.5256   72.6985 C   0  0  0  0  0  0  0  0  0  0  0  0
    4.2169   45.6752   75.1768 C   0  0  0  0  0  0  0  0  0  0  0  0
  1  3  1  0  0  0  0
  2  1  1  6  0  0  0
  2  6  1  0  0  0  0
  2 34  1  0  0  0  0
  3  4  2  0  0  0  0
  3 28  1  0  0  0  0
  5 13  1  0  0  0  0
  6  7  1  0  0  0  0
  7  8  1  0  0  0  0
  8  9  1  0  0  0  0
  8 10  1  0  0  0  0
 11 13  2  0  0  0  0
 11 24  1  0  0  0  0
 12 34  1  0  0  0  0
 13 15  1  0  0  0  0
 14 34  1  0  0  0  0
 15 16  1  0  0  0  0
 16 17  1  0  0  0  0
 16 18  2  0  0  0  0
 17 20  1  0  0  0  0
 17 24  2  0  0  0  0
 19 21  1  0  0  0  0
 19 20  1  0  0  0  0
 20 22  1  0  0  0  0
 22 23  1  0  0  0  0
 22 26  1  1  0  0  0
 23 25  1  0  0  0  0
 24 25  1  0  0  0  0
 26 27  1  0  0  0  0
 27 31  1  0  0  0  0
 28 29  2  0  0  0  0
 28 33  1  0  0  0  0
 29 30  1  0  0  0  0
 30 31  2  0  0  0  0
 31 32  1  0  0  0  0
 32 33  2  0  0  0  0
M  END
>  <CHROM.1>
46.07512064,-161.87512252,153.54129921,159.83366711,109.89807958,112.86522715
-59.57260616,154.33951626,-36.85524891,28.47757091,8.31613100,42.91641677
72.48681173,-2.79738208,-0.73379755,-2.78659393

>  <Name>
ligand

>  <RI>
0

>  <Rbt.Current_Directory>
/home/itssahil/PROJECTS/Mol_Feturizer/New_Systems/rnas/3SUH

>  <Rbt.Executable>
rbdock ($Id: //depot/dev/client3/rdock/2013.1/src/exe/rbdock.cxx#4 $)

>  <Rbt.Library>
libRbt.so (2013.1, Build901 2013/11/27)

>  <Rbt.Parameter_File>
/export/apps/rDock/src/rDock_2013.1_src/data/scripts/dock_solv.prm

>  <Rbt.Receptor>
prm/pocket_docking_8.prm

>  <SCORE>
-8.78236

>  <SCORE.INTER>
-7.26758

>  <SCORE.INTER.CONST>
1

>  <SCORE.INTER.POLAR>
0

>  <SCORE.INTER.ROT>
10

>  <SCORE.INTER.SOLV>
19.8145

>  <SCORE.INTER.VDW>
-21.7166

>  <SCORE.INTER.norm>
-0.213752

>  <SCORE.INTRA>
-1.51478

>  <SCORE.INTRA.DIHEDRAL>
-2.41615

>  <SCORE.INTRA.DIHEDRAL.0>
12.2703

>  <SCORE.INTRA.POLAR>
0

>  <SCORE.INTRA.POLAR.0>
0

>  <SCORE.INTRA.REPUL>
0

>  <SCORE.INTRA.REPUL.0>
0

>  <SCORE.INTRA.SOLV>
0.169186

>  <SCORE.INTRA.SOLV.lig_0>
-64.3214

>  <SCORE.INTRA.VDW>
-0.391293

>  <SCORE.INTRA.VDW.0>
-1.67301

>  <SCORE.INTRA.norm>
-0.0445522

>  <SCORE.RESTR>
0

>  <SCORE.RESTR.CAVITY>
0

>  <SCORE.RESTR.norm>
0

>  <SCORE.SYSTEM>
0

>  <SCORE.SYSTEM.CONST>
0

>  <SCORE.SYSTEM.DIHEDRAL>
0

>  <SCORE.SYSTEM.SOLV>
0

>  <SCORE.SYSTEM.norm>
0

>  <SCORE.heavy>
34

>  <SCORE.norm>
-0.258305

>  <RMSD>
3.561

$$$$
ligand
 OpenBabel11021811483D
libRbt.so/2013.1/901 2013/11/27
 34 36  0  0  0  0  0  0  0  0999 V2000
    5.4065   40.8254   76.3076 N   0  0  0  0  0  0  0  0  0  0  0  0
    4.8563   40.5240   77.6497 C   0  0  1  0  0  0  0  0  0  0  0  0
    5.0510   41.8900   75.5767 C   0  0  0  0  0  0  0  0  0  0  0  0
    4.2272   42.7360   75.9358 O   0  0  0  0  0  0  0  0  0  0  0  0
   12.6642   40.1925   72.0274 N   0  0  0  0  0  0  0  0  0  0  0  0
    3.4859   39.8405   77.5086 C   0  0  0  0  0  0  0  0  0  0  0  0
    2.7988   39.6658   78.8697 C   0  0  0  0  0  0  0  0  0  0  0  0
    2.5057   41.0248   79.5234 C   0  0  0  0  0  0  0  0  0  0  0  0
    1.3875   41.5418   79.2918 O   0  0  0  0  0  0  0  0  0  0  0  0
    3.4057   41.5160   80.2428 O   0  0  0  0  0  0  0  0  0  0  0  0
   11.4506   42.0673   71.4185 N   0  0  0  0  0  0  0  0  0  0  0  0
    5.9438   39.8986   79.6928 O   0  0  0  0  0  0  0  0  0  0  0  0
   11.9019   40.8312   71.1434 C   0  0  0  0  0  0  0  0  0  0  0  0
    6.3722   38.6930   77.8620 O   0  0  0  0  0  0  0  0  0  0  0  0
   11.5784   40.2045   69.9333 N   0  0  0  0  0  0  0  0  0  0  0  0
   10.7783   40.8785   69.0206 C   0  0  0  0  0  0  0  0  0  0  0  0
   10.3024   42.1410   69.3495 C   0  0  0  0  0  0  0  0  0  0  0  0
   10.4725   40.3457   67.9568 O   0  0  0  0  0  0  0  0  0  0  0  0
    9.8016   42.7479   67.1397 C   0  0  0  0  0  0  0  0  0  0  0  0
    9.5556   42.8810   68.4395 N   0  0  0  0  0  0  0  0  0  0  0  0
   10.7742   43.2993   66.6295 O   0  0  0  0  0  0  0  0  0  0  0  0
    8.6569   43.9336   68.9261 C   0  0  2  0  0  0  0  0  0  0  0  0
    9.4278   44.8250   69.9031 C   0  0  0  0  0  0  0  0  0  0  0  0
   10.6764   42.7331   70.5482 C   0  0  0  0  0  0  0  0  0  0  0  0
   10.2320   44.0232   70.8580 N   0  0  0  0  0  0  0  0  0  0  0  0
    7.4369   43.3189   69.6207 C   0  0  0  0  0  0  0  0  0  0  0  0
    7.8799   42.4119   70.6866 N   0  0  0  0  0  0  0  0  0  0  0  0
    5.7944   42.0243   74.2354 C   0  0  0  0  0  0  0  0  0  0  0  0
    5.9868   43.2757   73.6550 C   0  0  0  0  0  0  0  0  0  0  0  0
    6.7080   43.4012   72.4694 C   0  0  0  0  0  0  0  0  0  0  0  0
    7.2060   42.2721   71.8278 C   0  0  0  0  0  0  0  0  0  0  0  0
    7.0072   41.0208   72.4013 C   0  0  0  0  0  0  0  0  0  0  0  0
    6.3164   40.8977   73.6060 C   0  0  0  0  0  0  0  0  0  0  0  0
    5.8040   39.6294   78.4752 C   0  0  0  0  0  0  0  0  0  0  0  0
  1  3  1  0  0  0  0
  2  1  1  6  0  0  0
  2  6  1  0  0  0  0
  2 34  1  0  0  0  0
  3  4  2  0  0  0  0
  3 28  1  0  0  0  0
  5 13  1  0  0  0  0
  6  7  1  0  0  0  0
  7  8  1  0  0  0  0
  8  9  1  0  0  0  0
  8 10  1  0  0  0  0
 11 13  2  0  0  0  0
 11 24  1  0  0  0  0
 12 34  1  0  0  0  0
 13 15  1  0  0  0  0
 14 34  1  0  0  0  0
 15 16  1  0  0  0  0
 16 17  1  0  0  0  0
 16 18  2  0  0  0  0
 17 20  1  0  0  0  0
 17 24  2  0  0  0  0
 19 21  1  0  0  0  0
 19 20  1  0  0  0  0
 20 22  1  0  0  0  0
 22 23  1  0  0  0  0
 22 26  1  1  0  0  0
 23 25  1  0  0  0  0
 24 25  1  0  0  0  0
 26 27  1  0  0  0  0
 27 31  1  0  0  0  0
 28 29  2  0  0  0  0
 28 33  1  0  0  0  0
 29 30  1  0  0  0  0
 30 31  2  0  0  0  0
 31 32  1  0  0  0  0
 32 33  2  0  0  0  0
M  END
>  <CHROM.1>
81.02145742,-172.96134376,139.03456404,62.85325518,91.60622422,-77.58461805
55.05536372,145.10143929,-43.21848096,-152.29307076,7.43179793,41.67275805
73.26200944,-2.26547099,0.51068114,-1.00736062

>  <Name>
ligand

>  <RI>
0

>  <Rbt.Current_Directory>
/home/itssahil/PROJECTS/Mol_Feturizer/New_Systems/rnas/3SUH

>  <Rbt.Executable>
rbdock ($Id: //depot/dev/client3/rdock/2013.1/src/exe/rbdock.cxx#4 $)

>  <Rbt.Library>
libRbt.so (2013.1, Build901 2013/11/27)

>  <Rbt.Parameter_File>
/export/apps/rDock/src/rDock_2013.1_src/data/scripts/dock_solv.prm

>  <Rbt.Receptor>
prm/pocket_docking_3.prm

>  <SCORE>
-7.27519

>  <SCORE.INTER>
-4.05645

>  <SCORE.INTER.CONST>
1

>  <SCORE.INTER.POLAR>
0

>  <SCORE.INTER.ROT>
10

>  <SCORE.INTER.SOLV>
12.323

>  <SCORE.INTER.VDW>
-17.0786

>  <SCORE.INTER.norm>
-0.119307

>  <SCORE.INTRA>
-3.21874

>  <SCORE.INTRA.DIHEDRAL>
-4.65728

>  <SCORE.INTRA.DIHEDRAL.0>
12.2703

>  <SCORE.INTRA.POLAR>
0

>  <SCORE.INTRA.POLAR.0>
0

>  <SCORE.INTRA.REPUL>
0

>  <SCORE.INTRA.REPUL.0>
0

>  <SCORE.INTRA.SOLV>
1.75974

>  <SCORE.INTRA.SOLV.lig_0>
-64.3214

>  <SCORE.INTRA.VDW>
-1.76997

>  <SCORE.INTRA.VDW.0>
-1.67301

>  <SCORE.INTRA.norm>
-0.0946688

>  <SCORE.RESTR>
0

>  <SCORE.RESTR.CAVITY>
0

>  <SCORE.RESTR.norm>
0

>  <SCORE.SYSTEM>
0

>  <SCORE.SYSTEM.CONST>
0

>  <SCORE.SYSTEM.DIHEDRAL>
0

>  <SCORE.SYSTEM.SOLV>
0

>  <SCORE.SYSTEM.norm>
0

>  <SCORE.heavy>
34

>  <SCORE.norm>
-0.213976

>  <RMSD>
3.565

$$$$
ligand
 OpenBabel11021811483D
libRbt.so/2013.1/901 2013/11/27
 34 36  0  0  0  0  0  0  0  0999 V2000
    5.7625   42.5972   74.1314 N   0  0  0  0  0  0  0  0  0  0  0  0
    5.2570   42.8253   75.5052 C   0  0  1  0  0  0  0  0  0  0  0  0
    6.1265   43.5797   73.2970 C   0  0  0  0  0  0  0  0  0  0  0  0
    6.0807   44.7811   73.5759 O   0  0  0  0  0  0  0  0  0  0  0  0
   12.5150   46.8160   70.8928 N   0  0  0  0  0  0  0  0  0  0  0  0
    3.7860   43.2705   75.4509 C   0  0  0  0  0  0  0  0  0  0  0  0
    3.3058   43.8010   76.8086 C   0  0  0  0  0  0  0  0  0  0  0  0
    3.1855   42.6669   77.8380 C   0  0  0  0  0  0  0  0  0  0  0  0
    2.4126   41.7205   77.5589 O   0  0  0  0  0  0  0  0  0  0  0  0
    3.8716   42.7701   78.8808 O   0  0  0  0  0  0  0  0  0  0  0  0
   12.0972   45.4202   69.0941 N   0  0  0  0  0  0  0  0  0  0  0  0
    4.8235   40.5181   75.9916 O   0  0  0  0  0  0  0  0  0  0  0  0
   12.1021   45.6429   70.4199 C   0  0  0  0  0  0  0  0  0  0  0  0
    6.0568   41.6848   77.4430 O   0  0  0  0  0  0  0  0  0  0  0  0
   11.6762   44.6518   71.3132 N   0  0  0  0  0  0  0  0  0  0  0  0
   11.2429   43.4333   70.8080 C   0  0  0  0  0  0  0  0  0  0  0  0
   11.2202   43.2474   69.4320 C   0  0  0  0  0  0  0  0  0  0  0  0
   10.8549   42.5521   71.5709 O   0  0  0  0  0  0  0  0  0  0  0  0
   11.1464   40.9057   69.5477 C   0  0  0  0  0  0  0  0  0  0  0  0
   10.8596   42.0214   68.8838 N   0  0  0  0  0  0  0  0  0  0  0  0
   12.2699   40.7283   70.0131 O   0  0  0  0  0  0  0  0  0  0  0  0
   10.3560   41.9634   67.5072 C   0  0  2  0  0  0  0  0  0  0  0  0
   11.3113   42.7443   66.6011 C   0  0  0  0  0  0  0  0  0  0  0  0
   11.6818   44.2488   68.5886 C   0  0  0  0  0  0  0  0  0  0  0  0
   11.6997   44.0428   67.2047 N   0  0  0  0  0  0  0  0  0  0  0  0
    8.9457   42.5576   67.4262 C   0  0  0  0  0  0  0  0  0  0  0  0
    8.0307   41.7753   68.2665 N   0  0  0  0  0  0  0  0  0  0  0  0
    6.6698   43.0995   71.9391 C   0  0  0  0  0  0  0  0  0  0  0  0
    6.9899   41.7588   71.7389 C   0  0  0  0  0  0  0  0  0  0  0  0
    7.4287   41.3157   70.4928 C   0  0  0  0  0  0  0  0  0  0  0  0
    7.5952   42.2164   69.4461 C   0  0  0  0  0  0  0  0  0  0  0  0
    7.2846   43.5571   69.6468 C   0  0  0  0  0  0  0  0  0  0  0  0
    6.8116   43.9952   70.8830 C   0  0  0  0  0  0  0  0  0  0  0  0
    5.3898   41.5660   76.3863 C   0  0  0  0  0  0  0  0  0  0  0  0
  1  3  1  0  0  0  0
  2  1  1  6  0  0  0
  2  6  1  0  0  0  0
  2 34  1  0  0  0  0
  3  4  2  0  0  0  0
  3 28  1  0  0  0  0
  5 13  1  0  0  0  0
  6  7  1  0  0  0  0
  7  8  1  0  0  0  0
  8  9  1  0  0  0  0
  8 10  1  0  0  0  0
 11 13  2  0  0  0  0
 11 24  1  0  0  0  0
 12 34  1  0  0  0  0
 13 15  1  0  0  0  0
 14 34  1  0  0  0  0
 15 16  1  0  0  0  0
 16 17  1  0  0  0  0
 16 18  2  0  0  0  0
 17 20  1  0  0  0  0
 17 24  2  0  0  0  0
 19 21  1  0  0  0  0
 19 20  1  0  0  0  0
 20 22  1  0  0  0  0
 22 23  1  0  0  0  0
 22 26  1  1  0  0  0
 23 25  1  0  0  0  0
 24 25  1  0  0  0  0
 26 27  1  0  0  0  0
 27 31  1  0  0  0  0
 28 29  2  0  0  0  0
 28 33  1  0  0  0  0
 29 30  1  0  0  0  0
 30 31  2  0  0  0  0
 31 32  1  0  0  0  0
 32 33  2  0  0  0  0
M  END
>  <CHROM.1>
77.96091342,-167.98197564,-57.64188051,-70.04599022,-58.74862626,-47.73095409
-61.56773624,104.73718385,-143.00168737,-12.02034153,8.10727975,42.92366996
72.01106031,2.49324130,0.59500344,1.04197556

>  <Name>
ligand

>  <RI>
0

>  <Rbt.Current_Directory>
/home/itssahil/PROJECTS/Mol_Feturizer/New_Systems/rnas/3SUH

>  <Rbt.Executable>
rbdock ($Id: //depot/dev/client3/rdock/2013.1/src/exe/rbdock.cxx#4 $)

>  <Rbt.Library>
libRbt.so (2013.1, Build901 2013/11/27)

>  <Rbt.Parameter_File>
/export/apps/rDock/src/rDock_2013.1_src/data/scripts/dock_solv.prm

>  <Rbt.Receptor>
prm/pocket_docking_3.prm

>  <SCORE>
-15.3212

>  <SCORE.INTER>
-11.484

>  <SCORE.INTER.CONST>
1

>  <SCORE.INTER.POLAR>
0

>  <SCORE.INTER.ROT>
10

>  <SCORE.INTER.SOLV>
18.4588

>  <SCORE.INTER.VDW>
-24.0756

>  <SCORE.INTER.norm>
-0.337765

>  <SCORE.INTRA>
-4.3529

>  <SCORE.INTRA.DIHEDRAL>
-3.48026

>  <SCORE.INTRA.DIHEDRAL.0>
12.2703

>  <SCORE.INTRA.POLAR>
0

>  <SCORE.INTRA.POLAR.0>
0

>  <SCORE.INTRA.REPUL>
0

>  <SCORE.INTRA.REPUL.0>
0

>  <SCORE.INTRA.SOLV>
-0.472955

>  <SCORE.INTRA.SOLV.lig_0>
-64.3214

>  <SCORE.INTRA.VDW>
-2.3763

>  <SCORE.INTRA.VDW.0>
-1.67301

>  <SCORE.INTRA.norm>
-0.128027

>  <SCORE.RESTR>
0.515663

>  <SCORE.RESTR.CAVITY>
0.515663

>  <SCORE.RESTR.norm>
0.0151666

>  <SCORE.SYSTEM>
0

>  <SCORE.SYSTEM.CONST>
0

>  <SCORE.SYSTEM.DIHEDRAL>
0

>  <SCORE.SYSTEM.SOLV>
0

>  <SCORE.SYSTEM.norm>
0

>  <SCORE.heavy>
34

>  <SCORE.norm>
-0.450625

>  <RMSD>
3.566

$$$$
ligand
 OpenBabel11021811483D
libRbt.so/2013.1/901 2013/11/27
 34 36  0  0  0  0  0  0  0  0999 V2000
    4.9362   39.9460   75.7949 N   0  0  0  0  0  0  0  0  0  0  0  0
    4.0717   39.6030   76.9481 C   0  0  1  0  0  0  0  0  0  0  0  0
    5.3613   39.0553   74.8894 C   0  0  0  0  0  0  0  0  0  0  0  0
    5.0837   37.8530   74.9136 O   0  0  0  0  0  0  0  0  0  0  0  0
   12.3463   43.8333   73.3074 N   0  0  0  0  0  0  0  0  0  0  0  0
    4.9433   39.2166   78.1548 C   0  0  0  0  0  0  0  0  0  0  0  0
    4.1111   38.5635   79.2667 C   0  0  0  0  0  0  0  0  0  0  0  0
    3.2058   39.5922   79.9612 C   0  0  0  0  0  0  0  0  0  0  0  0
    3.7641   40.5855   80.4833 O   0  0  0  0  0  0  0  0  0  0  0  0
    1.9743   39.3637   79.9525 O   0  0  0  0  0  0  0  0  0  0  0  0
   10.5617   43.9449   71.8373 N   0  0  0  0  0  0  0  0  0  0  0  0
    1.9040   40.5207   77.4030 O   0  0  0  0  0  0  0  0  0  0  0  0
   11.7782   43.4721   72.1596 C   0  0  0  0  0  0  0  0  0  0  0  0
    3.6716   41.8790   77.5440 O   0  0  0  0  0  0  0  0  0  0  0  0
   12.4578   42.6005   71.2993 N   0  0  0  0  0  0  0  0  0  0  0  0
   11.8531   42.2266   70.1068 C   0  0  0  0  0  0  0  0  0  0  0  0
   10.5825   42.7076   69.8191 C   0  0  0  0  0  0  0  0  0  0  0  0
   12.4249   41.4552   69.3406 O   0  0  0  0  0  0  0  0  0  0  0  0
   10.7168   42.2647   67.5195 C   0  0  0  0  0  0  0  0  0  0  0  0
    9.9669   42.4155   68.6071 N   0  0  0  0  0  0  0  0  0  0  0  0
   11.0196   43.2367   66.8311 O   0  0  0  0  0  0  0  0  0  0  0  0
    8.5047   42.4759   68.5041 C   0  0  2  0  0  0  0  0  0  0  0  0
    8.0253   43.8058   69.0914 C   0  0  0  0  0  0  0  0  0  0  0  0
    9.9626   43.5941   70.6893 C   0  0  0  0  0  0  0  0  0  0  0  0
    8.7011   44.1122   70.3763 N   0  0  0  0  0  0  0  0  0  0  0  0
    7.8649   41.3041   69.2564 C   0  0  0  0  0  0  0  0  0  0  0  0
    8.3937   41.2473   70.6247 N   0  0  0  0  0  0  0  0  0  0  0  0
    6.2069   39.6527   73.7501 C   0  0  0  0  0  0  0  0  0  0  0  0
    6.8070   38.8244   72.8048 C   0  0  0  0  0  0  0  0  0  0  0  0
    7.5256   39.3694   71.7426 C   0  0  0  0  0  0  0  0  0  0  0  0
    7.6899   40.7466   71.6394 C   0  0  0  0  0  0  0  0  0  0  0  0
    7.0988   41.5748   72.5876 C   0  0  0  0  0  0  0  0  0  0  0  0
    6.3497   41.0322   73.6307 C   0  0  0  0  0  0  0  0  0  0  0  0
    3.1328   40.7652   77.3323 C   0  0  0  0  0  0  0  0  0  0  0  0
  1  3  1  0  0  0  0
  2  1  1  6  0  0  0
  2  6  1  0  0  0  0
  2 34  1  0  0  0  0
  3  4  2  0  0  0  0
  3 28  1  0  0  0  0
  5 13  1  0  0  0  0
  6  7  1  0  0  0  0
  7  8  1  0  0  0  0
  8  9  1  0  0  0  0
  8 10  1  0  0  0  0
 11 13  2  0  0  0  0
 11 24  1  0  0  0  0
 12 34  1  0  0  0  0
 13 15  1  0  0  0  0
 14 34  1  0  0  0  0
 15 16  1  0  0  0  0
 16 17  1  0  0  0  0
 16 18  2  0  0  0  0
 17 20  1  0  0  0  0
 17 24  2  0  0  0  0
 19 21  1  0  0  0  0
 19 20  1  0  0  0  0
 20 22  1  0  0  0  0
 22 23  1  0  0  0  0
 22 26  1  1  0  0  0
 23 25  1  0  0  0  0
 24 25  1  0  0  0  0
 26 27  1  0  0  0  0
 27 31  1  0  0  0  0
 28 29  2  0  0  0  0
 28 33  1  0  0  0  0
 29 30  1  0  0  0  0
 30 31  2  0  0  0  0
 31 32  1  0  0  0  0
 32 33  2  0  0  0  0
M  END
>  <CHROM.1>
89.63721071,-167.53549763,126.33313174,-71.09761333,-57.77089724,-87.40586658
51.92178702,151.83563214,74.46336514,174.51989330,7.38964764,41.26023113
73.24553581,2.35261430,0.53894299,1.42556454

>  <Name>
ligand

>  <RI>
0

>  <Rbt.Current_Directory>
/home/itssahil/PROJECTS/Mol_Feturizer/New_Systems/rnas/3SUH

>  <Rbt.Executable>
rbdock ($Id: //depot/dev/client3/rdock/2013.1/src/exe/rbdock.cxx#4 $)

>  <Rbt.Library>
libRbt.so (2013.1, Build901 2013/11/27)

>  <Rbt.Parameter_File>
/export/apps/rDock/src/rDock_2013.1_src/data/scripts/dock_solv.prm

>  <Rbt.Receptor>
prm/pocket_docking_4.prm

>  <SCORE>
-7.47445

>  <SCORE.INTER>
-4.44359

>  <SCORE.INTER.CONST>
1

>  <SCORE.INTER.POLAR>
0

>  <SCORE.INTER.ROT>
10

>  <SCORE.INTER.SOLV>
9.05662

>  <SCORE.INTER.VDW>
-16.2479

>  <SCORE.INTER.norm>
-0.130694

>  <SCORE.INTRA>
-3.03085

>  <SCORE.INTRA.DIHEDRAL>
-3.74028

>  <SCORE.INTRA.DIHEDRAL.0>
12.2703

>  <SCORE.INTRA.POLAR>
0

>  <SCORE.INTRA.POLAR.0>
0

>  <SCORE.INTRA.REPUL>
0

>  <SCORE.INTRA.REPUL.0>
0

>  <SCORE.INTRA.SOLV>
1.75916

>  <SCORE.INTRA.SOLV.lig_0>
-64.3214

>  <SCORE.INTRA.VDW>
-2.04029

>  <SCORE.INTRA.VDW.0>
-1.67301

>  <SCORE.INTRA.norm>
-0.0891428

>  <SCORE.RESTR>
0

>  <SCORE.RESTR.CAVITY>
0

>  <SCORE.RESTR.norm>
0

>  <SCORE.SYSTEM>
0

>  <SCORE.SYSTEM.CONST>
0

>  <SCORE.SYSTEM.DIHEDRAL>
0

>  <SCORE.SYSTEM.SOLV>
0

>  <SCORE.SYSTEM.norm>
0

>  <SCORE.heavy>
34

>  <SCORE.norm>
-0.219837

>  <RMSD>
3.581

$$$$
ligand
 OpenBabel11021811483D
libRbt.so/2013.1/901 2013/11/27
 34 36  0  0  0  0  0  0  0  0999 V2000
    4.9327   40.6877   76.5487 N   0  0  0  0  0  0  0  0  0  0  0  0
    4.2510   39.9966   77.6678 C   0  0  1  0  0  0  0  0  0  0  0  0
    5.3232   40.0783   75.4217 C   0  0  0  0  0  0  0  0  0  0  0  0
    5.1617   38.8770   75.1893 O   0  0  0  0  0  0  0  0  0  0  0  0
   12.0034   40.9512   73.5025 N   0  0  0  0  0  0  0  0  0  0  0  0
    4.4838   40.7706   78.9762 C   0  0  0  0  0  0  0  0  0  0  0  0
    5.9663   40.7763   79.3731 C   0  0  0  0  0  0  0  0  0  0  0  0
    6.4742   39.3526   79.6476 C   0  0  0  0  0  0  0  0  0  0  0  0
    6.0583   38.7870   80.6859 O   0  0  0  0  0  0  0  0  0  0  0  0
    7.2657   38.8599   78.8112 O   0  0  0  0  0  0  0  0  0  0  0  0
   11.0606   42.4060   71.9686 N   0  0  0  0  0  0  0  0  0  0  0  0
    2.1599   40.7484   76.7680 O   0  0  0  0  0  0  0  0  0  0  0  0
   11.1705   41.1711   72.4884 C   0  0  0  0  0  0  0  0  0  0  0  0
    2.1901   38.8124   77.8815 O   0  0  0  0  0  0  0  0  0  0  0  0
   10.4161   40.1089   71.9743 N   0  0  0  0  0  0  0  0  0  0  0  0
    9.5466   40.3513   70.9194 C   0  0  0  0  0  0  0  0  0  0  0  0
    9.4333   41.6447   70.4269 C   0  0  0  0  0  0  0  0  0  0  0  0
    8.8668   39.4379   70.4581 O   0  0  0  0  0  0  0  0  0  0  0  0
    8.4823   40.9977   68.3825 C   0  0  0  0  0  0  0  0  0  0  0  0
    8.6276   41.9214   69.3279 N   0  0  0  0  0  0  0  0  0  0  0  0
    7.4277   40.9049   67.7584 O   0  0  0  0  0  0  0  0  0  0  0  0
    8.1174   43.2822   69.1279 C   0  0  2  0  0  0  0  0  0  0  0  0
    9.2823   44.2673   69.2545 C   0  0  0  0  0  0  0  0  0  0  0  0
   10.2255   42.6581   70.9492 C   0  0  0  0  0  0  0  0  0  0  0  0
   10.1420   43.9514   70.4218 N   0  0  0  0  0  0  0  0  0  0  0  0
    7.0350   43.6070   70.1630 C   0  0  0  0  0  0  0  0  0  0  0  0
    7.5980   43.5064   71.5151 N   0  0  0  0  0  0  0  0  0  0  0  0
    5.9646   41.0103   74.3778 C   0  0  0  0  0  0  0  0  0  0  0  0
    6.5464   40.4879   73.2252 C   0  0  0  0  0  0  0  0  0  0  0  0
    7.0769   41.3359   72.2550 C   0  0  0  0  0  0  0  0  0  0  0  0
    7.0718   42.7133   72.4478 C   0  0  0  0  0  0  0  0  0  0  0  0
    6.4992   43.2362   73.6023 C   0  0  0  0  0  0  0  0  0  0  0  0
    5.9362   42.3904   74.5570 C   0  0  0  0  0  0  0  0  0  0  0  0
    2.7372   39.8412   77.4148 C   0  0  0  0  0  0  0  0  0  0  0  0
  1  3  1  0  0  0  0
  2  1  1  6  0  0  0
  2  6  1  0  0  0  0
  2 34  1  0  0  0  0
  3  4  2  0  0  0  0
  3 28  1  0  0  0  0
  5 13  1  0  0  0  0
  6  7  1  0  0  0  0
  7  8  1  0  0  0  0
  8  9  1  0  0  0  0
  8 10  1  0  0  0  0
 11 13  2  0  0  0  0
 11 24  1  0  0  0  0
 12 34  1  0  0  0  0
 13 15  1  0  0  0  0
 14 34  1  0  0  0  0
 15 16  1  0  0  0  0
 16 17  1  0  0  0  0
 16 18  2  0  0  0  0
 17 20  1  0  0  0  0
 17 24  2  0  0  0  0
 19 21  1  0  0  0  0
 19 20  1  0  0  0  0
 20 22  1  0  0  0  0
 22 23  1  0  0  0  0
 22 26  1  1  0  0  0
 23 25  1  0  0  0  0
 24 25  1  0  0  0  0
 26 27  1  0  0  0  0
 27 31  1  0  0  0  0
 28 29  2  0  0  0  0
 28 33  1  0  0  0  0
 29 30  1  0  0  0  0
 30 31  2  0  0  0  0
 31 32  1  0  0  0  0
 32 33  2  0  0  0  0
M  END
>  <CHROM.1>
155.72334160,-64.59614605,-33.08283301,-62.68861503,-70.75940098,147.74419188
60.04592635,-124.04396535,64.20656536,172.94591078,7.17622656,41.11744201
73.68299797,2.05970179,-0.05148036,1.88186059

>  <Name>
ligand

>  <RI>
0

>  <Rbt.Current_Directory>
/home/itssahil/PROJECTS/Mol_Feturizer/New_Systems/rnas/3SUH

>  <Rbt.Executable>
rbdock ($Id: //depot/dev/client3/rdock/2013.1/src/exe/rbdock.cxx#4 $)

>  <Rbt.Library>
libRbt.so (2013.1, Build901 2013/11/27)

>  <Rbt.Parameter_File>
/export/apps/rDock/src/rDock_2013.1_src/data/scripts/dock_solv.prm

>  <Rbt.Receptor>
prm/pocket_docking_3.prm

>  <SCORE>
-5.71838

>  <SCORE.INTER>
-1.73693

>  <SCORE.INTER.CONST>
1

>  <SCORE.INTER.POLAR>
0

>  <SCORE.INTER.ROT>
10

>  <SCORE.INTER.SOLV>
8.90637

>  <SCORE.INTER.VDW>
-14.3934

>  <SCORE.INTER.norm>
-0.0510862

>  <SCORE.INTRA>
-3.98145

>  <SCORE.INTRA.DIHEDRAL>
-4.44775

>  <SCORE.INTRA.DIHEDRAL.0>
12.2703

>  <SCORE.INTRA.POLAR>
0

>  <SCORE.INTRA.POLAR.0>
0

>  <SCORE.INTRA.REPUL>
0

>  <SCORE.INTRA.REPUL.0>
0

>  <SCORE.INTRA.SOLV>
2.13892

>  <SCORE.INTRA.SOLV.lig_0>
-64.3214

>  <SCORE.INTRA.VDW>
-2.82703

>  <SCORE.INTRA.VDW.0>
-1.67301

>  <SCORE.INTRA.norm>
-0.117102

>  <SCORE.RESTR>
0

>  <SCORE.RESTR.CAVITY>
0

>  <SCORE.RESTR.norm>
0

>  <SCORE.SYSTEM>
0

>  <SCORE.SYSTEM.CONST>
0

>  <SCORE.SYSTEM.DIHEDRAL>
0

>  <SCORE.SYSTEM.SOLV>
0

>  <SCORE.SYSTEM.norm>
0

>  <SCORE.heavy>
34

>  <SCORE.norm>
-0.168188

>  <RMSD>
3.589

$$$$
ligand
 OpenBabel11021811483D
libRbt.so/2013.1/901 2013/11/27
 34 36  0  0  0  0  0  0  0  0999 V2000
    5.9503   41.8000   73.9616 N   0  0  0  0  0  0  0  0  0  0  0  0
    5.4433   41.8821   75.3512 C   0  0  1  0  0  0  0  0  0  0  0  0
    6.1471   42.8657   73.1744 C   0  0  0  0  0  0  0  0  0  0  0  0
    5.9279   44.0315   73.5151 O   0  0  0  0  0  0  0  0  0  0  0  0
   12.8992   46.5405   71.2424 N   0  0  0  0  0  0  0  0  0  0  0  0
    5.4211   40.4790   75.9805 C   0  0  0  0  0  0  0  0  0  0  0  0
    6.8184   39.8444   75.9956 C   0  0  0  0  0  0  0  0  0  0  0  0
    6.7756   38.4184   76.5657 C   0  0  0  0  0  0  0  0  0  0  0  0
    6.6221   38.3018   77.8042 O   0  0  0  0  0  0  0  0  0  0  0  0
    6.8949   37.4758   75.7496 O   0  0  0  0  0  0  0  0  0  0  0  0
   12.4348   45.3680   69.3012 N   0  0  0  0  0  0  0  0  0  0  0  0
    5.7236   43.4059   77.1807 O   0  0  0  0  0  0  0  0  0  0  0  0
   12.4903   45.4250   70.6432 C   0  0  0  0  0  0  0  0  0  0  0  0
    7.4990   42.9630   75.8999 O   0  0  0  0  0  0  0  0  0  0  0  0
   12.1214   44.3208   71.4219 N   0  0  0  0  0  0  0  0  0  0  0  0
   11.6916   43.1639   70.7859 C   0  0  0  0  0  0  0  0  0  0  0  0
   11.6155   43.1491   69.3994 C   0  0  0  0  0  0  0  0  0  0  0  0
   11.3531   42.1857   71.4475 O   0  0  0  0  0  0  0  0  0  0  0  0
   11.5928   40.8100   69.2252 C   0  0  0  0  0  0  0  0  0  0  0  0
   11.2568   41.9919   68.7171 N   0  0  0  0  0  0  0  0  0  0  0  0
   10.7277   40.0362   69.6291 O   0  0  0  0  0  0  0  0  0  0  0  0
   10.6977   42.0922   67.3645 C   0  0  2  0  0  0  0  0  0  0  0  0
   11.5990   43.0026   66.5265 C   0  0  0  0  0  0  0  0  0  0  0  0
   12.0220   44.2583   68.6702 C   0  0  0  0  0  0  0  0  0  0  0  0
   11.9864   44.2257   67.2718 N   0  0  0  0  0  0  0  0  0  0  0  0
    9.2738   42.6568   67.4129 C   0  0  0  0  0  0  0  0  0  0  0  0
    8.3874   41.7045   68.0930 N   0  0  0  0  0  0  0  0  0  0  0  0
    6.7294   42.5395   71.7872 C   0  0  0  0  0  0  0  0  0  0  0  0
    6.8333   43.5291   70.8127 C   0  0  0  0  0  0  0  0  0  0  0  0
    7.4116   43.2459   69.5770 C   0  0  0  0  0  0  0  0  0  0  0  0
    7.8512   41.9588   69.2862 C   0  0  0  0  0  0  0  0  0  0  0  0
    7.7402   40.9671   70.2550 C   0  0  0  0  0  0  0  0  0  0  0  0
    7.1942   41.2583   71.5043 C   0  0  0  0  0  0  0  0  0  0  0  0
    6.2927   42.8316   76.2212 C   0  0  0  0  0  0  0  0  0  0  0  0
  1  3  1  0  0  0  0
  2  1  1  6  0  0  0
  2  6  1  0  0  0  0
  2 34  1  0  0  0  0
  3  4  2  0  0  0  0
  3 28  1  0  0  0  0
  5 13  1  0  0  0  0
  6  7  1  0  0  0  0
  7  8  1  0  0  0  0
  8  9  1  0  0  0  0
  8 10  1  0  0  0  0
 11 13  2  0  0  0  0
 11 24  1  0  0  0  0
 12 34  1  0  0  0  0
 13 15  1  0  0  0  0
 14 34  1  0  0  0  0
 15 16  1  0  0  0  0
 16 17  1  0  0  0  0
 16 18  2  0  0  0  0
 17 20  1  0  0  0  0
 17 24  2  0  0  0  0
 19 21  1  0  0  0  0
 19 20  1  0  0  0  0
 20 22  1  0  0  0  0
 22 23  1  0  0  0  0
 22 26  1  1  0  0  0
 23 25  1  0  0  0  0
 24 25  1  0  0  0  0
 26 27  1  0  0  0  0
 27 31  1  0  0  0  0
 28 29  2  0  0  0  0
 28 33  1  0  0  0  0
 29 30  1  0  0  0  0
 30 31  2  0  0  0  0
 31 32  1  0  0  0  0
 32 33  2  0  0  0  0
M  END
>  <CHROM.1>
-176.64168777,59.07231437,151.82107967,-177.36096033,-74.00243271,113.25730011
-65.96290153,111.56235341,38.71783470,172.23488614,8.85659051,42.26795212
71.79858079,-2.81715794,-0.94429373,-2.39211228

>  <Name>
ligand

>  <RI>
0

>  <Rbt.Current_Directory>
/home/itssahil/PROJECTS/Mol_Feturizer/New_Systems/rnas/3SUH

>  <Rbt.Executable>
rbdock ($Id: //depot/dev/client3/rdock/2013.1/src/exe/rbdock.cxx#4 $)

>  <Rbt.Library>
libRbt.so (2013.1, Build901 2013/11/27)

>  <Rbt.Parameter_File>
/export/apps/rDock/src/rDock_2013.1_src/data/scripts/dock_solv.prm

>  <Rbt.Receptor>
prm/pocket_docking_6.prm

>  <SCORE>
-17.1392

>  <SCORE.INTER>
-12.9359

>  <SCORE.INTER.CONST>
1

>  <SCORE.INTER.POLAR>
0

>  <SCORE.INTER.ROT>
10

>  <SCORE.INTER.SOLV>
19.7368

>  <SCORE.INTER.VDW>
-25.4695

>  <SCORE.INTER.norm>
-0.380468

>  <SCORE.INTRA>
-4.20332

>  <SCORE.INTRA.DIHEDRAL>
-4.4161

>  <SCORE.INTRA.DIHEDRAL.0>
12.2703

>  <SCORE.INTRA.POLAR>
0

>  <SCORE.INTRA.POLAR.0>
0

>  <SCORE.INTRA.REPUL>
0

>  <SCORE.INTRA.REPUL.0>
0

>  <SCORE.INTRA.SOLV>
0.398456

>  <SCORE.INTRA.SOLV.lig_0>
-64.3214

>  <SCORE.INTRA.VDW>
-2.19449

>  <SCORE.INTRA.VDW.0>
-1.67301

>  <SCORE.INTRA.norm>
-0.123627

>  <SCORE.RESTR>
0

>  <SCORE.RESTR.CAVITY>
0

>  <SCORE.RESTR.norm>
0

>  <SCORE.SYSTEM>
0

>  <SCORE.SYSTEM.CONST>
0

>  <SCORE.SYSTEM.DIHEDRAL>
0

>  <SCORE.SYSTEM.SOLV>
0

>  <SCORE.SYSTEM.norm>
0

>  <SCORE.heavy>
34

>  <SCORE.norm>
-0.504095

>  <RMSD>
3.601

$$$$
ligand
 OpenBabel11021811483D
libRbt.so/2013.1/901 2013/11/27
 34 36  0  0  0  0  0  0  0  0999 V2000
    4.9108   42.4512   74.9022 N   0  0  0  0  0  0  0  0  0  0  0  0
    4.1773   42.1196   76.1459 C   0  0  1  0  0  0  0  0  0  0  0  0
    5.1909   43.7013   74.5112 C   0  0  0  0  0  0  0  0  0  0  0  0
    4.8696   44.7143   75.1389 O   0  0  0  0  0  0  0  0  0  0  0  0
   13.0071   39.8830   72.5090 N   0  0  0  0  0  0  0  0  0  0  0  0
    5.0463   42.4589   77.3685 C   0  0  0  0  0  0  0  0  0  0  0  0
    6.3495   41.6484   77.3777 C   0  0  0  0  0  0  0  0  0  0  0  0
    6.0672   40.1402   77.3003 C   0  0  0  0  0  0  0  0  0  0  0  0
    5.7220   39.5676   78.3605 O   0  0  0  0  0  0  0  0  0  0  0  0
    6.2005   39.5932   76.1815 O   0  0  0  0  0  0  0  0  0  0  0  0
   12.7599   41.7930   71.2249 N   0  0  0  0  0  0  0  0  0  0  0  0
    2.8510   44.0550   76.6390 O   0  0  0  0  0  0  0  0  0  0  0  0
   12.3515   40.5593   71.5693 C   0  0  0  0  0  0  0  0  0  0  0  0
    1.8048   42.2220   75.9080 O   0  0  0  0  0  0  0  0  0  0  0  0
   11.2401   39.9747   70.9491 N   0  0  0  0  0  0  0  0  0  0  0  0
   10.5608   40.6918   69.9734 C   0  0  0  0  0  0  0  0  0  0  0  0
   10.9893   41.9760   69.6641 C   0  0  0  0  0  0  0  0  0  0  0  0
    9.5770   40.2044   69.4223 O   0  0  0  0  0  0  0  0  0  0  0  0
    9.8916   42.0598   67.5928 C   0  0  0  0  0  0  0  0  0  0  0  0
   10.3830   42.7045   68.6467 N   0  0  0  0  0  0  0  0  0  0  0  0
    8.9328   42.5161   66.9741 O   0  0  0  0  0  0  0  0  0  0  0  0
   10.4712   44.1688   68.6526 C   0  0  2  0  0  0  0  0  0  0  0  0
   11.9330   44.5723   68.8617 C   0  0  0  0  0  0  0  0  0  0  0  0
   12.1154   42.5001   70.2843 C   0  0  0  0  0  0  0  0  0  0  0  0
   12.5717   43.7770   69.9392 N   0  0  0  0  0  0  0  0  0  0  0  0
    9.5963   44.7547   69.7661 C   0  0  0  0  0  0  0  0  0  0  0  0
    8.2916   44.0816   69.7753 N   0  0  0  0  0  0  0  0  0  0  0  0
    6.0085   43.7985   73.2105 C   0  0  0  0  0  0  0  0  0  0  0  0
    6.2977   45.0391   72.6474 C   0  0  0  0  0  0  0  0  0  0  0  0
    7.0847   45.1284   71.5009 C   0  0  0  0  0  0  0  0  0  0  0  0
    7.5534   43.9756   70.8797 C   0  0  0  0  0  0  0  0  0  0  0  0
    7.2580   42.7355   71.4356 C   0  0  0  0  0  0  0  0  0  0  0  0
    6.5005   42.6470   72.6027 C   0  0  0  0  0  0  0  0  0  0  0  0
    2.8303   42.8659   76.2388 C   0  0  0  0  0  0  0  0  0  0  0  0
  1  3  1  0  0  0  0
  2  1  1  6  0  0  0
  2  6  1  0  0  0  0
  2 34  1  0  0  0  0
  3  4  2  0  0  0  0
  3 28  1  0  0  0  0
  5 13  1  0  0  0  0
  6  7  1  0  0  0  0
  7  8  1  0  0  0  0
  8  9  1  0  0  0  0
  8 10  1  0  0  0  0
 11 13  2  0  0  0  0
 11 24  1  0  0  0  0
 12 34  1  0  0  0  0
 13 15  1  0  0  0  0
 14 34  1  0  0  0  0
 15 16  1  0  0  0  0
 16 17  1  0  0  0  0
 16 18  2  0  0  0  0
 17 20  1  0  0  0  0
 17 24  2  0  0  0  0
 19 21  1  0  0  0  0
 19 20  1  0  0  0  0
 20 22  1  0  0  0  0
 22 23  1  0  0  0  0
 22 26  1  1  0  0  0
 23 25  1  0  0  0  0
 24 25  1  0  0  0  0
 26 27  1  0  0  0  0
 27 31  1  0  0  0  0
 28 29  2  0  0  0  0
 28 33  1  0  0  0  0
 29 30  1  0  0  0  0
 30 31  2  0  0  0  0
 31 32  1  0  0  0  0
 32 33  2  0  0  0  0
M  END
>  <CHROM.1>
-68.95600364,-61.18665358,-81.16891102,-55.27418994,-79.37750887,150.64227701
-44.51473896,152.82427337,62.51824131,176.01298340,7.92932028,42.46575150
72.52563295,2.50785483,-0.54527132,2.21377187

>  <Name>
ligand

>  <RI>
0

>  <Rbt.Current_Directory>
/home/itssahil/PROJECTS/Mol_Feturizer/New_Systems/rnas/3SUH

>  <Rbt.Executable>
rbdock ($Id: //depot/dev/client3/rdock/2013.1/src/exe/rbdock.cxx#4 $)

>  <Rbt.Library>
libRbt.so (2013.1, Build901 2013/11/27)

>  <Rbt.Parameter_File>
/export/apps/rDock/src/rDock_2013.1_src/data/scripts/dock_solv.prm

>  <Rbt.Receptor>
prm/pocket_docking_3.prm

>  <SCORE>
-6.84502

>  <SCORE.INTER>
-4.08372

>  <SCORE.INTER.CONST>
1

>  <SCORE.INTER.POLAR>
0

>  <SCORE.INTER.ROT>
10

>  <SCORE.INTER.SOLV>
13.9433

>  <SCORE.INTER.VDW>
-17.6369

>  <SCORE.INTER.norm>
-0.12011

>  <SCORE.INTRA>
-2.79218

>  <SCORE.INTRA.DIHEDRAL>
-4.66662

>  <SCORE.INTRA.DIHEDRAL.0>
12.2703

>  <SCORE.INTRA.POLAR>
0

>  <SCORE.INTRA.POLAR.0>
0

>  <SCORE.INTRA.REPUL>
0

>  <SCORE.INTRA.REPUL.0>
0

>  <SCORE.INTRA.SOLV>
1.15006

>  <SCORE.INTRA.SOLV.lig_0>
-64.3214

>  <SCORE.INTRA.VDW>
-1.0339

>  <SCORE.INTRA.VDW.0>
-1.67301

>  <SCORE.INTRA.norm>
-0.082123

>  <SCORE.RESTR>
0.0308878

>  <SCORE.RESTR.CAVITY>
0.0308878

>  <SCORE.RESTR.norm>
0.000908463

>  <SCORE.SYSTEM>
0

>  <SCORE.SYSTEM.CONST>
0

>  <SCORE.SYSTEM.DIHEDRAL>
0

>  <SCORE.SYSTEM.SOLV>
0

>  <SCORE.SYSTEM.norm>
0

>  <SCORE.heavy>
34

>  <SCORE.norm>
-0.201324

>  <RMSD>
3.614

$$$$
ligand
 OpenBabel11021811483D
libRbt.so/2013.1/901 2013/11/27
 34 36  0  0  0  0  0  0  0  0999 V2000
    5.7809   42.3307   74.2614 N   0  0  0  0  0  0  0  0  0  0  0  0
    5.2326   42.4991   75.6273 C   0  0  1  0  0  0  0  0  0  0  0  0
    6.0342   43.3480   73.4277 C   0  0  0  0  0  0  0  0  0  0  0  0
    5.8388   44.5356   73.7008 O   0  0  0  0  0  0  0  0  0  0  0  0
   13.1892   46.3310   71.1472 N   0  0  0  0  0  0  0  0  0  0  0  0
    3.7761   42.9864   75.5467 C   0  0  0  0  0  0  0  0  0  0  0  0
    3.2186   43.3325   76.9340 C   0  0  0  0  0  0  0  0  0  0  0  0
    4.0407   44.4451   77.6022 C   0  0  0  0  0  0  0  0  0  0  0  0
    3.6739   45.6267   77.4013 O   0  0  0  0  0  0  0  0  0  0  0  0
    5.0168   44.0892   78.3017 O   0  0  0  0  0  0  0  0  0  0  0  0
   12.5148   45.1859   69.2519 N   0  0  0  0  0  0  0  0  0  0  0  0
    5.5588   41.2837   77.6680 O   0  0  0  0  0  0  0  0  0  0  0  0
   12.6744   45.2401   70.5856 C   0  0  0  0  0  0  0  0  0  0  0  0
    5.0981   40.1239   75.8156 O   0  0  0  0  0  0  0  0  0  0  0  0
   12.3039   44.1586   71.3948 N   0  0  0  0  0  0  0  0  0  0  0  0
   11.7633   43.0275   70.7983 C   0  0  0  0  0  0  0  0  0  0  0  0
   11.5822   43.0166   69.4215 C   0  0  0  0  0  0  0  0  0  0  0  0
   11.4213   42.0702   71.4879 O   0  0  0  0  0  0  0  0  0  0  0  0
   11.4153   40.6824   69.2602 C   0  0  0  0  0  0  0  0  0  0  0  0
   11.1088   41.8811   68.7734 N   0  0  0  0  0  0  0  0  0  0  0  0
   10.5476   39.9744   69.7663 O   0  0  0  0  0  0  0  0  0  0  0  0
   10.4559   42.0123   67.4663 C   0  0  2  0  0  0  0  0  0  0  0  0
   11.3411   42.8703   66.5587 C   0  0  0  0  0  0  0  0  0  0  0  0
   11.9941   44.1010   68.6587 C   0  0  0  0  0  0  0  0  0  0  0  0
   11.8515   44.0699   67.2671 N   0  0  0  0  0  0  0  0  0  0  0  0
    9.0736   42.6562   67.6190 C   0  0  0  0  0  0  0  0  0  0  0  0
    8.2095   41.7860   68.4261 N   0  0  0  0  0  0  0  0  0  0  0  0
    6.6505   42.9338   72.0792 C   0  0  0  0  0  0  0  0  0  0  0  0
    7.0129   41.6099   71.8434 C   0  0  0  0  0  0  0  0  0  0  0  0
    7.5188   41.2260   70.6031 C   0  0  0  0  0  0  0  0  0  0  0  0
    7.7100   42.1704   69.6001 C   0  0  0  0  0  0  0  0  0  0  0  0
    7.3569   43.4947   69.8368 C   0  0  0  0  0  0  0  0  0  0  0  0
    6.8174   43.8731   71.0654 C   0  0  0  0  0  0  0  0  0  0  0  0
    5.3019   41.1917   76.4432 C   0  0  0  0  0  0  0  0  0  0  0  0
  1  3  1  0  0  0  0
  2  1  1  6  0  0  0
  2  6  1  0  0  0  0
  2 34  1  0  0  0  0
  3  4  2  0  0  0  0
  3 28  1  0  0  0  0
  5 13  1  0  0  0  0
  6  7  1  0  0  0  0
  7  8  1  0  0  0  0
  8  9  1  0  0  0  0
  8 10  1  0  0  0  0
 11 13  2  0  0  0  0
 11 24  1  0  0  0  0
 12 34  1  0  0  0  0
 13 15  1  0  0  0  0
 14 34  1  0  0  0  0
 15 16  1  0  0  0  0
 16 17  1  0  0  0  0
 16 18  2  0  0  0  0
 17 20  1  0  0  0  0
 17 24  2  0  0  0  0
 19 21  1  0  0  0  0
 19 20  1  0  0  0  0
 20 22  1  0  0  0  0
 22 23  1  0  0  0  0
 22 26  1  1  0  0  0
 23 25  1  0  0  0  0
 24 25  1  0  0  0  0
 26 27  1  0  0  0  0
 27 31  1  0  0  0  0
 28 29  2  0  0  0  0
 28 33  1  0  0  0  0
 29 30  1  0  0  0  0
 30 31  2  0  0  0  0
 31 32  1  0  0  0  0
 32 33  2  0  0  0  0
M  END
>  <CHROM.1>
68.78428325,-173.32863838,143.31845050,59.99608265,90.60239149,111.16553452
-63.12081141,117.47916068,-146.98694028,-5.66009821,8.28767121,42.93031604
72.03453235,2.52619714,0.62676956,0.88217005

>  <Name>
ligand

>  <RI>
0

>  <Rbt.Current_Directory>
/home/itssahil/PROJECTS/Mol_Feturizer/New_Systems/rnas/3SUH

>  <Rbt.Executable>
rbdock ($Id: //depot/dev/client3/rdock/2013.1/src/exe/rbdock.cxx#4 $)

>  <Rbt.Library>
libRbt.so (2013.1, Build901 2013/11/27)

>  <Rbt.Parameter_File>
/export/apps/rDock/src/rDock_2013.1_src/data/scripts/dock_solv.prm

>  <Rbt.Receptor>
prm/pocket_docking_4.prm

>  <SCORE>
-17.545

>  <SCORE.INTER>
-13.3584

>  <SCORE.INTER.CONST>
1

>  <SCORE.INTER.POLAR>
0

>  <SCORE.INTER.ROT>
10

>  <SCORE.INTER.SOLV>
20.3859

>  <SCORE.INTER.VDW>
-25.9676

>  <SCORE.INTER.norm>
-0.392893

>  <SCORE.INTRA>
-4.18658

>  <SCORE.INTRA.DIHEDRAL>
-4.18412

>  <SCORE.INTRA.DIHEDRAL.0>
12.2703

>  <SCORE.INTRA.POLAR>
0

>  <SCORE.INTRA.POLAR.0>
0

>  <SCORE.INTRA.REPUL>
0

>  <SCORE.INTRA.REPUL.0>
0

>  <SCORE.INTRA.SOLV>
0.129817

>  <SCORE.INTRA.SOLV.lig_0>
-64.3214

>  <SCORE.INTRA.VDW>
-2.15943

>  <SCORE.INTRA.VDW.0>
-1.67301

>  <SCORE.INTRA.norm>
-0.123135

>  <SCORE.RESTR>
0

>  <SCORE.RESTR.CAVITY>
0

>  <SCORE.RESTR.norm>
0

>  <SCORE.SYSTEM>
0

>  <SCORE.SYSTEM.CONST>
0

>  <SCORE.SYSTEM.DIHEDRAL>
0

>  <SCORE.SYSTEM.SOLV>
0

>  <SCORE.SYSTEM.norm>
0

>  <SCORE.heavy>
34

>  <SCORE.norm>
-0.516028

>  <RMSD>
3.638

$$$$
ligand
 OpenBabel11021811483D
libRbt.so/2013.1/901 2013/11/27
 34 36  0  0  0  0  0  0  0  0999 V2000
    6.3167   42.7450   74.6666 N   0  0  0  0  0  0  0  0  0  0  0  0
    5.9208   42.9427   76.0804 C   0  0  1  0  0  0  0  0  0  0  0  0
    5.8947   43.5186   73.6578 C   0  0  0  0  0  0  0  0  0  0  0  0
    5.1304   44.4784   73.7907 O   0  0  0  0  0  0  0  0  0  0  0  0
    9.8558   46.5881   71.1683 N   0  0  0  0  0  0  0  0  0  0  0  0
    6.2479   41.6790   76.8937 C   0  0  0  0  0  0  0  0  0  0  0  0
    5.3455   40.5027   76.4972 C   0  0  0  0  0  0  0  0  0  0  0  0
    3.8920   40.7456   76.9314 C   0  0  0  0  0  0  0  0  0  0  0  0
    3.4277   39.9949   77.8214 O   0  0  0  0  0  0  0  0  0  0  0  0
    3.2776   41.6788   76.3654 O   0  0  0  0  0  0  0  0  0  0  0  0
   10.0593   44.9983   69.4981 N   0  0  0  0  0  0  0  0  0  0  0  0
    7.8521   44.2951   76.5149 O   0  0  0  0  0  0  0  0  0  0  0  0
   10.0314   45.3208   70.8030 C   0  0  0  0  0  0  0  0  0  0  0  0
    5.8980   44.9436   77.3808 O   0  0  0  0  0  0  0  0  0  0  0  0
   10.1853   44.3357   71.7866 N   0  0  0  0  0  0  0  0  0  0  0  0
   10.3630   43.0160   71.3937 C   0  0  0  0  0  0  0  0  0  0  0  0
   10.3548   42.7125   70.0386 C   0  0  0  0  0  0  0  0  0  0  0  0
   10.4900   42.1328   72.2380 O   0  0  0  0  0  0  0  0  0  0  0  0
   11.4219   40.6389   70.2915 C   0  0  0  0  0  0  0  0  0  0  0  0
   10.5974   41.4167   69.5965 N   0  0  0  0  0  0  0  0  0  0  0  0
   12.6169   40.5875   70.0092 O   0  0  0  0  0  0  0  0  0  0  0  0
   10.1067   40.9969   68.2792 C   0  0  2  0  0  0  0  0  0  0  0  0
   10.5164   42.0479   67.2444 C   0  0  0  0  0  0  0  0  0  0  0  0
   10.2300   43.7283   69.1006 C   0  0  0  0  0  0  0  0  0  0  0  0
   10.2664   43.4257   67.7350 N   0  0  0  0  0  0  0  0  0  0  0  0
    8.5823   40.8403   68.2992 C   0  0  0  0  0  0  0  0  0  0  0  0
    7.9550   42.1429   68.5538 N   0  0  0  0  0  0  0  0  0  0  0  0
    6.4802   43.1537   72.2816 C   0  0  0  0  0  0  0  0  0  0  0  0
    6.7979   41.8328   71.9752 C   0  0  0  0  0  0  0  0  0  0  0  0
    7.2754   41.4961   70.7102 C   0  0  0  0  0  0  0  0  0  0  0  0
    7.4830   42.4833   69.7526 C   0  0  0  0  0  0  0  0  0  0  0  0
    7.1747   43.8042   70.0599 C   0  0  0  0  0  0  0  0  0  0  0  0
    6.6633   44.1370   71.3134 C   0  0  0  0  0  0  0  0  0  0  0  0
    6.6195   44.1652   76.7107 C   0  0  0  0  0  0  0  0  0  0  0  0
  1  3  1  0  0  0  0
  2  1  1  6  0  0  0
  2  6  1  0  0  0  0
  2 34  1  0  0  0  0
  3  4  2  0  0  0  0
  3 28  1  0  0  0  0
  5 13  1  0  0  0  0
  6  7  1  0  0  0  0
  7  8  1  0  0  0  0
  8  9  1  0  0  0  0
  8 10  1  0  0  0  0
 11 13  2  0  0  0  0
 11 24  1  0  0  0  0
 12 34  1  0  0  0  0
 13 15  1  0  0  0  0
 14 34  1  0  0  0  0
 15 16  1  0  0  0  0
 16 17  1  0  0  0  0
 16 18  2  0  0  0  0
 17 20  1  0  0  0  0
 17 24  2  0  0  0  0
 19 21  1  0  0  0  0
 19 20  1  0  0  0  0
 20 22  1  0  0  0  0
 22 23  1  0  0  0  0
 22 26  1  1  0  0  0
 23 25  1  0  0  0  0
 24 25  1  0  0  0  0
 26 27  1  0  0  0  0
 27 31  1  0  0  0  0
 28 29  2  0  0  0  0
 28 33  1  0  0  0  0
 29 30  1  0  0  0  0
 30 31  2  0  0  0  0
 31 32  1  0  0  0  0
 32 33  2  0  0  0  0
M  END
>  <CHROM.1>
164.07262499,-68.81196516,-45.97592723,-68.69341109,-113.30381116,-92.63144108
64.15130447,-101.45891230,-15.80429968,31.76596953,7.96869464,42.73002236
72.31678678,-2.75472897,-0.90065814,-2.63384009

>  <Name>
ligand

>  <RI>
0

>  <Rbt.Current_Directory>
/home/itssahil/PROJECTS/Mol_Feturizer/New_Systems/rnas/3SUH

>  <Rbt.Executable>
rbdock ($Id: //depot/dev/client3/rdock/2013.1/src/exe/rbdock.cxx#4 $)

>  <Rbt.Library>
libRbt.so (2013.1, Build901 2013/11/27)

>  <Rbt.Parameter_File>
/export/apps/rDock/src/rDock_2013.1_src/data/scripts/dock_solv.prm

>  <Rbt.Receptor>
prm/pocket_docking_4.prm

>  <SCORE>
-12.6647

>  <SCORE.INTER>
-7.98853

>  <SCORE.INTER.CONST>
1

>  <SCORE.INTER.POLAR>
0

>  <SCORE.INTER.ROT>
10

>  <SCORE.INTER.SOLV>
13.9771

>  <SCORE.INTER.VDW>
-20.2514

>  <SCORE.INTER.norm>
-0.234957

>  <SCORE.INTRA>
-4.67618

>  <SCORE.INTRA.DIHEDRAL>
-4.39002

>  <SCORE.INTRA.DIHEDRAL.0>
12.2703

>  <SCORE.INTRA.POLAR>
0

>  <SCORE.INTRA.POLAR.0>
0

>  <SCORE.INTRA.REPUL>
0

>  <SCORE.INTRA.REPUL.0>
0

>  <SCORE.INTRA.SOLV>
2.18984

>  <SCORE.INTRA.SOLV.lig_0>
-64.3214

>  <SCORE.INTRA.VDW>
-3.57609

>  <SCORE.INTRA.VDW.0>
-1.67301

>  <SCORE.INTRA.norm>
-0.137535

>  <SCORE.RESTR>
0

>  <SCORE.RESTR.CAVITY>
0

>  <SCORE.RESTR.norm>
0

>  <SCORE.SYSTEM>
0

>  <SCORE.SYSTEM.CONST>
0

>  <SCORE.SYSTEM.DIHEDRAL>
0

>  <SCORE.SYSTEM.SOLV>
0

>  <SCORE.SYSTEM.norm>
0

>  <SCORE.heavy>
34

>  <SCORE.norm>
-0.372492

>  <RMSD>
3.647

$$$$
ligand
 OpenBabel11021811483D
libRbt.so/2013.1/901 2013/11/27
 34 36  0  0  0  0  0  0  0  0999 V2000
    6.3960   41.5900   74.2957 N   0  0  0  0  0  0  0  0  0  0  0  0
    5.9573   41.6113   75.7106 C   0  0  1  0  0  0  0  0  0  0  0  0
    6.1464   42.5737   73.4216 C   0  0  0  0  0  0  0  0  0  0  0  0
    5.5239   43.6041   73.6939 O   0  0  0  0  0  0  0  0  0  0  0  0
   13.0840   46.3789   71.2804 N   0  0  0  0  0  0  0  0  0  0  0  0
    6.1577   40.2216   76.3382 C   0  0  0  0  0  0  0  0  0  0  0  0
    5.3412   39.1480   75.6061 C   0  0  0  0  0  0  0  0  0  0  0  0
    5.5311   37.7674   76.2528 C   0  0  0  0  0  0  0  0  0  0  0  0
    6.6207   37.1836   76.0457 O   0  0  0  0  0  0  0  0  0  0  0  0
    4.5828   37.3271   76.9425 O   0  0  0  0  0  0  0  0  0  0  0  0
   12.4939   45.2547   69.3448 N   0  0  0  0  0  0  0  0  0  0  0  0
    6.1238   43.1756   77.5197 O   0  0  0  0  0  0  0  0  0  0  0  0
   12.6104   45.2879   70.6837 C   0  0  0  0  0  0  0  0  0  0  0  0
    7.8781   42.9561   76.1547 O   0  0  0  0  0  0  0  0  0  0  0  0
   12.2379   44.1845   71.4617 N   0  0  0  0  0  0  0  0  0  0  0  0
   11.7404   43.0534   70.8285 C   0  0  0  0  0  0  0  0  0  0  0  0
   11.6028   43.0638   69.4467 C   0  0  0  0  0  0  0  0  0  0  0  0
   11.3974   42.0768   71.4900 O   0  0  0  0  0  0  0  0  0  0  0  0
   11.4907   40.7300   69.2392 C   0  0  0  0  0  0  0  0  0  0  0  0
   11.1742   41.9308   68.7641 N   0  0  0  0  0  0  0  0  0  0  0  0
   10.6217   39.9920   69.6980 O   0  0  0  0  0  0  0  0  0  0  0  0
   10.5599   42.0723   67.4394 C   0  0  2  0  0  0  0  0  0  0  0  0
   11.4546   42.9647   66.5756 C   0  0  0  0  0  0  0  0  0  0  0  0
   12.0152   44.1703   68.7165 C   0  0  0  0  0  0  0  0  0  0  0  0
   11.9169   44.1616   67.3208 N   0  0  0  0  0  0  0  0  0  0  0  0
    9.1601   42.6844   67.5595 C   0  0  0  0  0  0  0  0  0  0  0  0
    8.2602   41.7337   68.2241 N   0  0  0  0  0  0  0  0  0  0  0  0
    6.7460   42.3545   72.0208 C   0  0  0  0  0  0  0  0  0  0  0  0
    7.1164   41.0792   71.6012 C   0  0  0  0  0  0  0  0  0  0  0  0
    7.6071   40.8740   70.3132 C   0  0  0  0  0  0  0  0  0  0  0  0
    7.7750   41.9486   69.4464 C   0  0  0  0  0  0  0  0  0  0  0  0
    7.4140   43.2242   69.8670 C   0  0  0  0  0  0  0  0  0  0  0  0
    6.8896   43.4253   71.1430 C   0  0  0  0  0  0  0  0  0  0  0  0
    6.7162   42.6715   76.5351 C   0  0  0  0  0  0  0  0  0  0  0  0
  1  3  1  0  0  0  0
  2  1  1  6  0  0  0
  2  6  1  0  0  0  0
  2 34  1  0  0  0  0
  3  4  2  0  0  0  0
  3 28  1  0  0  0  0
  5 13  1  0  0  0  0
  6  7  1  0  0  0  0
  7  8  1  0  0  0  0
  8  9  1  0  0  0  0
  8 10  1  0  0  0  0
 11 13  2  0  0  0  0
 11 24  1  0  0  0  0
 12 34  1  0  0  0  0
 13 15  1  0  0  0  0
 14 34  1  0  0  0  0
 15 16  1  0  0  0  0
 16 17  1  0  0  0  0
 16 18  2  0  0  0  0
 17 20  1  0  0  0  0
 17 24  2  0  0  0  0
 19 21  1  0  0  0  0
 19 20  1  0  0  0  0
 20 22  1  0  0  0  0
 22 23  1  0  0  0  0
 22 26  1  1  0  0  0
 23 25  1  0  0  0  0
 24 25  1  0  0  0  0
 26 27  1  0  0  0  0
 27 31  1  0  0  0  0
 28 29  2  0  0  0  0
 28 33  1  0  0  0  0
 29 30  1  0  0  0  0
 30 31  2  0  0  0  0
 31 32  1  0  0  0  0
 32 33  2  0  0  0  0
M  END
>  <CHROM.1>
168.54463464,-60.37326741,151.40066172,-179.14662211,-74.38857983,111.58646987
-67.86002076,111.29772668,-143.79331992,19.69228020,8.75758897,42.07923658
71.88931316,-2.71937967,-0.88005950,-2.18796546

>  <Name>
ligand

>  <RI>
0

>  <Rbt.Current_Directory>
/home/itssahil/PROJECTS/Mol_Feturizer/New_Systems/rnas/3SUH

>  <Rbt.Executable>
rbdock ($Id: //depot/dev/client3/rdock/2013.1/src/exe/rbdock.cxx#4 $)

>  <Rbt.Library>
libRbt.so (2013.1, Build901 2013/11/27)

>  <Rbt.Parameter_File>
/export/apps/rDock/src/rDock_2013.1_src/data/scripts/dock_solv.prm

>  <Rbt.Receptor>
prm/pocket_docking_7.prm

>  <SCORE>
-17.506

>  <SCORE.INTER>
-12.9919

>  <SCORE.INTER.CONST>
1

>  <SCORE.INTER.POLAR>
0

>  <SCORE.INTER.ROT>
10

>  <SCORE.INTER.SOLV>
19.5521

>  <SCORE.INTER.VDW>
-25.4453

>  <SCORE.INTER.norm>
-0.382114

>  <SCORE.INTRA>
-4.51417

>  <SCORE.INTRA.DIHEDRAL>
-4.28114

>  <SCORE.INTRA.DIHEDRAL.0>
12.2703

>  <SCORE.INTRA.POLAR>
0

>  <SCORE.INTRA.POLAR.0>
0

>  <SCORE.INTRA.REPUL>
0

>  <SCORE.INTRA.REPUL.0>
0

>  <SCORE.INTRA.SOLV>
0.247212

>  <SCORE.INTRA.SOLV.lig_0>
-64.3214

>  <SCORE.INTRA.VDW>
-2.49721

>  <SCORE.INTRA.VDW.0>
-1.67301

>  <SCORE.INTRA.norm>
-0.13277

>  <SCORE.RESTR>
0

>  <SCORE.RESTR.CAVITY>
0

>  <SCORE.RESTR.norm>
0

>  <SCORE.SYSTEM>
0

>  <SCORE.SYSTEM.CONST>
0

>  <SCORE.SYSTEM.DIHEDRAL>
0

>  <SCORE.SYSTEM.SOLV>
0

>  <SCORE.SYSTEM.norm>
0

>  <SCORE.heavy>
34

>  <SCORE.norm>
-0.514884

>  <RMSD>
3.653

$$$$
ligand
 OpenBabel11021811483D
libRbt.so/2013.1/901 2013/11/27
 34 36  0  0  0  0  0  0  0  0999 V2000
    6.4363   42.7450   74.0966 N   0  0  0  0  0  0  0  0  0  0  0  0
    5.9520   42.9355   75.4837 C   0  0  1  0  0  0  0  0  0  0  0  0
    6.4153   41.5706   73.4530 C   0  0  0  0  0  0  0  0  0  0  0  0
    5.9937   40.5182   73.9406 O   0  0  0  0  0  0  0  0  0  0  0  0
   13.0998   46.3139   71.3614 N   0  0  0  0  0  0  0  0  0  0  0  0
    6.3069   44.3511   75.9688 C   0  0  0  0  0  0  0  0  0  0  0  0
    6.2919   44.4437   77.5006 C   0  0  0  0  0  0  0  0  0  0  0  0
    4.8989   44.1231   78.0637 C   0  0  0  0  0  0  0  0  0  0  0  0
    3.9593   44.8843   77.7336 O   0  0  0  0  0  0  0  0  0  0  0  0
    4.8037   43.1219   78.8102 O   0  0  0  0  0  0  0  0  0  0  0  0
   12.5078   45.2216   69.4083 N   0  0  0  0  0  0  0  0  0  0  0  0
    4.0380   41.7575   76.3185 O   0  0  0  0  0  0  0  0  0  0  0  0
   12.6137   45.2376   70.7484 C   0  0  0  0  0  0  0  0  0  0  0  0
    3.6922   43.4975   74.9613 O   0  0  0  0  0  0  0  0  0  0  0  0
   12.2172   44.1314   71.5105 N   0  0  0  0  0  0  0  0  0  0  0  0
   11.7069   43.0158   70.8603 C   0  0  0  0  0  0  0  0  0  0  0  0
   11.5810   43.0442   69.4776 C   0  0  0  0  0  0  0  0  0  0  0  0
   11.3429   42.0373   71.5077 O   0  0  0  0  0  0  0  0  0  0  0  0
   11.4334   40.7151   69.2423 C   0  0  0  0  0  0  0  0  0  0  0  0
   11.1399   41.9261   68.7785 N   0  0  0  0  0  0  0  0  0  0  0  0
   12.5976   40.4057   69.4856 O   0  0  0  0  0  0  0  0  0  0  0  0
   10.5390   42.0926   67.4507 C   0  0  2  0  0  0  0  0  0  0  0  0
   11.4550   42.9804   66.6044 C   0  0  0  0  0  0  0  0  0  0  0  0
   12.0170   44.1522   68.7637 C   0  0  0  0  0  0  0  0  0  0  0  0
   11.9302   44.1610   67.3671 N   0  0  0  0  0  0  0  0  0  0  0  0
    9.1482   42.7257   67.5665 C   0  0  0  0  0  0  0  0  0  0  0  0
    8.1922   41.7305   68.0673 N   0  0  0  0  0  0  0  0  0  0  0  0
    6.9224   41.6261   72.0005 C   0  0  0  0  0  0  0  0  0  0  0  0
    7.4690   40.4956   71.3980 C   0  0  0  0  0  0  0  0  0  0  0  0
    7.8762   40.5321   70.0659 C   0  0  0  0  0  0  0  0  0  0  0  0
    7.7830   41.7120   69.3354 C   0  0  0  0  0  0  0  0  0  0  0  0
    7.2456   42.8443   69.9382 C   0  0  0  0  0  0  0  0  0  0  0  0
    6.8050   42.7990   71.2601 C   0  0  0  0  0  0  0  0  0  0  0  0
    4.4305   42.7090   75.6007 C   0  0  0  0  0  0  0  0  0  0  0  0
  1  3  1  0  0  0  0
  2  1  1  6  0  0  0
  2  6  1  0  0  0  0
  2 34  1  0  0  0  0
  3  4  2  0  0  0  0
  3 28  1  0  0  0  0
  5 13  1  0  0  0  0
  6  7  1  0  0  0  0
  7  8  1  0  0  0  0
  8  9  1  0  0  0  0
  8 10  1  0  0  0  0
 11 13  2  0  0  0  0
 11 24  1  0  0  0  0
 12 34  1  0  0  0  0
 13 15  1  0  0  0  0
 14 34  1  0  0  0  0
 15 16  1  0  0  0  0
 16 17  1  0  0  0  0
 16 18  2  0  0  0  0
 17 20  1  0  0  0  0
 17 24  2  0  0  0  0
 19 21  1  0  0  0  0
 19 20  1  0  0  0  0
 20 22  1  0  0  0  0
 22 23  1  0  0  0  0
 22 26  1  1  0  0  0
 23 25  1  0  0  0  0
 24 25  1  0  0  0  0
 26 27  1  0  0  0  0
 27 31  1  0  0  0  0
 28 29  2  0  0  0  0
 28 33  1  0  0  0  0
 29 30  1  0  0  0  0
 30 31  2  0  0  0  0
 31 32  1  0  0  0  0
 32 33  2  0  0  0  0
M  END
>  <CHROM.1>
172.04450119,-159.75995288,116.51329649,-61.09270776,-62.40273775,-53.77733651
-74.42744664,101.97125315,-127.50511572,153.67085528,8.51242739,42.83879942
71.98748517,2.42029643,0.52985339,1.01394067

>  <Name>
ligand

>  <RI>
0

>  <Rbt.Current_Directory>
/home/itssahil/PROJECTS/Mol_Feturizer/New_Systems/rnas/3SUH

>  <Rbt.Executable>
rbdock ($Id: //depot/dev/client3/rdock/2013.1/src/exe/rbdock.cxx#4 $)

>  <Rbt.Library>
libRbt.so (2013.1, Build901 2013/11/27)

>  <Rbt.Parameter_File>
/export/apps/rDock/src/rDock_2013.1_src/data/scripts/dock_solv.prm

>  <Rbt.Receptor>
prm/pocket_docking_4.prm

>  <SCORE>
-17.7685

>  <SCORE.INTER>
-13.1858

>  <SCORE.INTER.CONST>
1

>  <SCORE.INTER.POLAR>
0

>  <SCORE.INTER.ROT>
10

>  <SCORE.INTER.SOLV>
20.0579

>  <SCORE.INTER.VDW>
-25.7432

>  <SCORE.INTER.norm>
-0.387818

>  <SCORE.INTRA>
-4.58265

>  <SCORE.INTRA.DIHEDRAL>
-2.73933

>  <SCORE.INTRA.DIHEDRAL.0>
12.2703

>  <SCORE.INTRA.POLAR>
0

>  <SCORE.INTRA.POLAR.0>
0

>  <SCORE.INTRA.REPUL>
0

>  <SCORE.INTRA.REPUL.0>
0

>  <SCORE.INTRA.SOLV>
-0.681743

>  <SCORE.INTRA.SOLV.lig_0>
-64.3214

>  <SCORE.INTRA.VDW>
-2.87211

>  <SCORE.INTRA.VDW.0>
-1.67301

>  <SCORE.INTRA.norm>
-0.134784

>  <SCORE.RESTR>
0

>  <SCORE.RESTR.CAVITY>
0

>  <SCORE.RESTR.norm>
0

>  <SCORE.SYSTEM>
0

>  <SCORE.SYSTEM.CONST>
0

>  <SCORE.SYSTEM.DIHEDRAL>
0

>  <SCORE.SYSTEM.SOLV>
0

>  <SCORE.SYSTEM.norm>
0

>  <SCORE.heavy>
34

>  <SCORE.norm>
-0.522602

>  <RMSD>
3.684

$$$$
ligand
 OpenBabel11021811483D
libRbt.so/2013.1/901 2013/11/27
 34 36  0  0  0  0  0  0  0  0999 V2000
    4.6699   41.0365   76.6069 N   0  0  0  0  0  0  0  0  0  0  0  0
    3.9338   40.3988   77.7233 C   0  0  1  0  0  0  0  0  0  0  0  0
    5.3547   40.3558   75.6786 C   0  0  0  0  0  0  0  0  0  0  0  0
    5.4513   39.1257   75.6490 O   0  0  0  0  0  0  0  0  0  0  0  0
   12.0165   40.9335   73.5145 N   0  0  0  0  0  0  0  0  0  0  0  0
    3.3719   41.4806   78.6609 C   0  0  0  0  0  0  0  0  0  0  0  0
    2.8755   40.8799   79.9831 C   0  0  0  0  0  0  0  0  0  0  0  0
    4.0287   40.2406   80.7714 C   0  0  0  0  0  0  0  0  0  0  0  0
    4.2905   39.0391   80.5290 O   0  0  0  0  0  0  0  0  0  0  0  0
    4.6252   40.9687   81.5977 O   0  0  0  0  0  0  0  0  0  0  0  0
   11.0674   42.3925   71.9884 N   0  0  0  0  0  0  0  0  0  0  0  0
    1.9551   40.0029   76.4288 O   0  0  0  0  0  0  0  0  0  0  0  0
   11.1658   41.1602   72.5168 C   0  0  0  0  0  0  0  0  0  0  0  0
    2.7713   38.3162   77.6444 O   0  0  0  0  0  0  0  0  0  0  0  0
   10.3809   40.1079   72.0287 N   0  0  0  0  0  0  0  0  0  0  0  0
    9.4933   40.3574   70.9907 C   0  0  0  0  0  0  0  0  0  0  0  0
    9.3931   41.6485   70.4892 C   0  0  0  0  0  0  0  0  0  0  0  0
    8.7868   39.4530   70.5524 O   0  0  0  0  0  0  0  0  0  0  0  0
    8.3859   41.0020   68.4719 C   0  0  0  0  0  0  0  0  0  0  0  0
    8.5689   41.9307   69.4055 N   0  0  0  0  0  0  0  0  0  0  0  0
    7.4093   41.0501   67.7274 O   0  0  0  0  0  0  0  0  0  0  0  0
    8.0796   43.2990   69.2045 C   0  0  2  0  0  0  0  0  0  0  0  0
    9.2649   44.2634   69.2970 C   0  0  0  0  0  0  0  0  0  0  0  0
   10.2150   42.6514   70.9852 C   0  0  0  0  0  0  0  0  0  0  0  0
   10.1439   43.9415   70.4482 N   0  0  0  0  0  0  0  0  0  0  0  0
    7.0261   43.6528   70.2599 C   0  0  0  0  0  0  0  0  0  0  0  0
    7.6239   43.5796   71.5988 N   0  0  0  0  0  0  0  0  0  0  0  0
    5.9960   41.2296   74.5855 C   0  0  0  0  0  0  0  0  0  0  0  0
    6.4140   40.6651   73.3828 C   0  0  0  0  0  0  0  0  0  0  0  0
    6.9431   41.4659   72.3726 C   0  0  0  0  0  0  0  0  0  0  0  0
    7.1016   42.8333   72.5714 C   0  0  0  0  0  0  0  0  0  0  0  0
    6.6930   43.3974   73.7752 C   0  0  0  0  0  0  0  0  0  0  0  0
    6.1306   42.6023   74.7729 C   0  0  0  0  0  0  0  0  0  0  0  0
    2.7879   39.4972   77.2196 C   0  0  0  0  0  0  0  0  0  0  0  0
  1  3  1  0  0  0  0
  2  1  1  6  0  0  0
  2  6  1  0  0  0  0
  2 34  1  0  0  0  0
  3  4  2  0  0  0  0
  3 28  1  0  0  0  0
  5 13  1  0  0  0  0
  6  7  1  0  0  0  0
  7  8  1  0  0  0  0
  8  9  1  0  0  0  0
  8 10  1  0  0  0  0
 11 13  2  0  0  0  0
 11 24  1  0  0  0  0
 12 34  1  0  0  0  0
 13 15  1  0  0  0  0
 14 34  1  0  0  0  0
 15 16  1  0  0  0  0
 16 17  1  0  0  0  0
 16 18  2  0  0  0  0
 17 20  1  0  0  0  0
 17 24  2  0  0  0  0
 19 21  1  0  0  0  0
 19 20  1  0  0  0  0
 20 22  1  0  0  0  0
 22 23  1  0  0  0  0
 22 26  1  1  0  0  0
 23 25  1  0  0  0  0
 24 25  1  0  0  0  0
 26 27  1  0  0  0  0
 27 31  1  0  0  0  0
 28 29  2  0  0  0  0
 28 33  1  0  0  0  0
 29 30  1  0  0  0  0
 30 31  2  0  0  0  0
 31 32  1  0  0  0  0
 32 33  2  0  0  0  0
M  END
>  <CHROM.1>
175.00475178,-167.39368184,-53.20403577,63.44930219,-88.32572423,159.29925433
61.18169619,-125.56122744,58.04061635,-162.36603892,6.83328634,41.26763171
73.86361927,2.12946448,0.08535499,1.74308111

>  <Name>
ligand

>  <RI>
0

>  <Rbt.Current_Directory>
/home/itssahil/PROJECTS/Mol_Feturizer/New_Systems/rnas/3SUH

>  <Rbt.Executable>
rbdock ($Id: //depot/dev/client3/rdock/2013.1/src/exe/rbdock.cxx#4 $)

>  <Rbt.Library>
libRbt.so (2013.1, Build901 2013/11/27)

>  <Rbt.Parameter_File>
/export/apps/rDock/src/rDock_2013.1_src/data/scripts/dock_solv.prm

>  <Rbt.Receptor>
prm/pocket_docking_3.prm

>  <SCORE>
-5.47319

>  <SCORE.INTER>
-1.6273

>  <SCORE.INTER.CONST>
1

>  <SCORE.INTER.POLAR>
0

>  <SCORE.INTER.ROT>
10

>  <SCORE.INTER.SOLV>
8.3272

>  <SCORE.INTER.VDW>
-14.1273

>  <SCORE.INTER.norm>
-0.0478617

>  <SCORE.INTRA>
-3.8459

>  <SCORE.INTRA.DIHEDRAL>
-4.24796

>  <SCORE.INTRA.DIHEDRAL.0>
12.2703

>  <SCORE.INTRA.POLAR>
0

>  <SCORE.INTRA.POLAR.0>
0

>  <SCORE.INTRA.REPUL>
0

>  <SCORE.INTRA.REPUL.0>
0

>  <SCORE.INTRA.SOLV>
1.90269

>  <SCORE.INTRA.SOLV.lig_0>
-64.3214

>  <SCORE.INTRA.VDW>
-2.67326

>  <SCORE.INTRA.VDW.0>
-1.67301

>  <SCORE.INTRA.norm>
-0.113115

>  <SCORE.RESTR>
0

>  <SCORE.RESTR.CAVITY>
0

>  <SCORE.RESTR.norm>
0

>  <SCORE.SYSTEM>
0

>  <SCORE.SYSTEM.CONST>
0

>  <SCORE.SYSTEM.DIHEDRAL>
0

>  <SCORE.SYSTEM.SOLV>
0

>  <SCORE.SYSTEM.norm>
0

>  <SCORE.heavy>
34

>  <SCORE.norm>
-0.160976

>  <RMSD>
3.708

$$$$
ligand
 OpenBabel11021811483D
libRbt.so/2013.1/901 2013/11/27
 34 36  0  0  0  0  0  0  0  0999 V2000
    6.5085   42.4891   74.4089 N   0  0  0  0  0  0  0  0  0  0  0  0
    6.1556   42.7377   75.8261 C   0  0  1  0  0  0  0  0  0  0  0  0
    6.1313   43.2797   73.3957 C   0  0  0  0  0  0  0  0  0  0  0  0
    5.4486   44.2995   73.5268 O   0  0  0  0  0  0  0  0  0  0  0  0
   12.9726   46.4575   71.1374 N   0  0  0  0  0  0  0  0  0  0  0  0
    6.3286   41.4442   76.6398 C   0  0  0  0  0  0  0  0  0  0  0  0
    5.2224   40.4276   76.3269 C   0  0  0  0  0  0  0  0  0  0  0  0
    3.8596   40.9109   76.8460 C   0  0  0  0  0  0  0  0  0  0  0  0
    3.3545   40.2779   77.8027 O   0  0  0  0  0  0  0  0  0  0  0  0
    3.3538   41.9050   76.2761 O   0  0  0  0  0  0  0  0  0  0  0  0
   12.3819   45.2626   69.2449 N   0  0  0  0  0  0  0  0  0  0  0  0
    8.2061   43.9542   76.0779 O   0  0  0  0  0  0  0  0  0  0  0  0
   12.5011   45.3443   70.5815 C   0  0  0  0  0  0  0  0  0  0  0  0
    6.4413   44.6078   77.2809 O   0  0  0  0  0  0  0  0  0  0  0  0
   12.1335   44.2685   71.3995 N   0  0  0  0  0  0  0  0  0  0  0  0
   11.6382   43.1139   70.8085 C   0  0  0  0  0  0  0  0  0  0  0  0
   11.4977   43.0741   69.4276 C   0  0  0  0  0  0  0  0  0  0  0  0
   11.2995   42.1607   71.5056 O   0  0  0  0  0  0  0  0  0  0  0  0
   11.3924   40.7340   69.3045 C   0  0  0  0  0  0  0  0  0  0  0  0
   11.0712   41.9160   68.7871 N   0  0  0  0  0  0  0  0  0  0  0  0
   10.5207   39.9898   69.7480 O   0  0  0  0  0  0  0  0  0  0  0  0
   10.4537   42.0077   67.4596 C   0  0  2  0  0  0  0  0  0  0  0  0
   11.3440   42.8712   66.5622 C   0  0  0  0  0  0  0  0  0  0  0  0
   11.9052   44.1547   68.6571 C   0  0  0  0  0  0  0  0  0  0  0  0
   11.8041   44.0955   67.2628 N   0  0  0  0  0  0  0  0  0  0  0  0
    9.0523   42.6197   67.5606 C   0  0  0  0  0  0  0  0  0  0  0  0
    8.1795   41.7303   68.3368 N   0  0  0  0  0  0  0  0  0  0  0  0
    6.6606   42.8499   72.0155 C   0  0  0  0  0  0  0  0  0  0  0  0
    6.8239   43.7860   70.9972 C   0  0  0  0  0  0  0  0  0  0  0  0
    7.3553   43.4057   69.7665 C   0  0  0  0  0  0  0  0  0  0  0  0
    7.6870   42.0766   69.5256 C   0  0  0  0  0  0  0  0  0  0  0  0
    7.5163   41.1389   70.5384 C   0  0  0  0  0  0  0  0  0  0  0  0
    7.0180   41.5250   71.7819 C   0  0  0  0  0  0  0  0  0  0  0  0
    7.0098   43.8630   76.4456 C   0  0  0  0  0  0  0  0  0  0  0  0
  1  3  1  0  0  0  0
  2  1  1  6  0  0  0
  2  6  1  0  0  0  0
  2 34  1  0  0  0  0
  3  4  2  0  0  0  0
  3 28  1  0  0  0  0
  5 13  1  0  0  0  0
  6  7  1  0  0  0  0
  7  8  1  0  0  0  0
  8  9  1  0  0  0  0
  8 10  1  0  0  0  0
 11 13  2  0  0  0  0
 11 24  1  0  0  0  0
 12 34  1  0  0  0  0
 13 15  1  0  0  0  0
 14 34  1  0  0  0  0
 15 16  1  0  0  0  0
 16 17  1  0  0  0  0
 16 18  2  0  0  0  0
 17 20  1  0  0  0  0
 17 24  2  0  0  0  0
 19 21  1  0  0  0  0
 19 20  1  0  0  0  0
 20 22  1  0  0  0  0
 22 23  1  0  0  0  0
 22 26  1  1  0  0  0
 23 25  1  0  0  0  0
 24 25  1  0  0  0  0
 26 27  1  0  0  0  0
 27 31  1  0  0  0  0
 28 29  2  0  0  0  0
 28 33  1  0  0  0  0
 29 30  1  0  0  0  0
 30 31  2  0  0  0  0
 31 32  1  0  0  0  0
 32 33  2  0  0  0  0
M  END
>  <CHROM.1>
161.26515676,-72.78287161,-35.52254796,-68.40896521,-111.50870781,114.21175201
-64.19073081,113.75679186,34.41538314,-154.22749245,8.53401285,42.76928901
71.95886544,-2.44773136,-0.60902047,-2.03040105

>  <Name>
ligand

>  <RI>
0

>  <Rbt.Current_Directory>
/home/itssahil/PROJECTS/Mol_Feturizer/New_Systems/rnas/3SUH

>  <Rbt.Executable>
rbdock ($Id: //depot/dev/client3/rdock/2013.1/src/exe/rbdock.cxx#4 $)

>  <Rbt.Library>
libRbt.so (2013.1, Build901 2013/11/27)

>  <Rbt.Parameter_File>
/export/apps/rDock/src/rDock_2013.1_src/data/scripts/dock_solv.prm

>  <Rbt.Receptor>
prm/pocket_docking_8.prm

>  <SCORE>
-16.9601

>  <SCORE.INTER>
-12.867

>  <SCORE.INTER.CONST>
1

>  <SCORE.INTER.POLAR>
0

>  <SCORE.INTER.ROT>
10

>  <SCORE.INTER.SOLV>
18.5901

>  <SCORE.INTER.VDW>
-25.0414

>  <SCORE.INTER.norm>
-0.378441

>  <SCORE.INTRA>
-4.09317

>  <SCORE.INTRA.DIHEDRAL>
-3.20263

>  <SCORE.INTRA.DIHEDRAL.0>
12.2703

>  <SCORE.INTRA.POLAR>
0

>  <SCORE.INTRA.POLAR.0>
0

>  <SCORE.INTRA.REPUL>
0

>  <SCORE.INTRA.REPUL.0>
0

>  <SCORE.INTRA.SOLV>
0.27273

>  <SCORE.INTRA.SOLV.lig_0>
-64.3214

>  <SCORE.INTRA.VDW>
-2.62822

>  <SCORE.INTRA.VDW.0>
-1.67301

>  <SCORE.INTRA.norm>
-0.120387

>  <SCORE.RESTR>
0

>  <SCORE.RESTR.CAVITY>
0

>  <SCORE.RESTR.norm>
0

>  <SCORE.SYSTEM>
0

>  <SCORE.SYSTEM.CONST>
0

>  <SCORE.SYSTEM.DIHEDRAL>
0

>  <SCORE.SYSTEM.SOLV>
0

>  <SCORE.SYSTEM.norm>
0

>  <SCORE.heavy>
34

>  <SCORE.norm>
-0.498828

>  <RMSD>
3.713

$$$$
ligand
 OpenBabel11021811483D
libRbt.so/2013.1/901 2013/11/27
 34 36  0  0  0  0  0  0  0  0999 V2000
    5.9774   43.5441   75.9831 N   0  0  0  0  0  0  0  0  0  0  0  0
    5.5872   44.2030   77.2513 C   0  0  1  0  0  0  0  0  0  0  0  0
    5.4367   42.4025   75.5376 C   0  0  0  0  0  0  0  0  0  0  0  0
    4.5574   41.7719   76.1311 O   0  0  0  0  0  0  0  0  0  0  0  0
    7.1103   46.2216   70.4253 N   0  0  0  0  0  0  0  0  0  0  0  0
    6.1232   43.3938   78.4442 C   0  0  0  0  0  0  0  0  0  0  0  0
    5.4692   43.8300   79.7623 C   0  0  0  0  0  0  0  0  0  0  0  0
    3.9663   43.5116   79.7697 C   0  0  0  0  0  0  0  0  0  0  0  0
    3.2075   44.3190   79.1835 O   0  0  0  0  0  0  0  0  0  0  0  0
    3.6092   42.4659   80.3594 O   0  0  0  0  0  0  0  0  0  0  0  0
    7.6885   44.2166   69.4232 N   0  0  0  0  0  0  0  0  0  0  0  0
    5.4487   46.4665   78.0292 O   0  0  0  0  0  0  0  0  0  0  0  0
    7.8778   45.1353   70.3863 C   0  0  0  0  0  0  0  0  0  0  0  0
    7.1447   45.9195   76.6827 O   0  0  0  0  0  0  0  0  0  0  0  0
    8.8763   44.9627   71.3531 N   0  0  0  0  0  0  0  0  0  0  0  0
    9.6678   43.8230   71.3054 C   0  0  0  0  0  0  0  0  0  0  0  0
    9.4249   42.8784   70.3169 C   0  0  0  0  0  0  0  0  0  0  0  0
   10.5433   43.6443   72.1484 O   0  0  0  0  0  0  0  0  0  0  0  0
   11.5236   41.8476   70.5052 C   0  0  0  0  0  0  0  0  0  0  0  0
   10.2355   41.7560   70.1884 N   0  0  0  0  0  0  0  0  0  0  0  0
   12.1658   40.8427   70.8017 O   0  0  0  0  0  0  0  0  0  0  0  0
    9.7129   40.5572   69.5236 C   0  0  2  0  0  0  0  0  0  0  0  0
    9.0803   40.9700   68.1921 C   0  0  0  0  0  0  0  0  0  0  0  0
    8.4439   43.1095   69.3621 C   0  0  0  0  0  0  0  0  0  0  0  0
    8.2306   42.1773   68.3407 N   0  0  0  0  0  0  0  0  0  0  0  0
    8.6739   39.8619   70.4099 C   0  0  0  0  0  0  0  0  0  0  0  0
    7.4775   40.7051   70.5234 N   0  0  0  0  0  0  0  0  0  0  0  0
    5.9635   41.9347   74.1688 C   0  0  0  0  0  0  0  0  0  0  0  0
    6.2257   42.8569   73.1585 C   0  0  0  0  0  0  0  0  0  0  0  0
    6.7550   42.4379   71.9395 C   0  0  0  0  0  0  0  0  0  0  0  0
    6.9854   41.0871   71.7014 C   0  0  0  0  0  0  0  0  0  0  0  0
    6.7157   40.1639   72.7060 C   0  0  0  0  0  0  0  0  0  0  0  0
    6.2197   40.5860   73.9386 C   0  0  0  0  0  0  0  0  0  0  0  0
    6.1028   45.6548   77.3307 C   0  0  0  0  0  0  0  0  0  0  0  0
  1  3  1  0  0  0  0
  2  1  1  6  0  0  0
  2  6  1  0  0  0  0
  2 34  1  0  0  0  0
  3  4  2  0  0  0  0
  3 28  1  0  0  0  0
  5 13  1  0  0  0  0
  6  7  1  0  0  0  0
  7  8  1  0  0  0  0
  8  9  1  0  0  0  0
  8 10  1  0  0  0  0
 11 13  2  0  0  0  0
 11 24  1  0  0  0  0
 12 34  1  0  0  0  0
 13 15  1  0  0  0  0
 14 34  1  0  0  0  0
 15 16  1  0  0  0  0
 16 17  1  0  0  0  0
 16 18  2  0  0  0  0
 17 20  1  0  0  0  0
 17 24  2  0  0  0  0
 19 21  1  0  0  0  0
 19 20  1  0  0  0  0
 20 22  1  0  0  0  0
 22 23  1  0  0  0  0
 22 26  1  1  0  0  0
 23 25  1  0  0  0  0
 24 25  1  0  0  0  0
 26 27  1  0  0  0  0
 27 31  1  0  0  0  0
 28 29  2  0  0  0  0
 28 33  1  0  0  0  0
 29 30  1  0  0  0  0
 30 31  2  0  0  0  0
 31 32  1  0  0  0  0
 32 33  2  0  0  0  0
M  END
>  <CHROM.1>
72.23784099,-166.09940889,152.36715108,65.34912982,-81.26802945,157.50419113
67.89268037,-124.57073743,127.06087815,-38.73255501,7.30256515,42.95322610
73.48581589,-2.68904858,-1.03726399,-2.83925991

>  <Name>
ligand

>  <RI>
0

>  <Rbt.Current_Directory>
/home/itssahil/PROJECTS/Mol_Feturizer/New_Systems/rnas/3SUH

>  <Rbt.Executable>
rbdock ($Id: //depot/dev/client3/rdock/2013.1/src/exe/rbdock.cxx#4 $)

>  <Rbt.Library>
libRbt.so (2013.1, Build901 2013/11/27)

>  <Rbt.Parameter_File>
/export/apps/rDock/src/rDock_2013.1_src/data/scripts/dock_solv.prm

>  <Rbt.Receptor>
prm/pocket_docking_5.prm

>  <SCORE>
-6.86989

>  <SCORE.INTER>
-3.24594

>  <SCORE.INTER.CONST>
1

>  <SCORE.INTER.POLAR>
0

>  <SCORE.INTER.ROT>
10

>  <SCORE.INTER.SOLV>
12.9579

>  <SCORE.INTER.VDW>
-16.7499

>  <SCORE.INTER.norm>
-0.0954688

>  <SCORE.INTRA>
-3.62395

>  <SCORE.INTRA.DIHEDRAL>
-3.71342

>  <SCORE.INTRA.DIHEDRAL.0>
12.2703

>  <SCORE.INTRA.POLAR>
0

>  <SCORE.INTRA.POLAR.0>
0

>  <SCORE.INTRA.REPUL>
0

>  <SCORE.INTRA.REPUL.0>
0

>  <SCORE.INTRA.SOLV>
1.74198

>  <SCORE.INTRA.SOLV.lig_0>
-64.3214

>  <SCORE.INTRA.VDW>
-2.63822

>  <SCORE.INTRA.VDW.0>
-1.67301

>  <SCORE.INTRA.norm>
-0.106587

>  <SCORE.RESTR>
0

>  <SCORE.RESTR.CAVITY>
0

>  <SCORE.RESTR.norm>
0

>  <SCORE.SYSTEM>
0

>  <SCORE.SYSTEM.CONST>
0

>  <SCORE.SYSTEM.DIHEDRAL>
0

>  <SCORE.SYSTEM.SOLV>
0

>  <SCORE.SYSTEM.norm>
0

>  <SCORE.heavy>
34

>  <SCORE.norm>
-0.202056

>  <RMSD>
3.714

$$$$
ligand
 OpenBabel11021811483D
libRbt.so/2013.1/901 2013/11/27
 34 36  0  0  0  0  0  0  0  0999 V2000
    5.8610   42.0181   74.0857 N   0  0  0  0  0  0  0  0  0  0  0  0
    5.3807   42.1501   75.4809 C   0  0  1  0  0  0  0  0  0  0  0  0
    6.2267   43.0549   73.3206 C   0  0  0  0  0  0  0  0  0  0  0  0
    6.2035   44.2327   73.6888 O   0  0  0  0  0  0  0  0  0  0  0  0
   12.8192   46.3620   71.2932 N   0  0  0  0  0  0  0  0  0  0  0  0
    6.4223   42.9092   76.3200 C   0  0  0  0  0  0  0  0  0  0  0  0
    7.7231   42.1079   76.4655 C   0  0  0  0  0  0  0  0  0  0  0  0
    8.4675   42.0076   75.1254 C   0  0  0  0  0  0  0  0  0  0  0  0
    8.4294   40.9048   74.5309 O   0  0  0  0  0  0  0  0  0  0  0  0
    9.0565   43.0373   74.7234 O   0  0  0  0  0  0  0  0  0  0  0  0
   12.3275   45.2102   69.3464 N   0  0  0  0  0  0  0  0  0  0  0  0
    3.1383   42.3753   76.2987 O   0  0  0  0  0  0  0  0  0  0  0  0
   12.3861   45.2587   70.6887 C   0  0  0  0  0  0  0  0  0  0  0  0
    3.8939   43.9124   74.8651 O   0  0  0  0  0  0  0  0  0  0  0  0
   11.9953   44.1581   71.4618 N   0  0  0  0  0  0  0  0  0  0  0  0
   11.5405   43.0140   70.8202 C   0  0  0  0  0  0  0  0  0  0  0  0
   11.4621   43.0084   69.4337 C   0  0  0  0  0  0  0  0  0  0  0  0
   11.1825   42.0395   71.4769 O   0  0  0  0  0  0  0  0  0  0  0  0
   11.3901   40.6713   69.2467 C   0  0  0  0  0  0  0  0  0  0  0  0
   11.0782   41.8628   68.7456 N   0  0  0  0  0  0  0  0  0  0  0  0
   12.5639   40.3659   69.4445 O   0  0  0  0  0  0  0  0  0  0  0  0
   10.5194   41.9823   67.3945 C   0  0  2  0  0  0  0  0  0  0  0  0
   11.4384   42.8781   66.5601 C   0  0  0  0  0  0  0  0  0  0  0  0
   11.8906   44.1129   68.7100 C   0  0  0  0  0  0  0  0  0  0  0  0
   11.8524   44.0887   67.3115 N   0  0  0  0  0  0  0  0  0  0  0  0
    9.1077   42.5763   67.4482 C   0  0  0  0  0  0  0  0  0  0  0  0
    8.2197   41.6740   68.1914 N   0  0  0  0  0  0  0  0  0  0  0  0
    6.7413   42.6697   71.9218 C   0  0  0  0  0  0  0  0  0  0  0  0
    6.8381   43.6271   70.9149 C   0  0  0  0  0  0  0  0  0  0  0  0
    7.3562   43.2893   69.6663 C   0  0  0  0  0  0  0  0  0  0  0  0
    7.7410   41.9802   69.3968 C   0  0  0  0  0  0  0  0  0  0  0  0
    7.6367   41.0209   70.3983 C   0  0  0  0  0  0  0  0  0  0  0  0
    7.1517   41.3658   71.6591 C   0  0  0  0  0  0  0  0  0  0  0  0
    4.0202   42.8732   75.5578 C   0  0  0  0  0  0  0  0  0  0  0  0
  1  3  1  0  0  0  0
  2  1  1  6  0  0  0
  2  6  1  0  0  0  0
  2 34  1  0  0  0  0
  3  4  2  0  0  0  0
  3 28  1  0  0  0  0
  5 13  1  0  0  0  0
  6  7  1  0  0  0  0
  7  8  1  0  0  0  0
  8  9  1  0  0  0  0
  8 10  1  0  0  0  0
 11 13  2  0  0  0  0
 11 24  1  0  0  0  0
 12 34  1  0  0  0  0
 13 15  1  0  0  0  0
 14 34  1  0  0  0  0
 15 16  1  0  0  0  0
 16 17  1  0  0  0  0
 16 18  2  0  0  0  0
 17 20  1  0  0  0  0
 17 24  2  0  0  0  0
 19 21  1  0  0  0  0
 19 20  1  0  0  0  0
 20 22  1  0  0  0  0
 22 23  1  0  0  0  0
 22 26  1  1  0  0  0
 23 25  1  0  0  0  0
 24 25  1  0  0  0  0
 26 27  1  0  0  0  0
 27 31  1  0  0  0  0
 28 29  2  0  0  0  0
 28 33  1  0  0  0  0
 29 30  1  0  0  0  0
 30 31  2  0  0  0  0
 31 32  1  0  0  0  0
 32 33  2  0  0  0  0
M  END
>  <CHROM.1>
-55.37585427,-65.95558585,134.41732973,68.81117804,-105.62059954,-59.16951915
-62.75124758,109.96666123,38.65526823,163.91785430,8.82042443,42.77529906
71.60106197,2.36403157,0.30686974,1.33371974

>  <Name>
ligand

>  <RI>
0

>  <Rbt.Current_Directory>
/home/itssahil/PROJECTS/Mol_Feturizer/New_Systems/rnas/3SUH

>  <Rbt.Executable>
rbdock ($Id: //depot/dev/client3/rdock/2013.1/src/exe/rbdock.cxx#4 $)

>  <Rbt.Library>
libRbt.so (2013.1, Build901 2013/11/27)

>  <Rbt.Parameter_File>
/export/apps/rDock/src/rDock_2013.1_src/data/scripts/dock_solv.prm

>  <Rbt.Receptor>
prm/pocket_docking_7.prm

>  <SCORE>
-18.214

>  <SCORE.INTER>
-13.6329

>  <SCORE.INTER.CONST>
1

>  <SCORE.INTER.POLAR>
0

>  <SCORE.INTER.ROT>
10

>  <SCORE.INTER.SOLV>
18.8711

>  <SCORE.INTER.VDW>
-25.6456

>  <SCORE.INTER.norm>
-0.400968

>  <SCORE.INTRA>
-4.58111

>  <SCORE.INTRA.DIHEDRAL>
-4.33712

>  <SCORE.INTRA.DIHEDRAL.0>
12.2703

>  <SCORE.INTRA.POLAR>
0

>  <SCORE.INTRA.POLAR.0>
0

>  <SCORE.INTRA.REPUL>
0

>  <SCORE.INTRA.REPUL.0>
0

>  <SCORE.INTRA.SOLV>
0.931313

>  <SCORE.INTRA.SOLV.lig_0>
-64.3214

>  <SCORE.INTRA.VDW>
-2.8782

>  <SCORE.INTRA.VDW.0>
-1.67301

>  <SCORE.INTRA.norm>
-0.134738

>  <SCORE.RESTR>
0

>  <SCORE.RESTR.CAVITY>
0

>  <SCORE.RESTR.norm>
0

>  <SCORE.SYSTEM>
0

>  <SCORE.SYSTEM.CONST>
0

>  <SCORE.SYSTEM.DIHEDRAL>
0

>  <SCORE.SYSTEM.SOLV>
0

>  <SCORE.SYSTEM.norm>
0

>  <SCORE.heavy>
34

>  <SCORE.norm>
-0.535706

>  <RMSD>
3.738

$$$$
ligand
 OpenBabel11021811483D
libRbt.so/2013.1/901 2013/11/27
 34 36  0  0  0  0  0  0  0  0999 V2000
    6.2462   42.3552   74.5630 N   0  0  0  0  0  0  0  0  0  0  0  0
    5.8465   42.4954   75.9826 C   0  0  1  0  0  0  0  0  0  0  0  0
    5.9003   43.2206   73.6009 C   0  0  0  0  0  0  0  0  0  0  0  0
    5.2111   44.2274   73.7866 O   0  0  0  0  0  0  0  0  0  0  0  0
    9.5254   46.7748   70.9039 N   0  0  0  0  0  0  0  0  0  0  0  0
    6.3268   41.2721   76.7814 C   0  0  0  0  0  0  0  0  0  0  0  0
    5.7267   39.9695   76.2351 C   0  0  0  0  0  0  0  0  0  0  0  0
    6.3816   39.5707   74.9038 C   0  0  0  0  0  0  0  0  0  0  0  0
    7.5661   39.1634   74.9483 O   0  0  0  0  0  0  0  0  0  0  0  0
    5.6819   39.6796   73.8706 O   0  0  0  0  0  0  0  0  0  0  0  0
    9.9077   45.1563   69.2938 N   0  0  0  0  0  0  0  0  0  0  0  0
    5.6918   44.3757   77.4620 O   0  0  0  0  0  0  0  0  0  0  0  0
    9.8323   45.5198   70.5859 C   0  0  0  0  0  0  0  0  0  0  0  0
    7.5432   44.1550   76.2322 O   0  0  0  0  0  0  0  0  0  0  0  0
   10.0734   44.5904   71.6055 N   0  0  0  0  0  0  0  0  0  0  0  0
   10.3879   43.2826   71.2618 C   0  0  0  0  0  0  0  0  0  0  0  0
   10.4261   42.9325   69.9185 C   0  0  0  0  0  0  0  0  0  0  0  0
   10.5936   42.4468   72.1384 O   0  0  0  0  0  0  0  0  0  0  0  0
   11.6940   40.9878   70.2545 C   0  0  0  0  0  0  0  0  0  0  0  0
   10.8033   41.6532   69.5253 N   0  0  0  0  0  0  0  0  0  0  0  0
   11.5845   39.7747   70.4182 O   0  0  0  0  0  0  0  0  0  0  0  0
   10.3728   41.1400   68.2202 C   0  0  2  0  0  0  0  0  0  0  0  0
   10.6863   42.1903   67.1515 C   0  0  0  0  0  0  0  0  0  0  0  0
   10.2103   43.8970   68.9436 C   0  0  0  0  0  0  0  0  0  0  0  0
   10.2929   43.5520   67.5901 N   0  0  0  0  0  0  0  0  0  0  0  0
    8.8719   40.8306   68.2336 C   0  0  0  0  0  0  0  0  0  0  0  0
    8.1165   42.0590   68.5090 N   0  0  0  0  0  0  0  0  0  0  0  0
    6.4753   42.8969   72.2101 C   0  0  0  0  0  0  0  0  0  0  0  0
    6.6817   43.9095   71.2764 C   0  0  0  0  0  0  0  0  0  0  0  0
    7.2540   43.6232   70.0385 C   0  0  0  0  0  0  0  0  0  0  0  0
    7.5845   42.3143   69.7038 C   0  0  0  0  0  0  0  0  0  0  0  0
    7.3708   41.3005   70.6317 C   0  0  0  0  0  0  0  0  0  0  0  0
    6.8312   41.5913   71.8839 C   0  0  0  0  0  0  0  0  0  0  0  0
    6.4065   43.7858   76.6159 C   0  0  0  0  0  0  0  0  0  0  0  0
  1  3  1  0  0  0  0
  2  1  1  6  0  0  0
  2  6  1  0  0  0  0
  2 34  1  0  0  0  0
  3  4  2  0  0  0  0
  3 28  1  0  0  0  0
  5 13  1  0  0  0  0
  6  7  1  0  0  0  0
  7  8  1  0  0  0  0
  8  9  1  0  0  0  0
  8 10  1  0  0  0  0
 11 13  2  0  0  0  0
 11 24  1  0  0  0  0
 12 34  1  0  0  0  0
 13 15  1  0  0  0  0
 14 34  1  0  0  0  0
 15 16  1  0  0  0  0
 16 17  1  0  0  0  0
 16 18  2  0  0  0  0
 17 20  1  0  0  0  0
 17 24  2  0  0  0  0
 19 21  1  0  0  0  0
 19 20  1  0  0  0  0
 20 22  1  0  0  0  0
 22 23  1  0  0  0  0
 22 26  1  1  0  0  0
 23 25  1  0  0  0  0
 24 25  1  0  0  0  0
 26 27  1  0  0  0  0
 27 31  1  0  0  0  0
 28 29  2  0  0  0  0
 28 33  1  0  0  0  0
 29 30  1  0  0  0  0
 30 31  2  0  0  0  0
 31 32  1  0  0  0  0
 32 33  2  0  0  0  0
M  END
>  <CHROM.1>
175.70120204,-59.77814096,144.71139092,73.66456789,70.88148195,142.75956832
61.08264740,-103.10093150,160.10945171,-153.59703507,8.24577819,42.51499966
72.00027029,3.07343413,-1.02547516,3.13981059

>  <Name>
ligand

>  <RI>
0

>  <Rbt.Current_Directory>
/home/itssahil/PROJECTS/Mol_Feturizer/New_Systems/rnas/3SUH

>  <Rbt.Executable>
rbdock ($Id: //depot/dev/client3/rdock/2013.1/src/exe/rbdock.cxx#4 $)

>  <Rbt.Library>
libRbt.so (2013.1, Build901 2013/11/27)

>  <Rbt.Parameter_File>
/export/apps/rDock/src/rDock_2013.1_src/data/scripts/dock_solv.prm

>  <Rbt.Receptor>
prm/pocket_docking_6.prm

>  <SCORE>
-13.2449

>  <SCORE.INTER>
-8.38364

>  <SCORE.INTER.CONST>
1

>  <SCORE.INTER.POLAR>
0

>  <SCORE.INTER.ROT>
10

>  <SCORE.INTER.SOLV>
14.6801

>  <SCORE.INTER.VDW>
-20.7491

>  <SCORE.INTER.norm>
-0.246578

>  <SCORE.INTRA>
-4.86123

>  <SCORE.INTRA.DIHEDRAL>
-4.24909

>  <SCORE.INTRA.DIHEDRAL.0>
12.2703

>  <SCORE.INTRA.POLAR>
0

>  <SCORE.INTRA.POLAR.0>
0

>  <SCORE.INTRA.REPUL>
0

>  <SCORE.INTRA.REPUL.0>
0

>  <SCORE.INTRA.SOLV>
2.666

>  <SCORE.INTRA.SOLV.lig_0>
-64.3214

>  <SCORE.INTRA.VDW>
-4.06968

>  <SCORE.INTRA.VDW.0>
-1.67301

>  <SCORE.INTRA.norm>
-0.142977

>  <SCORE.RESTR>
0

>  <SCORE.RESTR.CAVITY>
0

>  <SCORE.RESTR.norm>
0

>  <SCORE.SYSTEM>
0

>  <SCORE.SYSTEM.CONST>
0

>  <SCORE.SYSTEM.DIHEDRAL>
0

>  <SCORE.SYSTEM.SOLV>
0

>  <SCORE.SYSTEM.norm>
0

>  <SCORE.heavy>
34

>  <SCORE.norm>
-0.389555

>  <RMSD>
3.739

$$$$
ligand
 OpenBabel11021811483D
libRbt.so/2013.1/901 2013/11/27
 34 36  0  0  0  0  0  0  0  0999 V2000
    6.5724   42.5623   74.6839 N   0  0  0  0  0  0  0  0  0  0  0  0
    6.2399   42.7665   76.1131 C   0  0  1  0  0  0  0  0  0  0  0  0
    5.9866   43.2260   73.6787 C   0  0  0  0  0  0  0  0  0  0  0  0
    5.1062   44.0779   73.8281 O   0  0  0  0  0  0  0  0  0  0  0  0
    9.5115   46.7537   70.8551 N   0  0  0  0  0  0  0  0  0  0  0  0
    6.8252   41.6184   76.9525 C   0  0  0  0  0  0  0  0  0  0  0  0
    6.1833   40.2716   76.5930 C   0  0  0  0  0  0  0  0  0  0  0  0
    6.5633   39.8365   75.1695 C   0  0  0  0  0  0  0  0  0  0  0  0
    5.6567   39.8555   74.3042 O   0  0  0  0  0  0  0  0  0  0  0  0
    7.7535   39.4968   74.9772 O   0  0  0  0  0  0  0  0  0  0  0  0
    9.8873   45.1099   69.2692 N   0  0  0  0  0  0  0  0  0  0  0  0
    6.0494   44.7342   77.4695 O   0  0  0  0  0  0  0  0  0  0  0  0
    9.8171   45.4938   70.5557 C   0  0  0  0  0  0  0  0  0  0  0  0
    7.8697   44.5078   76.1951 O   0  0  0  0  0  0  0  0  0  0  0  0
   10.0621   44.5806   71.5890 N   0  0  0  0  0  0  0  0  0  0  0  0
   10.3752   43.2674   71.2647 C   0  0  0  0  0  0  0  0  0  0  0  0
   10.4080   42.8962   69.9270 C   0  0  0  0  0  0  0  0  0  0  0  0
   10.5843   42.4456   72.1536 O   0  0  0  0  0  0  0  0  0  0  0  0
   11.6771   40.9569   70.2886 C   0  0  0  0  0  0  0  0  0  0  0  0
   10.7836   41.6108   69.5526 N   0  0  0  0  0  0  0  0  0  0  0  0
   11.5495   39.7530   70.5004 O   0  0  0  0  0  0  0  0  0  0  0  0
   10.3479   41.0771   68.2574 C   0  0  2  0  0  0  0  0  0  0  0  0
   10.6573   42.1103   67.1710 C   0  0  0  0  0  0  0  0  0  0  0  0
   10.1885   43.8452   68.9378 C   0  0  0  0  0  0  0  0  0  0  0  0
   10.2657   43.4789   67.5896 N   0  0  0  0  0  0  0  0  0  0  0  0
    8.8471   40.7682   68.2816 C   0  0  0  0  0  0  0  0  0  0  0  0
    8.0937   41.9980   68.5562 N   0  0  0  0  0  0  0  0  0  0  0  0
    6.5320   42.8838   72.2804 C   0  0  0  0  0  0  0  0  0  0  0  0
    6.7036   43.8817   71.3240 C   0  0  0  0  0  0  0  0  0  0  0  0
    7.2494   43.5796   70.0780 C   0  0  0  0  0  0  0  0  0  0  0  0
    7.5875   42.2688   69.7588 C   0  0  0  0  0  0  0  0  0  0  0  0
    7.4085   41.2696   70.7095 C   0  0  0  0  0  0  0  0  0  0  0  0
    6.8957   41.5767   71.9690 C   0  0  0  0  0  0  0  0  0  0  0  0
    6.7626   44.1187   76.6405 C   0  0  0  0  0  0  0  0  0  0  0  0
  1  3  1  0  0  0  0
  2  1  1  6  0  0  0
  2  6  1  0  0  0  0
  2 34  1  0  0  0  0
  3  4  2  0  0  0  0
  3 28  1  0  0  0  0
  5 13  1  0  0  0  0
  6  7  1  0  0  0  0
  7  8  1  0  0  0  0
  8  9  1  0  0  0  0
  8 10  1  0  0  0  0
 11 13  2  0  0  0  0
 11 24  1  0  0  0  0
 12 34  1  0  0  0  0
 13 15  1  0  0  0  0
 14 34  1  0  0  0  0
 15 16  1  0  0  0  0
 16 17  1  0  0  0  0
 16 18  2  0  0  0  0
 17 20  1  0  0  0  0
 17 24  2  0  0  0  0
 19 21  1  0  0  0  0
 19 20  1  0  0  0  0
 20 22  1  0  0  0  0
 22 23  1  0  0  0  0
 22 26  1  1  0  0  0
 23 25  1  0  0  0  0
 24 25  1  0  0  0  0
 26 27  1  0  0  0  0
 27 31  1  0  0  0  0
 28 29  2  0  0  0  0
 28 33  1  0  0  0  0
 29 30  1  0  0  0  0
 30 31  2  0  0  0  0
 31 32  1  0  0  0  0
 32 33  2  0  0  0  0
M  END
>  <CHROM.1>
165.80652059,-64.43837100,143.31342377,67.37104264,-110.14711877,140.88529927
60.42198068,-102.00475215,160.65058904,-140.56928481,8.33261482,42.57790517
72.06575513,3.10977894,-1.06852860,3.13119308

>  <Name>
ligand

>  <RI>
0

>  <Rbt.Current_Directory>
/home/itssahil/PROJECTS/Mol_Feturizer/New_Systems/rnas/3SUH

>  <Rbt.Executable>
rbdock ($Id: //depot/dev/client3/rdock/2013.1/src/exe/rbdock.cxx#4 $)

>  <Rbt.Library>
libRbt.so (2013.1, Build901 2013/11/27)

>  <Rbt.Parameter_File>
/export/apps/rDock/src/rDock_2013.1_src/data/scripts/dock_solv.prm

>  <Rbt.Receptor>
prm/pocket_docking_5.prm

>  <SCORE>
-13.0763

>  <SCORE.INTER>
-7.78527

>  <SCORE.INTER.CONST>
1

>  <SCORE.INTER.POLAR>
0

>  <SCORE.INTER.ROT>
10

>  <SCORE.INTER.SOLV>
13.8545

>  <SCORE.INTER.VDW>
-20.075

>  <SCORE.INTER.norm>
-0.228978

>  <SCORE.INTRA>
-5.29099

>  <SCORE.INTRA.DIHEDRAL>
-4.5669

>  <SCORE.INTRA.DIHEDRAL.0>
12.2703

>  <SCORE.INTRA.POLAR>
0

>  <SCORE.INTRA.POLAR.0>
0

>  <SCORE.INTRA.REPUL>
0

>  <SCORE.INTRA.REPUL.0>
0

>  <SCORE.INTRA.SOLV>
2.6743

>  <SCORE.INTRA.SOLV.lig_0>
-64.3214

>  <SCORE.INTRA.VDW>
-4.34469

>  <SCORE.INTRA.VDW.0>
-1.67301

>  <SCORE.INTRA.norm>
-0.155617

>  <SCORE.RESTR>
0

>  <SCORE.RESTR.CAVITY>
0

>  <SCORE.RESTR.norm>
0

>  <SCORE.SYSTEM>
0

>  <SCORE.SYSTEM.CONST>
0

>  <SCORE.SYSTEM.DIHEDRAL>
0

>  <SCORE.SYSTEM.SOLV>
0

>  <SCORE.SYSTEM.norm>
0

>  <SCORE.heavy>
34

>  <SCORE.norm>
-0.384596

>  <RMSD>
3.740

$$$$
ligand
 OpenBabel11021811483D
libRbt.so/2013.1/901 2013/11/27
 34 36  0  0  0  0  0  0  0  0999 V2000
    5.9868   40.4652   74.9039 N   0  0  0  0  0  0  0  0  0  0  0  0
    5.1952   40.5537   76.1531 C   0  0  1  0  0  0  0  0  0  0  0  0
    5.8666   39.4727   74.0125 C   0  0  0  0  0  0  0  0  0  0  0  0
    5.0876   38.5228   74.1308 O   0  0  0  0  0  0  0  0  0  0  0  0
   11.1096   47.2181   71.0375 N   0  0  0  0  0  0  0  0  0  0  0  0
    5.8026   39.6280   77.2205 C   0  0  0  0  0  0  0  0  0  0  0  0
    7.2267   40.0584   77.5974 C   0  0  0  0  0  0  0  0  0  0  0  0
    8.1897   39.8942   76.4117 C   0  0  0  0  0  0  0  0  0  0  0  0
    8.4012   38.7281   76.0036 O   0  0  0  0  0  0  0  0  0  0  0  0
    8.6914   40.9393   75.9375 O   0  0  0  0  0  0  0  0  0  0  0  0
    9.8741   45.4994   70.1005 N   0  0  0  0  0  0  0  0  0  0  0  0
    4.2807   42.2440   77.5864 O   0  0  0  0  0  0  0  0  0  0  0  0
   11.0357   46.1639   70.2291 C   0  0  0  0  0  0  0  0  0  0  0  0
    5.9233   42.8262   76.1894 O   0  0  0  0  0  0  0  0  0  0  0  0
   12.1738   45.7587   69.5203 N   0  0  0  0  0  0  0  0  0  0  0  0
   12.0861   44.6543   68.6835 C   0  0  0  0  0  0  0  0  0  0  0  0
   10.8801   43.9712   68.5980 C   0  0  0  0  0  0  0  0  0  0  0  0
   13.0733   44.2736   68.0592 O   0  0  0  0  0  0  0  0  0  0  0  0
   11.3975   42.9041   66.5742 C   0  0  0  0  0  0  0  0  0  0  0  0
   10.7263   42.9025   67.7220 N   0  0  0  0  0  0  0  0  0  0  0  0
   11.0248   43.6036   65.6349 O   0  0  0  0  0  0  0  0  0  0  0  0
    9.6874   41.8990   67.9788 C   0  0  2  0  0  0  0  0  0  0  0  0
    8.3646   42.6197   68.2507 C   0  0  0  0  0  0  0  0  0  0  0  0
    9.7716   44.4303   69.2965 C   0  0  0  0  0  0  0  0  0  0  0  0
    8.5458   43.7666   69.1745 N   0  0  0  0  0  0  0  0  0  0  0  0
   10.0701   41.0251   69.1781 C   0  0  0  0  0  0  0  0  0  0  0  0
    9.0703   39.9650   69.3561 N   0  0  0  0  0  0  0  0  0  0  0  0
    6.7561   39.6202   72.7648 C   0  0  0  0  0  0  0  0  0  0  0  0
    7.5510   38.5611   72.3331 C   0  0  0  0  0  0  0  0  0  0  0  0
    8.3129   38.6771   71.1722 C   0  0  0  0  0  0  0  0  0  0  0  0
    8.3230   39.8689   70.4553 C   0  0  0  0  0  0  0  0  0  0  0  0
    7.5366   40.9306   70.8899 C   0  0  0  0  0  0  0  0  0  0  0  0
    6.7465   40.8033   72.0315 C   0  0  0  0  0  0  0  0  0  0  0  0
    5.1256   41.9975   76.6920 C   0  0  0  0  0  0  0  0  0  0  0  0
  1  3  1  0  0  0  0
  2  1  1  6  0  0  0
  2  6  1  0  0  0  0
  2 34  1  0  0  0  0
  3  4  2  0  0  0  0
  3 28  1  0  0  0  0
  5 13  1  0  0  0  0
  6  7  1  0  0  0  0
  7  8  1  0  0  0  0
  8  9  1  0  0  0  0
  8 10  1  0  0  0  0
 11 13  2  0  0  0  0
 11 24  1  0  0  0  0
 12 34  1  0  0  0  0
 13 15  1  0  0  0  0
 14 34  1  0  0  0  0
 15 16  1  0  0  0  0
 16 17  1  0  0  0  0
 16 18  2  0  0  0  0
 17 20  1  0  0  0  0
 17 24  2  0  0  0  0
 19 21  1  0  0  0  0
 19 20  1  0  0  0  0
 20 22  1  0  0  0  0
 22 23  1  0  0  0  0
 22 26  1  1  0  0  0
 23 25  1  0  0  0  0
 24 25  1  0  0  0  0
 26 27  1  0  0  0  0
 27 31  1  0  0  0  0
 28 29  2  0  0  0  0
 28 33  1  0  0  0  0
 29 30  1  0  0  0  0
 30 31  2  0  0  0  0
 31 32  1  0  0  0  0
 32 33  2  0  0  0  0
M  END
>  <CHROM.1>
79.88157089,63.06138502,166.48604335,-65.67017465,-65.06973615,-76.98373118
-175.73877269,-117.43557372,-125.15242393,130.33371157,8.52863876,41.91318209
71.86586506,2.85804306,1.03790753,0.77336474

>  <Name>
ligand

>  <RI>
0

>  <Rbt.Current_Directory>
/home/itssahil/PROJECTS/Mol_Feturizer/New_Systems/rnas/3SUH

>  <Rbt.Executable>
rbdock ($Id: //depot/dev/client3/rdock/2013.1/src/exe/rbdock.cxx#4 $)

>  <Rbt.Library>
libRbt.so (2013.1, Build901 2013/11/27)

>  <Rbt.Parameter_File>
/export/apps/rDock/src/rDock_2013.1_src/data/scripts/dock_solv.prm

>  <Rbt.Receptor>
prm/pocket_docking_8.prm

>  <SCORE>
-13.8657

>  <SCORE.INTER>
-9.47488

>  <SCORE.INTER.CONST>
1

>  <SCORE.INTER.POLAR>
0

>  <SCORE.INTER.ROT>
10

>  <SCORE.INTER.SOLV>
19.0777

>  <SCORE.INTER.VDW>
-22.9425

>  <SCORE.INTER.norm>
-0.278673

>  <SCORE.INTRA>
-4.39364

>  <SCORE.INTRA.DIHEDRAL>
-4.42621

>  <SCORE.INTRA.DIHEDRAL.0>
12.2703

>  <SCORE.INTRA.POLAR>
0

>  <SCORE.INTRA.POLAR.0>
0

>  <SCORE.INTRA.REPUL>
0

>  <SCORE.INTRA.REPUL.0>
0

>  <SCORE.INTRA.SOLV>
-0.0213882

>  <SCORE.INTRA.SOLV.lig_0>
-64.3214

>  <SCORE.INTRA.VDW>
-2.16984

>  <SCORE.INTRA.VDW.0>
-1.67301

>  <SCORE.INTRA.norm>
-0.129225

>  <SCORE.RESTR>
0.00286499

>  <SCORE.RESTR.CAVITY>
0.00286499

>  <SCORE.RESTR.norm>
8.42644e-05

>  <SCORE.SYSTEM>
0

>  <SCORE.SYSTEM.CONST>
0

>  <SCORE.SYSTEM.DIHEDRAL>
0

>  <SCORE.SYSTEM.SOLV>
0

>  <SCORE.SYSTEM.norm>
0

>  <SCORE.heavy>
34

>  <SCORE.norm>
-0.407813

>  <RMSD>
3.740

$$$$
ligand
 OpenBabel11021811483D
libRbt.so/2013.1/901 2013/11/27
 34 36  0  0  0  0  0  0  0  0999 V2000
    6.6708   41.0598   74.2207 N   0  0  0  0  0  0  0  0  0  0  0  0
    6.3541   40.9765   75.6655 C   0  0  1  0  0  0  0  0  0  0  0  0
    6.3364   42.0966   73.4414 C   0  0  0  0  0  0  0  0  0  0  0  0
    5.7278   43.0950   73.8363 O   0  0  0  0  0  0  0  0  0  0  0  0
   13.0244   46.3345   71.3725 N   0  0  0  0  0  0  0  0  0  0  0  0
    6.7058   39.5763   76.1953 C   0  0  0  0  0  0  0  0  0  0  0  0
    5.8151   38.4949   75.5686 C   0  0  0  0  0  0  0  0  0  0  0  0
    4.4050   38.5137   76.1781 C   0  0  0  0  0  0  0  0  0  0  0  0
    3.9261   37.4153   76.5458 O   0  0  0  0  0  0  0  0  0  0  0  0
    3.8378   39.6269   76.2653 O   0  0  0  0  0  0  0  0  0  0  0  0
   12.4625   45.2321   69.4161 N   0  0  0  0  0  0  0  0  0  0  0  0
    8.2179   42.4333   76.0553 O   0  0  0  0  0  0  0  0  0  0  0  0
   12.5537   45.2526   70.7572 C   0  0  0  0  0  0  0  0  0  0  0  0
    6.5391   42.4567   77.5284 O   0  0  0  0  0  0  0  0  0  0  0  0
   12.1578   44.1454   71.5180 N   0  0  0  0  0  0  0  0  0  0  0  0
   11.6636   43.0239   70.8655 C   0  0  0  0  0  0  0  0  0  0  0  0
   11.5525   43.0476   69.4815 C   0  0  0  0  0  0  0  0  0  0  0  0
   11.3004   42.0443   71.5117 O   0  0  0  0  0  0  0  0  0  0  0  0
   11.4262   40.7166   69.2511 C   0  0  0  0  0  0  0  0  0  0  0  0
   11.1281   41.9240   68.7808 N   0  0  0  0  0  0  0  0  0  0  0  0
   12.5918   40.4124   69.4942 O   0  0  0  0  0  0  0  0  0  0  0  0
   10.5403   42.0820   67.4460 C   0  0  2  0  0  0  0  0  0  0  0  0
   11.4584   42.9748   66.6073 C   0  0  0  0  0  0  0  0  0  0  0  0
   11.9874   44.1570   68.7692 C   0  0  0  0  0  0  0  0  0  0  0  0
   11.9157   44.1613   67.3718 N   0  0  0  0  0  0  0  0  0  0  0  0
    9.1433   42.7042   67.5449 C   0  0  0  0  0  0  0  0  0  0  0  0
    8.2026   41.7216   68.0968 N   0  0  0  0  0  0  0  0  0  0  0  0
    6.8169   41.9841   71.9832 C   0  0  0  0  0  0  0  0  0  0  0  0
    6.8215   43.1012   71.1514 C   0  0  0  0  0  0  0  0  0  0  0  0
    7.3088   43.0103   69.8491 C   0  0  0  0  0  0  0  0  0  0  0  0
    7.7547   41.7911   69.3500 C   0  0  0  0  0  0  0  0  0  0  0  0
    7.7426   40.6725   70.1764 C   0  0  0  0  0  0  0  0  0  0  0  0
    7.2884   40.7705   71.4909 C   0  0  0  0  0  0  0  0  0  0  0  0
    7.1031   42.0484   76.4840 C   0  0  0  0  0  0  0  0  0  0  0  0
  1  3  1  0  0  0  0
  2  1  1  6  0  0  0
  2  6  1  0  0  0  0
  2 34  1  0  0  0  0
  3  4  2  0  0  0  0
  3 28  1  0  0  0  0
  5 13  1  0  0  0  0
  6  7  1  0  0  0  0
  7  8  1  0  0  0  0
  8  9  1  0  0  0  0
  8 10  1  0  0  0  0
 11 13  2  0  0  0  0
 11 24  1  0  0  0  0
 12 34  1  0  0  0  0
 13 15  1  0  0  0  0
 14 34  1  0  0  0  0
 15 16  1  0  0  0  0
 16 17  1  0  0  0  0
 16 18  2  0  0  0  0
 17 20  1  0  0  0  0
 17 24  2  0  0  0  0
 19 21  1  0  0  0  0
 19 20  1  0  0  0  0
 20 22  1  0  0  0  0
 22 23  1  0  0  0  0
 22 26  1  1  0  0  0
 23 25  1  0  0  0  0
 24 25  1  0  0  0  0
 26 27  1  0  0  0  0
 27 31  1  0  0  0  0
 28 29  2  0  0  0  0
 28 33  1  0  0  0  0
 29 30  1  0  0  0  0
 30 31  2  0  0  0  0
 31 32  1  0  0  0  0
 32 33  2  0  0  0  0
M  END
>  <CHROM.1>
172.06093855,-65.77033202,-29.68346241,-75.45710621,-131.92091103,-54.57299230
-71.81676339,105.17932775,46.34390373,-164.86301449,8.76083158,41.99073457
71.86781321,-2.50449973,-0.69751521,-1.85806568

>  <Name>
ligand

>  <RI>
0

>  <Rbt.Current_Directory>
/home/itssahil/PROJECTS/Mol_Feturizer/New_Systems/rnas/3SUH

>  <Rbt.Executable>
rbdock ($Id: //depot/dev/client3/rdock/2013.1/src/exe/rbdock.cxx#4 $)

>  <Rbt.Library>
libRbt.so (2013.1, Build901 2013/11/27)

>  <Rbt.Parameter_File>
/export/apps/rDock/src/rDock_2013.1_src/data/scripts/dock_solv.prm

>  <Rbt.Receptor>
prm/pocket_docking_5.prm

>  <SCORE>
-16.8225

>  <SCORE.INTER>
-12.9214

>  <SCORE.INTER.CONST>
1

>  <SCORE.INTER.POLAR>
0

>  <SCORE.INTER.ROT>
10

>  <SCORE.INTER.SOLV>
19.3644

>  <SCORE.INTER.VDW>
-25.3357

>  <SCORE.INTER.norm>
-0.380041

>  <SCORE.INTRA>
-3.90111

>  <SCORE.INTRA.DIHEDRAL>
-3.13802

>  <SCORE.INTRA.DIHEDRAL.0>
12.2703

>  <SCORE.INTRA.POLAR>
0

>  <SCORE.INTRA.POLAR.0>
0

>  <SCORE.INTRA.REPUL>
0

>  <SCORE.INTRA.REPUL.0>
0

>  <SCORE.INTRA.SOLV>
-0.418576

>  <SCORE.INTRA.SOLV.lig_0>
-64.3214

>  <SCORE.INTRA.VDW>
-2.12281

>  <SCORE.INTRA.VDW.0>
-1.67301

>  <SCORE.INTRA.norm>
-0.114738

>  <SCORE.RESTR>
0

>  <SCORE.RESTR.CAVITY>
0

>  <SCORE.RESTR.norm>
0

>  <SCORE.SYSTEM>
0

>  <SCORE.SYSTEM.CONST>
0

>  <SCORE.SYSTEM.DIHEDRAL>
0

>  <SCORE.SYSTEM.SOLV>
0

>  <SCORE.SYSTEM.norm>
0

>  <SCORE.heavy>
34

>  <SCORE.norm>
-0.494779

>  <RMSD>
3.757

$$$$
ligand
 OpenBabel11021811483D
libRbt.so/2013.1/901 2013/11/27
 34 36  0  0  0  0  0  0  0  0999 V2000
    6.3745   40.0832   74.7177 N   0  0  0  0  0  0  0  0  0  0  0  0
    5.9622   39.2791   75.8917 C   0  0  1  0  0  0  0  0  0  0  0  0
    6.2394   39.6758   73.4489 C   0  0  0  0  0  0  0  0  0  0  0  0
    5.7598   38.5887   73.1153 O   0  0  0  0  0  0  0  0  0  0  0  0
   12.9218   39.4493   71.5010 N   0  0  0  0  0  0  0  0  0  0  0  0
    6.7759   39.7047   77.1254 C   0  0  0  0  0  0  0  0  0  0  0  0
    6.4262   38.8540   78.3538 C   0  0  0  0  0  0  0  0  0  0  0  0
    6.7520   37.3717   78.1150 C   0  0  0  0  0  0  0  0  0  0  0  0
    7.8521   36.9514   78.5441 O   0  0  0  0  0  0  0  0  0  0  0  0
    5.8921   36.6905   77.5106 O   0  0  0  0  0  0  0  0  0  0  0  0
   12.4795   41.6390   70.8944 N   0  0  0  0  0  0  0  0  0  0  0  0
    4.0151   40.5663   76.4392 O   0  0  0  0  0  0  0  0  0  0  0  0
   12.2718   40.3205   70.7335 C   0  0  0  0  0  0  0  0  0  0  0  0
    3.7740   38.3639   76.1556 O   0  0  0  0  0  0  0  0  0  0  0  0
   11.3762   39.8505   69.7647 N   0  0  0  0  0  0  0  0  0  0  0  0
   10.7000   40.7690   68.9731 C   0  0  0  0  0  0  0  0  0  0  0  0
   10.9134   42.1244   69.1867 C   0  0  0  0  0  0  0  0  0  0  0  0
    9.9018   40.3814   68.1235 O   0  0  0  0  0  0  0  0  0  0  0  0
   10.0847   42.7894   67.0954 C   0  0  0  0  0  0  0  0  0  0  0  0
   10.3113   43.0780   68.3734 N   0  0  0  0  0  0  0  0  0  0  0  0
   10.9823   42.8978   66.2630 O   0  0  0  0  0  0  0  0  0  0  0  0
   10.1201   44.4427   68.8766 C   0  0  2  0  0  0  0  0  0  0  0  0
   11.4422   44.9380   69.4684 C   0  0  0  0  0  0  0  0  0  0  0  0
   11.8347   42.5404   70.1383 C   0  0  0  0  0  0  0  0  0  0  0  0
   12.0810   43.9056   70.3213 N   0  0  0  0  0  0  0  0  0  0  0  0
    9.0193   44.4724   69.9424 C   0  0  0  0  0  0  0  0  0  0  0  0
    7.9904   43.4767   69.6181 N   0  0  0  0  0  0  0  0  0  0  0  0
    6.6901   40.7026   72.3942 C   0  0  0  0  0  0  0  0  0  0  0  0
    6.5172   42.0668   72.6152 C   0  0  0  0  0  0  0  0  0  0  0  0
    6.9760   42.9970   71.6847 C   0  0  0  0  0  0  0  0  0  0  0  0
    7.5722   42.5717   70.5023 C   0  0  0  0  0  0  0  0  0  0  0  0
    7.7377   41.2095   70.2759 C   0  0  0  0  0  0  0  0  0  0  0  0
    7.3111   40.2791   71.2225 C   0  0  0  0  0  0  0  0  0  0  0  0
    4.4544   39.4183   76.1867 C   0  0  0  0  0  0  0  0  0  0  0  0
  1  3  1  0  0  0  0
  2  1  1  6  0  0  0
  2  6  1  0  0  0  0
  2 34  1  0  0  0  0
  3  4  2  0  0  0  0
  3 28  1  0  0  0  0
  5 13  1  0  0  0  0
  6  7  1  0  0  0  0
  7  8  1  0  0  0  0
  8  9  1  0  0  0  0
  8 10  1  0  0  0  0
 11 13  2  0  0  0  0
 11 24  1  0  0  0  0
 12 34  1  0  0  0  0
 13 15  1  0  0  0  0
 14 34  1  0  0  0  0
 15 16  1  0  0  0  0
 16 17  1  0  0  0  0
 16 18  2  0  0  0  0
 17 20  1  0  0  0  0
 17 24  2  0  0  0  0
 19 21  1  0  0  0  0
 19 20  1  0  0  0  0
 20 22  1  0  0  0  0
 22 23  1  0  0  0  0
 22 26  1  1  0  0  0
 23 25  1  0  0  0  0
 24 25  1  0  0  0  0
 26 27  1  0  0  0  0
 27 31  1  0  0  0  0
 28 29  2  0  0  0  0
 28 33  1  0  0  0  0
 29 30  1  0  0  0  0
 30 31  2  0  0  0  0
 31 32  1  0  0  0  0
 32 33  2  0  0  0  0
M  END
>  <CHROM.1>
155.14253105,-177.45952029,-59.81175928,61.55784110,96.54818751,-81.84505764
-33.76293091,128.34704818,61.01716447,-34.22129875,8.42770440,40.89957483
72.22190316,2.11075055,-0.31042358,2.23118104

>  <Name>
ligand

>  <RI>
0

>  <Rbt.Current_Directory>
/home/itssahil/PROJECTS/Mol_Feturizer/New_Systems/rnas/3SUH

>  <Rbt.Executable>
rbdock ($Id: //depot/dev/client3/rdock/2013.1/src/exe/rbdock.cxx#4 $)

>  <Rbt.Library>
libRbt.so (2013.1, Build901 2013/11/27)

>  <Rbt.Parameter_File>
/export/apps/rDock/src/rDock_2013.1_src/data/scripts/dock_solv.prm

>  <Rbt.Receptor>
prm/pocket_docking_4.prm

>  <SCORE>
-12.8585

>  <SCORE.INTER>
-8.86088

>  <SCORE.INTER.CONST>
1

>  <SCORE.INTER.POLAR>
0

>  <SCORE.INTER.ROT>
10

>  <SCORE.INTER.SOLV>
16.2155

>  <SCORE.INTER.VDW>
-21.5791

>  <SCORE.INTER.norm>
-0.260614

>  <SCORE.INTRA>
-3.9976

>  <SCORE.INTRA.DIHEDRAL>
-2.32335

>  <SCORE.INTRA.DIHEDRAL.0>
12.2703

>  <SCORE.INTRA.POLAR>
0

>  <SCORE.INTRA.POLAR.0>
0

>  <SCORE.INTRA.REPUL>
0

>  <SCORE.INTRA.REPUL.0>
0

>  <SCORE.INTRA.SOLV>
0.206045

>  <SCORE.INTRA.SOLV.lig_0>
-64.3214

>  <SCORE.INTRA.VDW>
-2.93895

>  <SCORE.INTRA.VDW.0>
-1.67301

>  <SCORE.INTRA.norm>
-0.117577

>  <SCORE.RESTR>
0

>  <SCORE.RESTR.CAVITY>
0

>  <SCORE.RESTR.norm>
0

>  <SCORE.SYSTEM>
0

>  <SCORE.SYSTEM.CONST>
0

>  <SCORE.SYSTEM.DIHEDRAL>
0

>  <SCORE.SYSTEM.SOLV>
0

>  <SCORE.SYSTEM.norm>
0

>  <SCORE.heavy>
34

>  <SCORE.norm>
-0.378191

>  <RMSD>
3.771

$$$$
ligand
 OpenBabel11021811483D
libRbt.so/2013.1/901 2013/11/27
 34 36  0  0  0  0  0  0  0  0999 V2000
    5.7828   41.9998   74.3463 N   0  0  0  0  0  0  0  0  0  0  0  0
    5.3558   42.0754   75.7629 C   0  0  1  0  0  0  0  0  0  0  0  0
    6.8604   42.6270   73.8567 C   0  0  0  0  0  0  0  0  0  0  0  0
    7.6154   43.3372   74.5266 O   0  0  0  0  0  0  0  0  0  0  0  0
   12.5027   46.6241   70.7842 N   0  0  0  0  0  0  0  0  0  0  0  0
    3.9286   42.6425   75.8463 C   0  0  0  0  0  0  0  0  0  0  0  0
    3.8459   44.0542   75.2500 C   0  0  0  0  0  0  0  0  0  0  0  0
    4.8328   45.0082   75.9400 C   0  0  0  0  0  0  0  0  0  0  0  0
    4.7755   45.0850   77.1897 O   0  0  0  0  0  0  0  0  0  0  0  0
    5.6251   45.6382   75.2023 O   0  0  0  0  0  0  0  0  0  0  0  0
   11.9880   45.2012   69.0325 N   0  0  0  0  0  0  0  0  0  0  0  0
    5.4661   40.6831   77.7114 O   0  0  0  0  0  0  0  0  0  0  0  0
   12.0421   45.4531   70.3519 C   0  0  0  0  0  0  0  0  0  0  0  0
    5.4052   39.6900   75.7117 O   0  0  0  0  0  0  0  0  0  0  0  0
   11.6178   44.4947   71.2810 N   0  0  0  0  0  0  0  0  0  0  0  0
   11.1344   43.2783   70.8181 C   0  0  0  0  0  0  0  0  0  0  0  0
   11.0619   43.0625   69.4483 C   0  0  0  0  0  0  0  0  0  0  0  0
   10.7469   42.4257   71.6132 O   0  0  0  0  0  0  0  0  0  0  0  0
   10.9264   40.7271   69.6204 C   0  0  0  0  0  0  0  0  0  0  0  0
   10.6496   41.8355   68.9404 N   0  0  0  0  0  0  0  0  0  0  0  0
   12.0760   40.4893   69.9840 O   0  0  0  0  0  0  0  0  0  0  0  0
   10.1001   41.7614   67.5822 C   0  0  2  0  0  0  0  0  0  0  0  0
   11.0470   42.4942   66.6283 C   0  0  0  0  0  0  0  0  0  0  0  0
   11.5238   44.0313   68.5677 C   0  0  0  0  0  0  0  0  0  0  0  0
   11.4909   43.7942   67.1891 N   0  0  0  0  0  0  0  0  0  0  0  0
    8.7051   42.3940   67.5323 C   0  0  0  0  0  0  0  0  0  0  0  0
    7.7758   41.6062   68.3514 N   0  0  0  0  0  0  0  0  0  0  0  0
    7.1361   42.3593   72.3660 C   0  0  0  0  0  0  0  0  0  0  0  0
    7.4258   41.0722   71.9199 C   0  0  0  0  0  0  0  0  0  0  0  0
    7.6203   40.8219   70.5629 C   0  0  0  0  0  0  0  0  0  0  0  0
    7.5718   41.8638   69.6429 C   0  0  0  0  0  0  0  0  0  0  0  0
    7.2914   43.1513   70.0878 C   0  0  0  0  0  0  0  0  0  0  0  0
    7.0615   43.3967   71.4408 C   0  0  0  0  0  0  0  0  0  0  0  0
    5.4128   40.6994   76.4579 C   0  0  0  0  0  0  0  0  0  0  0  0
  1  3  1  0  0  0  0
  2  1  1  6  0  0  0
  2  6  1  0  0  0  0
  2 34  1  0  0  0  0
  3  4  2  0  0  0  0
  3 28  1  0  0  0  0
  5 13  1  0  0  0  0
  6  7  1  0  0  0  0
  7  8  1  0  0  0  0
  8  9  1  0  0  0  0
  8 10  1  0  0  0  0
 11 13  2  0  0  0  0
 11 24  1  0  0  0  0
 12 34  1  0  0  0  0
 13 15  1  0  0  0  0
 14 34  1  0  0  0  0
 15 16  1  0  0  0  0
 16 17  1  0  0  0  0
 16 18  2  0  0  0  0
 17 20  1  0  0  0  0
 17 24  2  0  0  0  0
 19 21  1  0  0  0  0
 19 20  1  0  0  0  0
 20 22  1  0  0  0  0
 22 23  1  0  0  0  0
 22 26  1  1  0  0  0
 23 25  1  0  0  0  0
 24 25  1  0  0  0  0
 26 27  1  0  0  0  0
 27 31  1  0  0  0  0
 28 29  2  0  0  0  0
 28 33  1  0  0  0  0
 29 30  1  0  0  0  0
 30 31  2  0  0  0  0
 31 32  1  0  0  0  0
 32 33  2  0  0  0  0
M  END
>  <CHROM.1>
121.23809247,-60.29863339,159.32796744,-56.68307117,-53.45206805,-52.14527863
-65.17857918,90.56506518,-131.36917341,-62.62454050,8.34546755,42.81269436
71.90261515,2.71705858,0.79660461,0.61348983

>  <Name>
ligand

>  <RI>
0

>  <Rbt.Current_Directory>
/home/itssahil/PROJECTS/Mol_Feturizer/New_Systems/rnas/3SUH

>  <Rbt.Executable>
rbdock ($Id: //depot/dev/client3/rdock/2013.1/src/exe/rbdock.cxx#4 $)

>  <Rbt.Library>
libRbt.so (2013.1, Build901 2013/11/27)

>  <Rbt.Parameter_File>
/export/apps/rDock/src/rDock_2013.1_src/data/scripts/dock_solv.prm

>  <Rbt.Receptor>
prm/pocket_docking_3.prm

>  <SCORE>
-14.0287

>  <SCORE.INTER>
-8.65626

>  <SCORE.INTER.CONST>
1

>  <SCORE.INTER.POLAR>
0

>  <SCORE.INTER.ROT>
10

>  <SCORE.INTER.SOLV>
18.0057

>  <SCORE.INTER.VDW>
-22.0394

>  <SCORE.INTER.norm>
-0.254596

>  <SCORE.INTRA>
-5.64107

>  <SCORE.INTRA.DIHEDRAL>
-3.87553

>  <SCORE.INTRA.DIHEDRAL.0>
12.2703

>  <SCORE.INTRA.POLAR>
0

>  <SCORE.INTRA.POLAR.0>
0

>  <SCORE.INTRA.REPUL>
0

>  <SCORE.INTRA.REPUL.0>
0

>  <SCORE.INTRA.SOLV>
0.226453

>  <SCORE.INTRA.SOLV.lig_0>
-64.3214

>  <SCORE.INTRA.VDW>
-3.81653

>  <SCORE.INTRA.VDW.0>
-1.67301

>  <SCORE.INTRA.norm>
-0.165914

>  <SCORE.RESTR>
0.268611

>  <SCORE.RESTR.CAVITY>
0.268611

>  <SCORE.RESTR.norm>
0.00790033

>  <SCORE.SYSTEM>
0

>  <SCORE.SYSTEM.CONST>
0

>  <SCORE.SYSTEM.DIHEDRAL>
0

>  <SCORE.SYSTEM.SOLV>
0

>  <SCORE.SYSTEM.norm>
0

>  <SCORE.heavy>
34

>  <SCORE.norm>
-0.412609

>  <RMSD>
3.772

$$$$
ligand
 OpenBabel11021811483D
libRbt.so/2013.1/901 2013/11/27
 34 36  0  0  0  0  0  0  0  0999 V2000
    5.4949   41.7636   75.2669 N   0  0  0  0  0  0  0  0  0  0  0  0
    4.8783   41.9494   76.6011 C   0  0  1  0  0  0  0  0  0  0  0  0
    6.7209   42.1956   74.9441 C   0  0  0  0  0  0  0  0  0  0  0  0
    7.4722   42.7963   75.7174 O   0  0  0  0  0  0  0  0  0  0  0  0
   13.2815   46.3489   70.4975 N   0  0  0  0  0  0  0  0  0  0  0  0
    3.3522   42.0720   76.4563 C   0  0  0  0  0  0  0  0  0  0  0  0
    2.9157   43.5343   76.2937 C   0  0  0  0  0  0  0  0  0  0  0  0
    3.1306   44.0219   74.8527 C   0  0  0  0  0  0  0  0  0  0  0  0
    2.1203   44.0855   74.1136 O   0  0  0  0  0  0  0  0  0  0  0  0
    4.3007   44.3231   74.5227 O   0  0  0  0  0  0  0  0  0  0  0  0
   12.1667   45.0056   68.9772 N   0  0  0  0  0  0  0  0  0  0  0  0
    6.1207   40.9913   78.4139 O   0  0  0  0  0  0  0  0  0  0  0  0
   12.7674   45.1664   70.1691 C   0  0  0  0  0  0  0  0  0  0  0  0
    4.5714   39.7281   77.4176 O   0  0  0  0  0  0  0  0  0  0  0  0
   12.8591   44.1007   71.0734 N   0  0  0  0  0  0  0  0  0  0  0  0
   12.3148   42.8728   70.7220 C   0  0  0  0  0  0  0  0  0  0  0  0
   11.6730   42.7493   69.4967 C   0  0  0  0  0  0  0  0  0  0  0  0
   12.3737   41.9259   71.5024 O   0  0  0  0  0  0  0  0  0  0  0  0
   11.7989   40.4077   69.4400 C   0  0  0  0  0  0  0  0  0  0  0  0
   11.1738   41.5225   69.0735 N   0  0  0  0  0  0  0  0  0  0  0  0
   11.3613   39.7213   70.3607 O   0  0  0  0  0  0  0  0  0  0  0  0
   10.0980   41.4829   68.0769 C   0  0  2  0  0  0  0  0  0  0  0  0
   10.4819   42.3877   66.9033 C   0  0  0  0  0  0  0  0  0  0  0  0
   11.6353   43.8262   68.6214 C   0  0  0  0  0  0  0  0  0  0  0  0
   11.0270   43.6868   67.3690 N   0  0  0  0  0  0  0  0  0  0  0  0
    8.7761   41.9507   68.6952 C   0  0  0  0  0  0  0  0  0  0  0  0
    8.2856   40.9376   69.6377 N   0  0  0  0  0  0  0  0  0  0  0  0
    7.1698   41.8422   73.5146 C   0  0  0  0  0  0  0  0  0  0  0  0
    6.6601   40.7174   72.8705 C   0  0  0  0  0  0  0  0  0  0  0  0
    7.0248   40.4297   71.5567 C   0  0  0  0  0  0  0  0  0  0  0  0
    7.9378   41.2385   70.8885 C   0  0  0  0  0  0  0  0  0  0  0  0
    8.4547   42.3571   71.5333 C   0  0  0  0  0  0  0  0  0  0  0  0
    8.0631   42.6657   72.8353 C   0  0  0  0  0  0  0  0  0  0  0  0
    5.2209   40.7924   77.5622 C   0  0  0  0  0  0  0  0  0  0  0  0
  1  3  1  0  0  0  0
  2  1  1  6  0  0  0
  2  6  1  0  0  0  0
  2 34  1  0  0  0  0
  3  4  2  0  0  0  0
  3 28  1  0  0  0  0
  5 13  1  0  0  0  0
  6  7  1  0  0  0  0
  7  8  1  0  0  0  0
  8  9  1  0  0  0  0
  8 10  1  0  0  0  0
 11 13  2  0  0  0  0
 11 24  1  0  0  0  0
 12 34  1  0  0  0  0
 13 15  1  0  0  0  0
 14 34  1  0  0  0  0
 15 16  1  0  0  0  0
 16 17  1  0  0  0  0
 16 18  2  0  0  0  0
 17 20  1  0  0  0  0
 17 24  2  0  0  0  0
 19 21  1  0  0  0  0
 19 20  1  0  0  0  0
 20 22  1  0  0  0  0
 22 23  1  0  0  0  0
 22 26  1  1  0  0  0
 23 25  1  0  0  0  0
 24 25  1  0  0  0  0
 26 27  1  0  0  0  0
 27 31  1  0  0  0  0
 28 29  2  0  0  0  0
 28 33  1  0  0  0  0
 29 30  1  0  0  0  0
 30 31  2  0  0  0  0
 31 32  1  0  0  0  0
 32 33  2  0  0  0  0
M  END
>  <CHROM.1>
149.25576661,-91.17284173,101.17163166,79.46190943,102.16533676,101.14629920
-70.77678002,128.25273835,154.88530790,-27.30034984,8.30229657,42.39025027
72.30251431,-2.88086144,0.73157084,-0.26975526

>  <Name>
ligand

>  <RI>
0

>  <Rbt.Current_Directory>
/home/itssahil/PROJECTS/Mol_Feturizer/New_Systems/rnas/3SUH

>  <Rbt.Executable>
rbdock ($Id: //depot/dev/client3/rdock/2013.1/src/exe/rbdock.cxx#4 $)

>  <Rbt.Library>
libRbt.so (2013.1, Build901 2013/11/27)

>  <Rbt.Parameter_File>
/export/apps/rDock/src/rDock_2013.1_src/data/scripts/dock_solv.prm

>  <Rbt.Receptor>
prm/pocket_docking_4.prm

>  <SCORE>
-8.16335

>  <SCORE.INTER>
-6.65928

>  <SCORE.INTER.CONST>
1

>  <SCORE.INTER.POLAR>
0

>  <SCORE.INTER.ROT>
10

>  <SCORE.INTER.SOLV>
19.9193

>  <SCORE.INTER.VDW>
-21.3459

>  <SCORE.INTER.norm>
-0.195861

>  <SCORE.INTRA>
-1.50406

>  <SCORE.INTRA.DIHEDRAL>
1.24153

>  <SCORE.INTRA.DIHEDRAL.0>
12.2703

>  <SCORE.INTRA.POLAR>
0

>  <SCORE.INTRA.POLAR.0>
0

>  <SCORE.INTRA.REPUL>
0

>  <SCORE.INTRA.REPUL.0>
0

>  <SCORE.INTRA.SOLV>
0.270733

>  <SCORE.INTRA.SOLV.lig_0>
-64.3214

>  <SCORE.INTRA.VDW>
-2.2602

>  <SCORE.INTRA.VDW.0>
-1.67301

>  <SCORE.INTRA.norm>
-0.0442372

>  <SCORE.RESTR>
0

>  <SCORE.RESTR.CAVITY>
0

>  <SCORE.RESTR.norm>
0

>  <SCORE.SYSTEM>
0

>  <SCORE.SYSTEM.CONST>
0

>  <SCORE.SYSTEM.DIHEDRAL>
0

>  <SCORE.SYSTEM.SOLV>
0

>  <SCORE.SYSTEM.norm>
0

>  <SCORE.heavy>
34

>  <SCORE.norm>
-0.240098

>  <RMSD>
3.777

$$$$
ligand
 OpenBabel11021811483D
libRbt.so/2013.1/901 2013/11/27
 34 36  0  0  0  0  0  0  0  0999 V2000
    5.5323   43.5613   74.2956 N   0  0  0  0  0  0  0  0  0  0  0  0
    4.9189   43.8873   75.6041 C   0  0  1  0  0  0  0  0  0  0  0  0
    5.9039   42.3269   73.9319 C   0  0  0  0  0  0  0  0  0  0  0  0
    5.7795   41.3258   74.6429 O   0  0  0  0  0  0  0  0  0  0  0  0
    9.5556   46.4938   71.3719 N   0  0  0  0  0  0  0  0  0  0  0  0
    5.0237   45.3992   75.8654 C   0  0  0  0  0  0  0  0  0  0  0  0
    6.4851   45.8516   75.9870 C   0  0  0  0  0  0  0  0  0  0  0  0
    7.1763   45.1835   77.1854 C   0  0  0  0  0  0  0  0  0  0  0  0
    8.0883   44.3611   76.9344 O   0  0  0  0  0  0  0  0  0  0  0  0
    6.7791   45.5121   78.3269 O   0  0  0  0  0  0  0  0  0  0  0  0
    9.9093   45.0085   69.6320 N   0  0  0  0  0  0  0  0  0  0  0  0
    3.0961   42.7324   76.6489 O   0  0  0  0  0  0  0  0  0  0  0  0
    9.8483   45.2662   70.9501 C   0  0  0  0  0  0  0  0  0  0  0  0
    2.6921   43.8324   74.7474 O   0  0  0  0  0  0  0  0  0  0  0  0
   10.0895   44.2549   71.8885 N   0  0  0  0  0  0  0  0  0  0  0  0
   10.3891   42.9768   71.4367 C   0  0  0  0  0  0  0  0  0  0  0  0
   10.4126   42.7369   70.0691 C   0  0  0  0  0  0  0  0  0  0  0  0
   10.5946   42.0708   72.2404 O   0  0  0  0  0  0  0  0  0  0  0  0
   11.6654   40.7607   70.2340 C   0  0  0  0  0  0  0  0  0  0  0  0
   10.7746   41.4907   69.5697 N   0  0  0  0  0  0  0  0  0  0  0  0
   12.8663   41.0038   70.1390 O   0  0  0  0  0  0  0  0  0  0  0  0
   10.3283   41.0892   68.2311 C   0  0  2  0  0  0  0  0  0  0  0  0
   10.6423   42.2202   67.2485 C   0  0  0  0  0  0  0  0  0  0  0  0
   10.1973   43.7793   69.1778 C   0  0  0  0  0  0  0  0  0  0  0  0
   10.2652   43.5450   67.8000 N   0  0  0  0  0  0  0  0  0  0  0  0
    8.8248   40.7924   68.2333 C   0  0  0  0  0  0  0  0  0  0  0  0
    8.0892   41.9707   68.7083 N   0  0  0  0  0  0  0  0  0  0  0  0
    6.4707   42.2221   72.5045 C   0  0  0  0  0  0  0  0  0  0  0  0
    6.6273   43.3620   71.7197 C   0  0  0  0  0  0  0  0  0  0  0  0
    7.1922   43.2728   70.4490 C   0  0  0  0  0  0  0  0  0  0  0  0
    7.5650   42.0368   69.9317 C   0  0  0  0  0  0  0  0  0  0  0  0
    7.4011   40.8962   70.7106 C   0  0  0  0  0  0  0  0  0  0  0  0
    6.8689   40.9891   71.9958 C   0  0  0  0  0  0  0  0  0  0  0  0
    3.4425   43.4456   75.6763 C   0  0  0  0  0  0  0  0  0  0  0  0
  1  3  1  0  0  0  0
  2  1  1  6  0  0  0
  2  6  1  0  0  0  0
  2 34  1  0  0  0  0
  3  4  2  0  0  0  0
  3 28  1  0  0  0  0
  5 13  1  0  0  0  0
  6  7  1  0  0  0  0
  7  8  1  0  0  0  0
  8  9  1  0  0  0  0
  8 10  1  0  0  0  0
 11 13  2  0  0  0  0
 11 24  1  0  0  0  0
 12 34  1  0  0  0  0
 13 15  1  0  0  0  0
 14 34  1  0  0  0  0
 15 16  1  0  0  0  0
 16 17  1  0  0  0  0
 16 18  2  0  0  0  0
 17 20  1  0  0  0  0
 17 24  2  0  0  0  0
 19 21  1  0  0  0  0
 19 20  1  0  0  0  0
 20 22  1  0  0  0  0
 22 23  1  0  0  0  0
 22 26  1  1  0  0  0
 23 25  1  0  0  0  0
 24 25  1  0  0  0  0
 26 27  1  0  0  0  0
 27 31  1  0  0  0  0
 28 29  2  0  0  0  0
 28 33  1  0  0  0  0
 29 30  1  0  0  0  0
 30 31  2  0  0  0  0
 31 32  1  0  0  0  0
 32 33  2  0  0  0  0
M  END
>  <CHROM.1>
162.40342221,-63.97117562,127.50918954,-62.69337761,112.56869499,-79.10460855
56.99974305,-104.38783326,163.37647821,3.08220357,7.97957213,43.11448584
72.27063158,2.27628857,0.42093622,0.97232480

>  <Name>
ligand

>  <RI>
0

>  <Rbt.Current_Directory>
/home/itssahil/PROJECTS/Mol_Feturizer/New_Systems/rnas/3SUH

>  <Rbt.Executable>
rbdock ($Id: //depot/dev/client3/rdock/2013.1/src/exe/rbdock.cxx#4 $)

>  <Rbt.Library>
libRbt.so (2013.1, Build901 2013/11/27)

>  <Rbt.Parameter_File>
/export/apps/rDock/src/rDock_2013.1_src/data/scripts/dock_solv.prm

>  <Rbt.Receptor>
prm/pocket_docking_5.prm

>  <SCORE>
-13.2791

>  <SCORE.INTER>
-8.48016

>  <SCORE.INTER.CONST>
1

>  <SCORE.INTER.POLAR>
0

>  <SCORE.INTER.ROT>
10

>  <SCORE.INTER.SOLV>
14.3252

>  <SCORE.INTER.VDW>
-20.6952

>  <SCORE.INTER.norm>
-0.249416

>  <SCORE.INTRA>
-4.79899

>  <SCORE.INTRA.DIHEDRAL>
-4.74015

>  <SCORE.INTRA.DIHEDRAL.0>
12.2703

>  <SCORE.INTRA.POLAR>
0

>  <SCORE.INTRA.POLAR.0>
0

>  <SCORE.INTRA.REPUL>
0

>  <SCORE.INTRA.REPUL.0>
0

>  <SCORE.INTRA.SOLV>
2.15503

>  <SCORE.INTRA.SOLV.lig_0>
-64.3214

>  <SCORE.INTRA.VDW>
-3.50643

>  <SCORE.INTRA.VDW.0>
-1.67301

>  <SCORE.INTRA.norm>
-0.141147

>  <SCORE.RESTR>
0

>  <SCORE.RESTR.CAVITY>
0

>  <SCORE.RESTR.norm>
0

>  <SCORE.SYSTEM>
0

>  <SCORE.SYSTEM.CONST>
0

>  <SCORE.SYSTEM.DIHEDRAL>
0

>  <SCORE.SYSTEM.SOLV>
0

>  <SCORE.SYSTEM.norm>
0

>  <SCORE.heavy>
34

>  <SCORE.norm>
-0.390563

>  <RMSD>
3.803

$$$$
ligand
 OpenBabel11021811483D
libRbt.so/2013.1/901 2013/11/27
 34 36  0  0  0  0  0  0  0  0999 V2000
    6.3696   42.1654   74.7559 N   0  0  0  0  0  0  0  0  0  0  0  0
    5.0005   41.8955   75.2536 C   0  0  1  0  0  0  0  0  0  0  0  0
    6.7368   42.0379   73.4742 C   0  0  0  0  0  0  0  0  0  0  0  0
    5.9803   41.6812   72.5666 O   0  0  0  0  0  0  0  0  0  0  0  0
    9.6676   39.5120   66.4613 N   0  0  0  0  0  0  0  0  0  0  0  0
    4.9245   40.4669   75.8181 C   0  0  0  0  0  0  0  0  0  0  0  0
    5.2309   39.4170   74.7415 C   0  0  0  0  0  0  0  0  0  0  0  0
    5.2580   38.0011   75.3370 C   0  0  0  0  0  0  0  0  0  0  0  0
    6.2405   37.7013   76.0553 O   0  0  0  0  0  0  0  0  0  0  0  0
    4.2939   37.2501   75.0629 O   0  0  0  0  0  0  0  0  0  0  0  0
   11.2761   40.9832   67.2401 N   0  0  0  0  0  0  0  0  0  0  0  0
    3.3382   43.0586   76.5310 O   0  0  0  0  0  0  0  0  0  0  0  0
   10.0002   40.5604   67.2100 C   0  0  0  0  0  0  0  0  0  0  0  0
    5.4865   43.5139   76.9388 O   0  0  0  0  0  0  0  0  0  0  0  0
    9.0130   41.2119   67.9600 N   0  0  0  0  0  0  0  0  0  0  0  0
    9.3727   42.3017   68.7414 C   0  0  0  0  0  0  0  0  0  0  0  0
   10.7048   42.6927   68.7750 C   0  0  0  0  0  0  0  0  0  0  0  0
    8.5266   42.8832   69.4159 O   0  0  0  0  0  0  0  0  0  0  0  0
   10.2609   44.8451   69.5951 C   0  0  0  0  0  0  0  0  0  0  0  0
   11.0997   43.8190   69.4884 N   0  0  0  0  0  0  0  0  0  0  0  0
    9.8426   45.4156   68.5902 O   0  0  0  0  0  0  0  0  0  0  0  0
   12.4911   43.9415   69.9367 C   0  0  2  0  0  0  0  0  0  0  0  0
   13.4164   43.6528   68.7518 C   0  0  0  0  0  0  0  0  0  0  0  0
   11.6413   42.0344   67.9896 C   0  0  0  0  0  0  0  0  0  0  0  0
   12.9749   42.4580   67.9909 N   0  0  0  0  0  0  0  0  0  0  0  0
   12.7747   42.9616   71.0804 C   0  0  0  0  0  0  0  0  0  0  0  0
   12.1121   43.4265   72.3052 N   0  0  0  0  0  0  0  0  0  0  0  0
    8.1987   42.4236   73.1845 C   0  0  0  0  0  0  0  0  0  0  0  0
    9.1986   41.4542   73.1787 C   0  0  0  0  0  0  0  0  0  0  0  0
   10.5119   41.7956   72.8617 C   0  0  0  0  0  0  0  0  0  0  0  0
   10.8476   43.1179   72.5911 C   0  0  0  0  0  0  0  0  0  0  0  0
    9.8519   44.0888   72.6051 C   0  0  0  0  0  0  0  0  0  0  0  0
    8.5313   43.7423   72.8873 C   0  0  0  0  0  0  0  0  0  0  0  0
    4.5683   42.9081   76.3342 C   0  0  0  0  0  0  0  0  0  0  0  0
  1  3  1  0  0  0  0
  2  1  1  1  0  0  0
  2  6  1  0  0  0  0
  2 34  1  0  0  0  0
  3  4  2  0  0  0  0
  3 28  1  0  0  0  0
  5 13  1  0  0  0  0
  6  7  1  0  0  0  0
  7  8  1  0  0  0  0
  8  9  1  0  0  0  0
  8 10  1  0  0  0  0
 11 13  2  0  0  0  0
 11 24  1  0  0  0  0
 12 34  1  0  0  0  0
 13 15  1  0  0  0  0
 14 34  1  0  0  0  0
 15 16  1  0  0  0  0
 16 17  1  0  0  0  0
 16 18  2  0  0  0  0
 17 20  1  0  0  0  0
 17 24  2  0  0  0  0
 19 21  1  0  0  0  0
 19 20  1  0  0  0  0
 20 22  1  0  0  0  0
 22 23  1  0  0  0  0
 22 26  1  1  0  0  0
 23 25  1  0  0  0  0
 24 25  1  0  0  0  0
 26 27  1  0  0  0  0
 27 31  1  0  0  0  0
 28 29  2  0  0  0  0
 28 33  1  0  0  0  0
 29 30  1  0  0  0  0
 30 31  2  0  0  0  0
 31 32  1  0  0  0  0
 32 33  2  0  0  0  0
M  END
>  <CHROM.1>
96.46037283,-61.31540854,158.25159869,175.67499053,-72.66184463,-59.02947949
-72.54065192,86.60421199,66.65155525,94.04881849,8.61407211,42.02335236,71.85858436
-2.84127823,-0.81799161,-2.45268342

>  <Name>
ligand

>  <RI>
0

>  <Rbt.Current_Directory>
/home/itssahil/PROJECTS/Mol_Feturizer/New_Systems/rnas/3SUH

>  <Rbt.Executable>
rbdock ($Id: //depot/dev/client3/rdock/2013.1/src/exe/rbdock.cxx#4 $)

>  <Rbt.Library>
libRbt.so (2013.1, Build901 2013/11/27)

>  <Rbt.Parameter_File>
/export/apps/rDock/src/rDock_2013.1_src/data/scripts/dock_solv.prm

>  <Rbt.Receptor>
prm/pocket_docking_5.prm

>  <SCORE>
188.865

>  <SCORE.INTER>
192.841

>  <SCORE.INTER.CONST>
1

>  <SCORE.INTER.POLAR>
0

>  <SCORE.INTER.ROT>
10

>  <SCORE.INTER.SOLV>
33.7358

>  <SCORE.INTER.VDW>
107.049

>  <SCORE.INTER.norm>
5.67179

>  <SCORE.INTRA>
-5.30108

>  <SCORE.INTRA.DIHEDRAL>
-3.91069

>  <SCORE.INTRA.DIHEDRAL.0>
12.2703

>  <SCORE.INTRA.POLAR>
0

>  <SCORE.INTRA.POLAR.0>
0

>  <SCORE.INTRA.REPUL>
0

>  <SCORE.INTRA.REPUL.0>
0

>  <SCORE.INTRA.SOLV>
-0.139901

>  <SCORE.INTRA.SOLV.lig_0>
-64.3214

>  <SCORE.INTRA.VDW>
-3.27579

>  <SCORE.INTRA.VDW.0>
-1.67301

>  <SCORE.INTRA.norm>
-0.155914

>  <SCORE.RESTR>
1.32477

>  <SCORE.RESTR.CAVITY>
1.32477

>  <SCORE.RESTR.norm>
0.0389639

>  <SCORE.SYSTEM>
0

>  <SCORE.SYSTEM.CONST>
0

>  <SCORE.SYSTEM.DIHEDRAL>
0

>  <SCORE.SYSTEM.SOLV>
0

>  <SCORE.SYSTEM.norm>
0

>  <SCORE.heavy>
34

>  <SCORE.norm>
5.55484

>  <RMSD>
3.827

$$$$
ligand
 OpenBabel11021811483D
libRbt.so/2013.1/901 2013/11/27
 34 36  0  0  0  0  0  0  0  0999 V2000
    6.9652   43.4723   73.9025 N   0  0  0  0  0  0  0  0  0  0  0  0
    6.6098   43.8965   75.2768 C   0  0  1  0  0  0  0  0  0  0  0  0
    6.5080   42.3538   73.3246 C   0  0  0  0  0  0  0  0  0  0  0  0
    5.7437   41.5524   73.8693 O   0  0  0  0  0  0  0  0  0  0  0  0
   12.8779   46.5160   71.1113 N   0  0  0  0  0  0  0  0  0  0  0  0
    7.5118   43.1762   76.2931 C   0  0  0  0  0  0  0  0  0  0  0  0
    7.2669   41.6611   76.2915 C   0  0  0  0  0  0  0  0  0  0  0  0
    8.1209   40.9585   77.3579 C   0  0  0  0  0  0  0  0  0  0  0  0
    7.5277   40.5325   78.3766 O   0  0  0  0  0  0  0  0  0  0  0  0
    9.3485   40.8604   77.1297 O   0  0  0  0  0  0  0  0  0  0  0  0
   12.3863   45.3357   69.1816 N   0  0  0  0  0  0  0  0  0  0  0  0
    7.5580   46.0314   74.7373 O   0  0  0  0  0  0  0  0  0  0  0  0
   12.4609   45.3980   70.5225 C   0  0  0  0  0  0  0  0  0  0  0  0
    5.9920   45.9480   76.3278 O   0  0  0  0  0  0  0  0  0  0  0  0
   12.1036   44.2967   71.3107 N   0  0  0  0  0  0  0  0  0  0  0  0
   11.6653   43.1372   70.6854 C   0  0  0  0  0  0  0  0  0  0  0  0
   11.5694   43.1169   69.3002 C   0  0  0  0  0  0  0  0  0  0  0  0
   11.3367   42.1615   71.3556 O   0  0  0  0  0  0  0  0  0  0  0  0
   11.5451   40.7771   69.1355 C   0  0  0  0  0  0  0  0  0  0  0  0
   11.2014   41.9569   68.6277 N   0  0  0  0  0  0  0  0  0  0  0  0
   10.6899   40.0217   69.5920 O   0  0  0  0  0  0  0  0  0  0  0  0
   10.6230   42.0517   67.2829 C   0  0  2  0  0  0  0  0  0  0  0  0
   11.5119   42.9591   66.4285 C   0  0  0  0  0  0  0  0  0  0  0  0
   11.9649   44.2234   68.5609 C   0  0  0  0  0  0  0  0  0  0  0  0
   11.9094   44.1852   67.1633 N   0  0  0  0  0  0  0  0  0  0  0  0
    9.1998   42.6160   67.3493 C   0  0  0  0  0  0  0  0  0  0  0  0
    8.3109   41.6407   67.9927 N   0  0  0  0  0  0  0  0  0  0  0  0
    6.9722   42.1469   71.8715 C   0  0  0  0  0  0  0  0  0  0  0  0
    6.8718   43.1797   70.9425 C   0  0  0  0  0  0  0  0  0  0  0  0
    7.3435   43.0090   69.6425 C   0  0  0  0  0  0  0  0  0  0  0  0
    7.8795   41.7888   69.2448 C   0  0  0  0  0  0  0  0  0  0  0  0
    7.9723   40.7533   70.1687 C   0  0  0  0  0  0  0  0  0  0  0  0
    7.5332   40.9348   71.4794 C   0  0  0  0  0  0  0  0  0  0  0  0
    6.7317   45.4234   75.4600 C   0  0  0  0  0  0  0  0  0  0  0  0
  1  3  1  0  0  0  0
  2  1  1  6  0  0  0
  2  6  1  0  0  0  0
  2 34  1  0  0  0  0
  3  4  2  0  0  0  0
  3 28  1  0  0  0  0
  5 13  1  0  0  0  0
  6  7  1  0  0  0  0
  7  8  1  0  0  0  0
  8  9  1  0  0  0  0
  8 10  1  0  0  0  0
 11 13  2  0  0  0  0
 11 24  1  0  0  0  0
 12 34  1  0  0  0  0
 13 15  1  0  0  0  0
 14 34  1  0  0  0  0
 15 16  1  0  0  0  0
 16 17  1  0  0  0  0
 16 18  2  0  0  0  0
 17 20  1  0  0  0  0
 17 24  2  0  0  0  0
 19 21  1  0  0  0  0
 19 20  1  0  0  0  0
 20 22  1  0  0  0  0
 22 23  1  0  0  0  0
 22 26  1  1  0  0  0
 23 25  1  0  0  0  0
 24 25  1  0  0  0  0
 26 27  1  0  0  0  0
 27 31  1  0  0  0  0
 28 29  2  0  0  0  0
 28 33  1  0  0  0  0
 29 30  1  0  0  0  0
 30 31  2  0  0  0  0
 31 32  1  0  0  0  0
 32 33  2  0  0  0  0
M  END
>  <CHROM.1>
83.06574496,-64.99928399,-27.78899213,-177.16034679,107.17548267,111.03907568
-68.45639152,104.74364343,48.67277250,-48.52124045,9.17183465,42.87531118
71.78570684,-2.33303768,-0.82684579,-2.14956064

>  <Name>
ligand

>  <RI>
0

>  <Rbt.Current_Directory>
/home/itssahil/PROJECTS/Mol_Feturizer/New_Systems/rnas/3SUH

>  <Rbt.Executable>
rbdock ($Id: //depot/dev/client3/rdock/2013.1/src/exe/rbdock.cxx#4 $)

>  <Rbt.Library>
libRbt.so (2013.1, Build901 2013/11/27)

>  <Rbt.Parameter_File>
/export/apps/rDock/src/rDock_2013.1_src/data/scripts/dock_solv.prm

>  <Rbt.Receptor>
prm/pocket_docking_5.prm

>  <SCORE>
-15.0709

>  <SCORE.INTER>
-11.0827

>  <SCORE.INTER.CONST>
1

>  <SCORE.INTER.POLAR>
0

>  <SCORE.INTER.ROT>
10

>  <SCORE.INTER.SOLV>
18.7405

>  <SCORE.INTER.VDW>
-23.902

>  <SCORE.INTER.norm>
-0.325962

>  <SCORE.INTRA>
-3.98821

>  <SCORE.INTRA.DIHEDRAL>
-3.83745

>  <SCORE.INTRA.DIHEDRAL.0>
12.2703

>  <SCORE.INTRA.POLAR>
0

>  <SCORE.INTRA.POLAR.0>
0

>  <SCORE.INTRA.REPUL>
0

>  <SCORE.INTRA.REPUL.0>
0

>  <SCORE.INTRA.SOLV>
0.606698

>  <SCORE.INTRA.SOLV.lig_0>
-64.3214

>  <SCORE.INTRA.VDW>
-2.37283

>  <SCORE.INTRA.VDW.0>
-1.67301

>  <SCORE.INTRA.norm>
-0.1173

>  <SCORE.RESTR>
0

>  <SCORE.RESTR.CAVITY>
0

>  <SCORE.RESTR.norm>
0

>  <SCORE.SYSTEM>
0

>  <SCORE.SYSTEM.CONST>
0

>  <SCORE.SYSTEM.DIHEDRAL>
0

>  <SCORE.SYSTEM.SOLV>
0

>  <SCORE.SYSTEM.norm>
0

>  <SCORE.heavy>
34

>  <SCORE.norm>
-0.443262

>  <RMSD>
3.856

$$$$
ligand
 OpenBabel11021811483D
libRbt.so/2013.1/901 2013/11/27
 34 36  0  0  0  0  0  0  0  0999 V2000
    5.2545   41.8131   74.9513 N   0  0  0  0  0  0  0  0  0  0  0  0
    4.5747   42.2337   76.1987 C   0  0  1  0  0  0  0  0  0  0  0  0
    6.0563   42.6098   74.2328 C   0  0  0  0  0  0  0  0  0  0  0  0
    6.3174   43.7799   74.5258 O   0  0  0  0  0  0  0  0  0  0  0  0
    8.5236   46.0905   72.2869 N   0  0  0  0  0  0  0  0  0  0  0  0
    3.3037   43.0287   75.8556 C   0  0  0  0  0  0  0  0  0  0  0  0
    2.7279   43.7340   77.0911 C   0  0  0  0  0  0  0  0  0  0  0  0
    2.1226   42.7233   78.0771 C   0  0  0  0  0  0  0  0  0  0  0  0
    2.5384   42.7576   79.2590 O   0  0  0  0  0  0  0  0  0  0  0  0
    1.2550   41.9397   77.6276 O   0  0  0  0  0  0  0  0  0  0  0  0
    9.0819   44.9071   70.3774 N   0  0  0  0  0  0  0  0  0  0  0  0
    3.5186   40.1166   76.5863 O   0  0  0  0  0  0  0  0  0  0  0  0
    8.9930   44.9837   71.7167 C   0  0  0  0  0  0  0  0  0  0  0  0
    4.6403   41.0566   78.2736 O   0  0  0  0  0  0  0  0  0  0  0  0
    9.3896   43.9090   72.5224 N   0  0  0  0  0  0  0  0  0  0  0  0
    9.8733   42.7575   71.9161 C   0  0  0  0  0  0  0  0  0  0  0  0
    9.9220   42.6990   70.5295 C   0  0  0  0  0  0  0  0  0  0  0  0
   10.2177   41.7977   72.6012 O   0  0  0  0  0  0  0  0  0  0  0  0
   11.4571   40.9268   70.4577 C   0  0  0  0  0  0  0  0  0  0  0  0
   10.4623   41.5943   69.8807 N   0  0  0  0  0  0  0  0  0  0  0  0
   11.4759   39.6981   70.4409 O   0  0  0  0  0  0  0  0  0  0  0  0
   10.0709   41.3036   68.4971 C   0  0  2  0  0  0  0  0  0  0  0  0
   10.2051   42.5841   67.6691 C   0  0  0  0  0  0  0  0  0  0  0  0
    9.5468   43.8023   69.7748 C   0  0  0  0  0  0  0  0  0  0  0  0
    9.6386   43.7572   68.3793 N   0  0  0  0  0  0  0  0  0  0  0  0
    8.6286   40.7882   68.4443 C   0  0  0  0  0  0  0  0  0  0  0  0
    8.3134   40.0735   69.6874 N   0  0  0  0  0  0  0  0  0  0  0  0
    6.6926   41.9380   73.0025 C   0  0  0  0  0  0  0  0  0  0  0  0
    7.3065   40.6929   73.1143 C   0  0  0  0  0  0  0  0  0  0  0  0
    7.8327   40.0611   71.9893 C   0  0  0  0  0  0  0  0  0  0  0  0
    7.7908   40.6876   70.7483 C   0  0  0  0  0  0  0  0  0  0  0  0
    7.1861   41.9350   70.6364 C   0  0  0  0  0  0  0  0  0  0  0  0
    6.6277   42.5521   71.7549 C   0  0  0  0  0  0  0  0  0  0  0  0
    4.2129   41.0305   77.0936 C   0  0  0  0  0  0  0  0  0  0  0  0
  1  3  1  0  0  0  0
  2  1  1  6  0  0  0
  2  6  1  0  0  0  0
  2 34  1  0  0  0  0
  3  4  2  0  0  0  0
  3 28  1  0  0  0  0
  5 13  1  0  0  0  0
  6  7  1  0  0  0  0
  7  8  1  0  0  0  0
  8  9  1  0  0  0  0
  8 10  1  0  0  0  0
 11 13  2  0  0  0  0
 11 24  1  0  0  0  0
 12 34  1  0  0  0  0
 13 15  1  0  0  0  0
 14 34  1  0  0  0  0
 15 16  1  0  0  0  0
 16 17  1  0  0  0  0
 16 18  2  0  0  0  0
 17 20  1  0  0  0  0
 17 24  2  0  0  0  0
 19 21  1  0  0  0  0
 19 20  1  0  0  0  0
 20 22  1  0  0  0  0
 22 23  1  0  0  0  0
 22 26  1  1  0  0  0
 23 25  1  0  0  0  0
 24 25  1  0  0  0  0
 26 27  1  0  0  0  0
 27 31  1  0  0  0  0
 28 29  2  0  0  0  0
 28 33  1  0  0  0  0
 29 30  1  0  0  0  0
 30 31  2  0  0  0  0
 31 32  1  0  0  0  0
 32 33  2  0  0  0  0
M  END
>  <CHROM.1>
81.09869937,-168.00685875,-55.37920783,-70.38687709,125.52544233,138.03213687
-30.14408790,90.49662080,-163.47629037,-48.12265321,7.18111350,42.23140857
72.92482807,3.11275306,0.84829845,0.03274633

>  <Name>
ligand

>  <RI>
0

>  <Rbt.Current_Directory>
/home/itssahil/PROJECTS/Mol_Feturizer/New_Systems/rnas/3SUH

>  <Rbt.Executable>
rbdock ($Id: //depot/dev/client3/rdock/2013.1/src/exe/rbdock.cxx#4 $)

>  <Rbt.Library>
libRbt.so (2013.1, Build901 2013/11/27)

>  <Rbt.Parameter_File>
/export/apps/rDock/src/rDock_2013.1_src/data/scripts/dock_solv.prm

>  <Rbt.Receptor>
prm/pocket_docking_3.prm

>  <SCORE>
-7.76865

>  <SCORE.INTER>
-3.54902

>  <SCORE.INTER.CONST>
1

>  <SCORE.INTER.POLAR>
0

>  <SCORE.INTER.ROT>
10

>  <SCORE.INTER.SOLV>
13.1135

>  <SCORE.INTER.VDW>
-17.0039

>  <SCORE.INTER.norm>
-0.104383

>  <SCORE.INTRA>
-4.23115

>  <SCORE.INTRA.DIHEDRAL>
-1.47683

>  <SCORE.INTRA.DIHEDRAL.0>
12.2703

>  <SCORE.INTRA.POLAR>
0

>  <SCORE.INTRA.POLAR.0>
0

>  <SCORE.INTRA.REPUL>
0

>  <SCORE.INTRA.REPUL.0>
0

>  <SCORE.INTRA.SOLV>
1.98505

>  <SCORE.INTRA.SOLV.lig_0>
-64.3214

>  <SCORE.INTRA.VDW>
-4.48526

>  <SCORE.INTRA.VDW.0>
-1.67301

>  <SCORE.INTRA.norm>
-0.124446

>  <SCORE.RESTR>
0.0115204

>  <SCORE.RESTR.CAVITY>
0.0115204

>  <SCORE.RESTR.norm>
0.000338836

>  <SCORE.SYSTEM>
0

>  <SCORE.SYSTEM.CONST>
0

>  <SCORE.SYSTEM.DIHEDRAL>
0

>  <SCORE.SYSTEM.SOLV>
0

>  <SCORE.SYSTEM.norm>
0

>  <SCORE.heavy>
34

>  <SCORE.norm>
-0.22849

>  <RMSD>
3.866

$$$$
ligand
 OpenBabel11021811483D
libRbt.so/2013.1/901 2013/11/27
 34 36  0  0  0  0  0  0  0  0999 V2000
    6.2208   40.5273   74.3643 N   0  0  0  0  0  0  0  0  0  0  0  0
    5.6108   39.5031   75.2439 C   0  0  1  0  0  0  0  0  0  0  0  0
    6.7209   40.2662   73.1494 C   0  0  0  0  0  0  0  0  0  0  0  0
    6.7317   39.1477   72.6279 O   0  0  0  0  0  0  0  0  0  0  0  0
   12.5624   38.9532   71.4759 N   0  0  0  0  0  0  0  0  0  0  0  0
    6.7098   38.6060   75.8376 C   0  0  0  0  0  0  0  0  0  0  0  0
    6.1249   37.3258   76.4493 C   0  0  0  0  0  0  0  0  0  0  0  0
    5.3179   37.6345   77.7196 C   0  0  0  0  0  0  0  0  0  0  0  0
    4.1610   37.1578   77.7925 O   0  0  0  0  0  0  0  0  0  0  0  0
    5.8770   38.3387   78.5915 O   0  0  0  0  0  0  0  0  0  0  0  0
   12.6118   41.0367   70.4686 N   0  0  0  0  0  0  0  0  0  0  0  0
    5.3022   41.0830   77.0205 O   0  0  0  0  0  0  0  0  0  0  0  0
   11.9444   39.9173   70.7984 C   0  0  0  0  0  0  0  0  0  0  0  0
    3.6427   39.6528   76.5854 O   0  0  0  0  0  0  0  0  0  0  0  0
   10.6014   39.7525   70.4367 N   0  0  0  0  0  0  0  0  0  0  0  0
    9.9655   40.7672   69.7342 C   0  0  0  0  0  0  0  0  0  0  0  0
   10.6743   41.9239   69.4373 C   0  0  0  0  0  0  0  0  0  0  0  0
    8.7851   40.6502   69.4147 O   0  0  0  0  0  0  0  0  0  0  0  0
    9.2196   42.6181   67.7331 C   0  0  0  0  0  0  0  0  0  0  0  0
   10.1004   42.9366   68.6769 N   0  0  0  0  0  0  0  0  0  0  0  0
    9.5247   42.6919   66.5450 O   0  0  0  0  0  0  0  0  0  0  0  0
   10.6159   44.3057   68.7865 C   0  0  2  0  0  0  0  0  0  0  0  0
   12.1399   44.2695   68.6467 C   0  0  0  0  0  0  0  0  0  0  0  0
   12.0131   42.0272   69.7900 C   0  0  0  0  0  0  0  0  0  0  0  0
   12.7376   43.1752   69.4509 N   0  0  0  0  0  0  0  0  0  0  0  0
   10.2227   44.9210   70.1338 C   0  0  0  0  0  0  0  0  0  0  0  0
    8.7809   44.7519   70.3524 N   0  0  0  0  0  0  0  0  0  0  0  0
    7.2561   41.4985   72.3978 C   0  0  0  0  0  0  0  0  0  0  0  0
    8.1989   42.3348   72.9906 C   0  0  0  0  0  0  0  0  0  0  0  0
    8.7236   43.4178   72.2881 C   0  0  0  0  0  0  0  0  0  0  0  0
    8.2779   43.7025   71.0018 C   0  0  0  0  0  0  0  0  0  0  0  0
    7.3299   42.8735   70.4115 C   0  0  0  0  0  0  0  0  0  0  0  0
    6.8306   41.7691   71.1003 C   0  0  0  0  0  0  0  0  0  0  0  0
    4.7826   40.1369   76.3807 C   0  0  0  0  0  0  0  0  0  0  0  0
  1  3  1  0  0  0  0
  2  1  1  1  0  0  0
  2  6  1  0  0  0  0
  2 34  1  0  0  0  0
  3  4  2  0  0  0  0
  3 28  1  0  0  0  0
  5 13  1  0  0  0  0
  6  7  1  0  0  0  0
  7  8  1  0  0  0  0
  8  9  1  0  0  0  0
  8 10  1  0  0  0  0
 11 13  2  0  0  0  0
 11 24  1  0  0  0  0
 12 34  1  0  0  0  0
 13 15  1  0  0  0  0
 14 34  1  0  0  0  0
 15 16  1  0  0  0  0
 16 17  1  0  0  0  0
 16 18  2  0  0  0  0
 17 20  1  0  0  0  0
 17 24  2  0  0  0  0
 19 21  1  0  0  0  0
 19 20  1  0  0  0  0
 20 22  1  0  0  0  0
 22 23  1  0  0  0  0
 22 26  1  1  0  0  0
 23 25  1  0  0  0  0
 24 25  1  0  0  0  0
 26 27  1  0  0  0  0
 27 31  1  0  0  0  0
 28 29  2  0  0  0  0
 28 33  1  0  0  0  0
 29 30  1  0  0  0  0
 30 31  2  0  0  0  0
 31 32  1  0  0  0  0
 32 33  2  0  0  0  0
M  END
>  <CHROM.1>
73.73019950,-165.15198878,-46.79385019,-69.27805771,129.44731858,-107.22714803
-50.63050370,92.11019315,55.65676972,53.82632832,8.36445167,41.10972218,72.23427026
2.25354478,-0.54842611,2.44979725

>  <Name>
ligand

>  <RI>
0

>  <Rbt.Current_Directory>
/home/itssahil/PROJECTS/Mol_Feturizer/New_Systems/rnas/3SUH

>  <Rbt.Executable>
rbdock ($Id: //depot/dev/client3/rdock/2013.1/src/exe/rbdock.cxx#4 $)

>  <Rbt.Library>
libRbt.so (2013.1, Build901 2013/11/27)

>  <Rbt.Parameter_File>
/export/apps/rDock/src/rDock_2013.1_src/data/scripts/dock_solv.prm

>  <Rbt.Receptor>
prm/pocket_docking_4.prm

>  <SCORE>
-9.865

>  <SCORE.INTER>
-4.26695

>  <SCORE.INTER.CONST>
1

>  <SCORE.INTER.POLAR>
0

>  <SCORE.INTER.ROT>
10

>  <SCORE.INTER.SOLV>
14.5064

>  <SCORE.INTER.VDW>
-17.9468

>  <SCORE.INTER.norm>
-0.125498

>  <SCORE.INTRA>
-5.59805

>  <SCORE.INTRA.DIHEDRAL>
-3.72725

>  <SCORE.INTRA.DIHEDRAL.0>
12.2703

>  <SCORE.INTRA.POLAR>
0

>  <SCORE.INTRA.POLAR.0>
0

>  <SCORE.INTRA.REPUL>
0

>  <SCORE.INTRA.REPUL.0>
0

>  <SCORE.INTRA.SOLV>
0.158808

>  <SCORE.INTRA.SOLV.lig_0>
-64.3214

>  <SCORE.INTRA.VDW>
-3.81383

>  <SCORE.INTRA.VDW.0>
-1.67301

>  <SCORE.INTRA.norm>
-0.164649

>  <SCORE.RESTR>
0

>  <SCORE.RESTR.CAVITY>
0

>  <SCORE.RESTR.norm>
0

>  <SCORE.SYSTEM>
0

>  <SCORE.SYSTEM.CONST>
0

>  <SCORE.SYSTEM.DIHEDRAL>
0

>  <SCORE.SYSTEM.SOLV>
0

>  <SCORE.SYSTEM.norm>
0

>  <SCORE.heavy>
34

>  <SCORE.norm>
-0.290147

>  <RMSD>
3.883

$$$$
ligand
 OpenBabel11021811483D
libRbt.so/2013.1/901 2013/11/27
 34 36  0  0  0  0  0  0  0  0999 V2000
    5.1554   41.8382   74.9396 N   0  0  0  0  0  0  0  0  0  0  0  0
    4.5936   41.7871   76.3095 C   0  0  1  0  0  0  0  0  0  0  0  0
    6.4232   41.5267   74.6404 C   0  0  0  0  0  0  0  0  0  0  0  0
    7.2641   41.1651   75.4683 O   0  0  0  0  0  0  0  0  0  0  0  0
    8.6115   45.9964   72.4268 N   0  0  0  0  0  0  0  0  0  0  0  0
    3.1878   42.4109   76.3187 C   0  0  0  0  0  0  0  0  0  0  0  0
    3.2159   43.8739   75.8560 C   0  0  0  0  0  0  0  0  0  0  0  0
    4.1305   44.7232   76.7517 C   0  0  0  0  0  0  0  0  0  0  0  0
    3.6775   45.0683   77.8683 O   0  0  0  0  0  0  0  0  0  0  0  0
    5.2642   45.0066   76.3010 O   0  0  0  0  0  0  0  0  0  0  0  0
    8.9855   44.8866   70.4301 N   0  0  0  0  0  0  0  0  0  0  0  0
    4.4377   39.4123   76.0200 O   0  0  0  0  0  0  0  0  0  0  0  0
    9.0541   44.9258   71.7722 C   0  0  0  0  0  0  0  0  0  0  0  0
    4.5697   40.2114   78.1016 O   0  0  0  0  0  0  0  0  0  0  0  0
    9.5873   43.8498   72.4928 N   0  0  0  0  0  0  0  0  0  0  0  0
   10.0414   42.7360   71.7994 C   0  0  0  0  0  0  0  0  0  0  0  0
    9.9266   42.7143   70.4156 C   0  0  0  0  0  0  0  0  0  0  0  0
   10.5039   41.7755   72.4099 O   0  0  0  0  0  0  0  0  0  0  0  0
   11.5128   41.0135   70.1099 C   0  0  0  0  0  0  0  0  0  0  0  0
   10.4300   41.6508   69.6748 N   0  0  0  0  0  0  0  0  0  0  0  0
   12.6298   41.4993   69.9472 O   0  0  0  0  0  0  0  0  0  0  0  0
    9.8883   41.3778   68.3390 C   0  0  2  0  0  0  0  0  0  0  0  0
    9.8707   42.6832   67.5397 C   0  0  0  0  0  0  0  0  0  0  0  0
    9.4196   43.8185   69.7439 C   0  0  0  0  0  0  0  0  0  0  0  0
    9.3458   43.8123   68.3467 N   0  0  0  0  0  0  0  0  0  0  0  0
    8.4722   40.8011   68.4417 C   0  0  0  0  0  0  0  0  0  0  0  0
    7.5880   41.7752   69.0933 N   0  0  0  0  0  0  0  0  0  0  0  0
    6.7660   41.6038   73.1416 C   0  0  0  0  0  0  0  0  0  0  0  0
    7.1399   40.4594   72.4413 C   0  0  0  0  0  0  0  0  0  0  0  0
    7.3958   40.5205   71.0729 C   0  0  0  0  0  0  0  0  0  0  0  0
    7.3245   41.7350   70.3990 C   0  0  0  0  0  0  0  0  0  0  0  0
    6.9599   42.8805   71.0985 C   0  0  0  0  0  0  0  0  0  0  0  0
    6.6690   42.8138   72.4604 C   0  0  0  0  0  0  0  0  0  0  0  0
    4.5291   40.3452   76.8542 C   0  0  0  0  0  0  0  0  0  0  0  0
  1  3  1  0  0  0  0
  2  1  1  6  0  0  0
  2  6  1  0  0  0  0
  2 34  1  0  0  0  0
  3  4  2  0  0  0  0
  3 28  1  0  0  0  0
  5 13  1  0  0  0  0
  6  7  1  0  0  0  0
  7  8  1  0  0  0  0
  8  9  1  0  0  0  0
  8 10  1  0  0  0  0
 11 13  2  0  0  0  0
 11 24  1  0  0  0  0
 12 34  1  0  0  0  0
 13 15  1  0  0  0  0
 14 34  1  0  0  0  0
 15 16  1  0  0  0  0
 16 17  1  0  0  0  0
 16 18  2  0  0  0  0
 17 20  1  0  0  0  0
 17 24  2  0  0  0  0
 19 21  1  0  0  0  0
 19 20  1  0  0  0  0
 20 22  1  0  0  0  0
 22 23  1  0  0  0  0
 22 26  1  1  0  0  0
 23 25  1  0  0  0  0
 24 25  1  0  0  0  0
 26 27  1  0  0  0  0
 27 31  1  0  0  0  0
 28 29  2  0  0  0  0
 28 33  1  0  0  0  0
 29 30  1  0  0  0  0
 30 31  2  0  0  0  0
 31 32  1  0  0  0  0
 32 33  2  0  0  0  0
M  END
>  <CHROM.1>
171.33124065,-59.57265736,-26.57399564,-58.74350314,-77.60639837,-78.50868876
61.33296794,-95.76394666,-26.81562567,-116.21108308,7.47758999,42.42694706
72.70238195,3.11526716,0.90090478,0.02377146

>  <Name>
ligand

>  <RI>
0

>  <Rbt.Current_Directory>
/home/itssahil/PROJECTS/Mol_Feturizer/New_Systems/rnas/3SUH

>  <Rbt.Executable>
rbdock ($Id: //depot/dev/client3/rdock/2013.1/src/exe/rbdock.cxx#4 $)

>  <Rbt.Library>
libRbt.so (2013.1, Build901 2013/11/27)

>  <Rbt.Parameter_File>
/export/apps/rDock/src/rDock_2013.1_src/data/scripts/dock_solv.prm

>  <Rbt.Receptor>
prm/pocket_docking_3.prm

>  <SCORE>
-9.86238

>  <SCORE.INTER>
-5.01319

>  <SCORE.INTER.CONST>
1

>  <SCORE.INTER.POLAR>
0

>  <SCORE.INTER.ROT>
10

>  <SCORE.INTER.SOLV>
13.4949

>  <SCORE.INTER.VDW>
-18.1071

>  <SCORE.INTER.norm>
-0.147447

>  <SCORE.INTRA>
-4.86071

>  <SCORE.INTRA.DIHEDRAL>
-5.30058

>  <SCORE.INTRA.DIHEDRAL.0>
12.2703

>  <SCORE.INTRA.POLAR>
0

>  <SCORE.INTRA.POLAR.0>
0

>  <SCORE.INTRA.REPUL>
0

>  <SCORE.INTRA.REPUL.0>
0

>  <SCORE.INTRA.SOLV>
2.99207

>  <SCORE.INTRA.SOLV.lig_0>
-64.3214

>  <SCORE.INTRA.VDW>
-3.70646

>  <SCORE.INTRA.VDW.0>
-1.67301

>  <SCORE.INTRA.norm>
-0.142962

>  <SCORE.RESTR>
0.0115279

>  <SCORE.RESTR.CAVITY>
0.0115279

>  <SCORE.RESTR.norm>
0.000339057

>  <SCORE.SYSTEM>
0

>  <SCORE.SYSTEM.CONST>
0

>  <SCORE.SYSTEM.DIHEDRAL>
0

>  <SCORE.SYSTEM.SOLV>
0

>  <SCORE.SYSTEM.norm>
0

>  <SCORE.heavy>
34

>  <SCORE.norm>
-0.29007

>  <RMSD>
3.889

$$$$
ligand
 OpenBabel11021811483D
libRbt.so/2013.1/901 2013/11/27
 34 36  0  0  0  0  0  0  0  0999 V2000
    5.5810   42.3648   75.1423 N   0  0  0  0  0  0  0  0  0  0  0  0
    5.0996   42.2136   76.5352 C   0  0  1  0  0  0  0  0  0  0  0  0
    5.9781   41.3419   74.3743 C   0  0  0  0  0  0  0  0  0  0  0  0
    5.9898   40.1628   74.7387 O   0  0  0  0  0  0  0  0  0  0  0  0
   11.3663   41.2401   74.0503 N   0  0  0  0  0  0  0  0  0  0  0  0
    6.0361   41.2712   77.3098 C   0  0  0  0  0  0  0  0  0  0  0  0
    5.3707   40.7363   78.5852 C   0  0  0  0  0  0  0  0  0  0  0  0
    4.1028   39.9335   78.2564 C   0  0  0  0  0  0  0  0  0  0  0  0
    4.0546   39.3737   77.1360 O   0  0  0  0  0  0  0  0  0  0  0  0
    3.2103   39.8951   79.1343 O   0  0  0  0  0  0  0  0  0  0  0  0
   11.2438   42.6718   72.2354 N   0  0  0  0  0  0  0  0  0  0  0  0
    6.0769   44.1560   77.5451 O   0  0  0  0  0  0  0  0  0  0  0  0
   11.0433   41.4582   72.7780 C   0  0  0  0  0  0  0  0  0  0  0  0
    3.8497   43.9885   77.5267 O   0  0  0  0  0  0  0  0  0  0  0  0
   10.4964   40.4165   72.0182 N   0  0  0  0  0  0  0  0  0  0  0  0
   10.1587   40.6570   70.6932 C   0  0  0  0  0  0  0  0  0  0  0  0
   10.3488   41.9304   70.1729 C   0  0  0  0  0  0  0  0  0  0  0  0
    9.6681   39.7621   70.0095 O   0  0  0  0  0  0  0  0  0  0  0  0
   10.2834   41.2424   67.9313 C   0  0  0  0  0  0  0  0  0  0  0  0
   10.0896   42.1996   68.8336 N   0  0  0  0  0  0  0  0  0  0  0  0
   10.7512   41.5117   66.8272 O   0  0  0  0  0  0  0  0  0  0  0  0
    9.8032   43.5757   68.4135 C   0  0  2  0  0  0  0  0  0  0  0  0
   10.8774   44.4999   68.9925 C   0  0  0  0  0  0  0  0  0  0  0  0
   10.9233   42.9218   70.9568 C   0  0  0  0  0  0  0  0  0  0  0  0
   11.1549   44.1918   70.4171 N   0  0  0  0  0  0  0  0  0  0  0  0
    8.4156   44.0076   68.9000 C   0  0  0  0  0  0  0  0  0  0  0  0
    7.5840   42.8213   69.1379 N   0  0  0  0  0  0  0  0  0  0  0  0
    6.3877   41.7353   72.9435 C   0  0  0  0  0  0  0  0  0  0  0  0
    6.3442   43.0663   72.5355 C   0  0  0  0  0  0  0  0  0  0  0  0
    6.7680   43.4279   71.2583 C   0  0  0  0  0  0  0  0  0  0  0  0
    7.1973   42.4569   70.3599 C   0  0  0  0  0  0  0  0  0  0  0  0
    7.2330   41.1261   70.7627 C   0  0  0  0  0  0  0  0  0  0  0  0
    6.8429   40.7677   72.0522 C   0  0  0  0  0  0  0  0  0  0  0  0
    5.0036   43.5700   77.2639 C   0  0  0  0  0  0  0  0  0  0  0  0
  1  3  1  0  0  0  0
  2  1  1  6  0  0  0
  2  6  1  0  0  0  0
  2 34  1  0  0  0  0
  3  4  2  0  0  0  0
  3 28  1  0  0  0  0
  5 13  1  0  0  0  0
  6  7  1  0  0  0  0
  7  8  1  0  0  0  0
  8  9  1  0  0  0  0
  8 10  1  0  0  0  0
 11 13  2  0  0  0  0
 11 24  1  0  0  0  0
 12 34  1  0  0  0  0
 13 15  1  0  0  0  0
 14 34  1  0  0  0  0
 15 16  1  0  0  0  0
 16 17  1  0  0  0  0
 16 18  2  0  0  0  0
 17 20  1  0  0  0  0
 17 24  2  0  0  0  0
 19 21  1  0  0  0  0
 19 20  1  0  0  0  0
 20 22  1  0  0  0  0
 22 23  1  0  0  0  0
 22 26  1  1  0  0  0
 23 25  1  0  0  0  0
 24 25  1  0  0  0  0
 26 27  1  0  0  0  0
 27 31  1  0  0  0  0
 28 29  2  0  0  0  0
 28 33  1  0  0  0  0
 29 30  1  0  0  0  0
 30 31  2  0  0  0  0
 31 32  1  0  0  0  0
 32 33  2  0  0  0  0
M  END
>  <CHROM.1>
45.42067351,-162.23567369,-69.45220526,60.75603603,27.48336527,-141.58284748
-23.04361633,111.90272851,42.07313147,0.66596120,7.77147470,41.94147428,72.88630998
2.43864004,-0.76074727,2.36409700

>  <Name>
ligand

>  <RI>
0

>  <Rbt.Current_Directory>
/home/itssahil/PROJECTS/Mol_Feturizer/New_Systems/rnas/3SUH

>  <Rbt.Executable>
rbdock ($Id: //depot/dev/client3/rdock/2013.1/src/exe/rbdock.cxx#4 $)

>  <Rbt.Library>
libRbt.so (2013.1, Build901 2013/11/27)

>  <Rbt.Parameter_File>
/export/apps/rDock/src/rDock_2013.1_src/data/scripts/dock_solv.prm

>  <Rbt.Receptor>
prm/pocket_docking_2.prm

>  <SCORE>
-0.762231

>  <SCORE.INTER>
-3.19703

>  <SCORE.INTER.CONST>
1

>  <SCORE.INTER.POLAR>
0

>  <SCORE.INTER.ROT>
10

>  <SCORE.INTER.SOLV>
12.5917

>  <SCORE.INTER.VDW>
-16.5953

>  <SCORE.INTER.norm>
-0.0940304

>  <SCORE.INTRA>
0.00244937

>  <SCORE.INTRA.DIHEDRAL>
0.47125

>  <SCORE.INTRA.DIHEDRAL.0>
12.2703

>  <SCORE.INTRA.POLAR>
0

>  <SCORE.INTRA.POLAR.0>
0

>  <SCORE.INTRA.REPUL>
0

>  <SCORE.INTRA.REPUL.0>
0

>  <SCORE.INTRA.SOLV>
1.16524

>  <SCORE.INTRA.SOLV.lig_0>
-64.3214

>  <SCORE.INTRA.VDW>
-0.815794

>  <SCORE.INTRA.VDW.0>
-1.67301

>  <SCORE.INTRA.norm>
7.20404e-05

>  <SCORE.RESTR>
2.43235

>  <SCORE.RESTR.CAVITY>
2.43235

>  <SCORE.RESTR.norm>
0.0715398

>  <SCORE.SYSTEM>
0

>  <SCORE.SYSTEM.CONST>
0

>  <SCORE.SYSTEM.DIHEDRAL>
0

>  <SCORE.SYSTEM.SOLV>
0

>  <SCORE.SYSTEM.norm>
0

>  <SCORE.heavy>
34

>  <SCORE.norm>
-0.0224186

>  <RMSD>
3.906

$$$$
ligand
 OpenBabel11021811483D
libRbt.so/2013.1/901 2013/11/27
 34 36  0  0  0  0  0  0  0  0999 V2000
    5.8912   40.9207   75.0548 N   0  0  0  0  0  0  0  0  0  0  0  0
    5.4272   40.2856   76.3102 C   0  0  1  0  0  0  0  0  0  0  0  0
    5.4809   42.1230   74.6302 C   0  0  0  0  0  0  0  0  0  0  0  0
    4.6721   42.8342   75.2329 O   0  0  0  0  0  0  0  0  0  0  0  0
    9.2496   38.7256   72.1681 N   0  0  0  0  0  0  0  0  0  0  0  0
    6.0322   38.8772   76.4351 C   0  0  0  0  0  0  0  0  0  0  0  0
    5.4177   38.1003   77.6073 C   0  0  0  0  0  0  0  0  0  0  0  0
    6.0372   36.7000   77.7323 C   0  0  0  0  0  0  0  0  0  0  0  0
    5.5458   35.7915   77.0222 O   0  0  0  0  0  0  0  0  0  0  0  0
    6.9908   36.5694   78.5338 O   0  0  0  0  0  0  0  0  0  0  0  0
   10.1414   40.7641   71.5298 N   0  0  0  0  0  0  0  0  0  0  0  0
    6.9609   41.5806   77.6211 O   0  0  0  0  0  0  0  0  0  0  0  0
    9.3543   39.7049   71.2734 C   0  0  0  0  0  0  0  0  0  0  0  0
    4.8922   41.2858   78.4100 O   0  0  0  0  0  0  0  0  0  0  0  0
    8.6399   39.6190   70.0718 N   0  0  0  0  0  0  0  0  0  0  0  0
    8.7529   40.6491   69.1479 C   0  0  0  0  0  0  0  0  0  0  0  0
    9.5492   41.7438   69.4576 C   0  0  0  0  0  0  0  0  0  0  0  0
    8.1282   40.6013   68.0912 O   0  0  0  0  0  0  0  0  0  0  0  0
    9.7568   42.4746   67.2383 C   0  0  0  0  0  0  0  0  0  0  0  0
    9.7467   42.7658   68.5356 N   0  0  0  0  0  0  0  0  0  0  0  0
   10.8202   42.3170   66.6429 O   0  0  0  0  0  0  0  0  0  0  0  0
   10.1369   44.0997   69.0052 C   0  0  2  0  0  0  0  0  0  0  0  0
   11.3159   43.9553   69.9709 C   0  0  0  0  0  0  0  0  0  0  0  0
   10.2624   41.7684   70.6485 C   0  0  0  0  0  0  0  0  0  0  0  0
   11.0988   42.8519   70.9389 N   0  0  0  0  0  0  0  0  0  0  0  0
    8.9603   44.7874   69.7060 C   0  0  0  0  0  0  0  0  0  0  0  0
    7.8150   43.8708   69.7634 N   0  0  0  0  0  0  0  0  0  0  0  0
    6.1396   42.6008   73.3235 C   0  0  0  0  0  0  0  0  0  0  0  0
    6.5714   41.6809   72.3710 C   0  0  0  0  0  0  0  0  0  0  0  0
    7.1165   42.1161   71.1647 C   0  0  0  0  0  0  0  0  0  0  0  0
    7.2773   43.4752   70.9168 C   0  0  0  0  0  0  0  0  0  0  0  0
    6.8549   44.3950   71.8706 C   0  0  0  0  0  0  0  0  0  0  0  0
    6.2767   43.9613   73.0628 C   0  0  0  0  0  0  0  0  0  0  0  0
    5.7941   41.1240   77.5521 C   0  0  0  0  0  0  0  0  0  0  0  0
  1  3  1  0  0  0  0
  2  1  1  6  0  0  0
  2  6  1  0  0  0  0
  2 34  1  0  0  0  0
  3  4  2  0  0  0  0
  3 28  1  0  0  0  0
  5 13  1  0  0  0  0
  6  7  1  0  0  0  0
  7  8  1  0  0  0  0
  8  9  1  0  0  0  0
  8 10  1  0  0  0  0
 11 13  2  0  0  0  0
 11 24  1  0  0  0  0
 12 34  1  0  0  0  0
 13 15  1  0  0  0  0
 14 34  1  0  0  0  0
 15 16  1  0  0  0  0
 16 17  1  0  0  0  0
 16 18  2  0  0  0  0
 17 20  1  0  0  0  0
 17 24  2  0  0  0  0
 19 21  1  0  0  0  0
 19 20  1  0  0  0  0
 20 22  1  0  0  0  0
 22 23  1  0  0  0  0
 22 26  1  1  0  0  0
 23 25  1  0  0  0  0
 24 25  1  0  0  0  0
 26 27  1  0  0  0  0
 27 31  1  0  0  0  0
 28 29  2  0  0  0  0
 28 33  1  0  0  0  0
 29 30  1  0  0  0  0
 30 31  2  0  0  0  0
 31 32  1  0  0  0  0
 32 33  2  0  0  0  0
M  END
>  <CHROM.1>
176.37451551,-171.42264598,-45.67469312,-179.46999762,-84.87451510,-97.84880847
3.18859527,119.54734979,-127.18047588,29.31349089,7.73399117,41.26693432
72.67944524,2.36861767,-0.99172278,2.68567657

>  <Name>
ligand

>  <RI>
0

>  <Rbt.Current_Directory>
/home/itssahil/PROJECTS/Mol_Feturizer/New_Systems/rnas/3SUH

>  <Rbt.Executable>
rbdock ($Id: //depot/dev/client3/rdock/2013.1/src/exe/rbdock.cxx#4 $)

>  <Rbt.Library>
libRbt.so (2013.1, Build901 2013/11/27)

>  <Rbt.Parameter_File>
/export/apps/rDock/src/rDock_2013.1_src/data/scripts/dock_solv.prm

>  <Rbt.Receptor>
prm/pocket_docking_6.prm

>  <SCORE>
-8.70142

>  <SCORE.INTER>
-6.65322

>  <SCORE.INTER.CONST>
1

>  <SCORE.INTER.POLAR>
0

>  <SCORE.INTER.ROT>
10

>  <SCORE.INTER.SOLV>
12.4112

>  <SCORE.INTER.VDW>
-18.8392

>  <SCORE.INTER.norm>
-0.195683

>  <SCORE.INTRA>
-2.0482

>  <SCORE.INTRA.DIHEDRAL>
0.550471

>  <SCORE.INTRA.DIHEDRAL.0>
12.2703

>  <SCORE.INTRA.POLAR>
0

>  <SCORE.INTRA.POLAR.0>
0

>  <SCORE.INTRA.REPUL>
0

>  <SCORE.INTRA.REPUL.0>
0

>  <SCORE.INTRA.SOLV>
1.46978

>  <SCORE.INTRA.SOLV.lig_0>
-64.3214

>  <SCORE.INTRA.VDW>
-3.05832

>  <SCORE.INTRA.VDW.0>
-1.67301

>  <SCORE.INTRA.norm>
-0.0602412

>  <SCORE.RESTR>
0

>  <SCORE.RESTR.CAVITY>
0

>  <SCORE.RESTR.norm>
0

>  <SCORE.SYSTEM>
0

>  <SCORE.SYSTEM.CONST>
0

>  <SCORE.SYSTEM.DIHEDRAL>
0

>  <SCORE.SYSTEM.SOLV>
0

>  <SCORE.SYSTEM.norm>
0

>  <SCORE.heavy>
34

>  <SCORE.norm>
-0.255924

>  <RMSD>
3.907

$$$$
ligand
 OpenBabel11021811483D
libRbt.so/2013.1/901 2013/11/27
 34 36  0  0  0  0  0  0  0  0999 V2000
    6.0238   41.7477   75.6554 N   0  0  0  0  0  0  0  0  0  0  0  0
    5.6086   41.7647   77.0775 C   0  0  1  0  0  0  0  0  0  0  0  0
    6.3118   40.6305   74.9750 C   0  0  0  0  0  0  0  0  0  0  0  0
    6.2660   39.4939   75.4536 O   0  0  0  0  0  0  0  0  0  0  0  0
    7.9626   46.0001   72.4653 N   0  0  0  0  0  0  0  0  0  0  0  0
    5.1455   43.1785   77.4672 C   0  0  0  0  0  0  0  0  0  0  0  0
    4.0952   43.7191   76.4874 C   0  0  0  0  0  0  0  0  0  0  0  0
    2.7311   43.0476   76.7078 C   0  0  0  0  0  0  0  0  0  0  0  0
    2.2711   43.0558   77.8737 O   0  0  0  0  0  0  0  0  0  0  0  0
    2.1769   42.5427   75.7044 O   0  0  0  0  0  0  0  0  0  0  0  0
    8.3562   44.8472   70.4970 N   0  0  0  0  0  0  0  0  0  0  0  0
    3.8496   40.2920   76.3813 O   0  0  0  0  0  0  0  0  0  0  0  0
    8.5554   45.0002   71.8177 C   0  0  0  0  0  0  0  0  0  0  0  0
    4.2812   40.4549   78.5667 O   0  0  0  0  0  0  0  0  0  0  0  0
    9.3820   44.1169   72.5235 N   0  0  0  0  0  0  0  0  0  0  0  0
    9.9913   43.0744   71.8382 C   0  0  0  0  0  0  0  0  0  0  0  0
    9.7391   42.9257   70.4807 C   0  0  0  0  0  0  0  0  0  0  0  0
   10.7126   42.2807   72.4372 O   0  0  0  0  0  0  0  0  0  0  0  0
   11.6151   41.5773   70.0751 C   0  0  0  0  0  0  0  0  0  0  0  0
   10.3803   41.9390   69.7400 N   0  0  0  0  0  0  0  0  0  0  0  0
   11.9619   40.4006   70.0010 O   0  0  0  0  0  0  0  0  0  0  0  0
    9.7734   41.4594   68.4936 C   0  0  2  0  0  0  0  0  0  0  0  0
    9.3892   42.6686   67.6370 C   0  0  0  0  0  0  0  0  0  0  0  0
    8.9370   43.8456   69.8190 C   0  0  0  0  0  0  0  0  0  0  0  0
    8.7198   43.7196   68.4425 N   0  0  0  0  0  0  0  0  0  0  0  0
    8.5348   40.6079   68.7926 C   0  0  0  0  0  0  0  0  0  0  0  0
    7.5324   41.4219   69.4912 N   0  0  0  0  0  0  0  0  0  0  0  0
    6.6692   40.8554   73.4946 C   0  0  0  0  0  0  0  0  0  0  0  0
    7.1024   39.7952   72.7021 C   0  0  0  0  0  0  0  0  0  0  0  0
    7.3721   39.9889   71.3488 C   0  0  0  0  0  0  0  0  0  0  0  0
    7.2549   41.2543   70.7838 C   0  0  0  0  0  0  0  0  0  0  0  0
    6.8311   42.3161   71.5758 C   0  0  0  0  0  0  0  0  0  0  0  0
    6.5268   42.1160   72.9215 C   0  0  0  0  0  0  0  0  0  0  0  0
    4.4834   40.7489   77.3632 C   0  0  0  0  0  0  0  0  0  0  0  0
  1  3  1  0  0  0  0
  2  1  1  6  0  0  0
  2  6  1  0  0  0  0
  2 34  1  0  0  0  0
  3  4  2  0  0  0  0
  3 28  1  0  0  0  0
  5 13  1  0  0  0  0
  6  7  1  0  0  0  0
  7  8  1  0  0  0  0
  8  9  1  0  0  0  0
  8 10  1  0  0  0  0
 11 13  2  0  0  0  0
 11 24  1  0  0  0  0
 12 34  1  0  0  0  0
 13 15  1  0  0  0  0
 14 34  1  0  0  0  0
 15 16  1  0  0  0  0
 16 17  1  0  0  0  0
 16 18  2  0  0  0  0
 17 20  1  0  0  0  0
 17 24  2  0  0  0  0
 19 21  1  0  0  0  0
 19 20  1  0  0  0  0
 20 22  1  0  0  0  0
 22 23  1  0  0  0  0
 22 26  1  1  0  0  0
 23 25  1  0  0  0  0
 24 25  1  0  0  0  0
 26 27  1  0  0  0  0
 27 31  1  0  0  0  0
 28 29  2  0  0  0  0
 28 33  1  0  0  0  0
 29 30  1  0  0  0  0
 30 31  2  0  0  0  0
 31 32  1  0  0  0  0
 32 33  2  0  0  0  0
M  END
>  <CHROM.1>
-171.02856340,51.76915057,-16.63857043,74.51654468,52.43429580,142.19042413
61.49081604,-108.12733182,-31.08461914,174.37028959,7.21729688,42.12791010
72.93216914,-2.91355823,0.88009474,-0.22315065

>  <Name>
ligand

>  <RI>
0

>  <Rbt.Current_Directory>
/home/itssahil/PROJECTS/Mol_Feturizer/New_Systems/rnas/3SUH

>  <Rbt.Executable>
rbdock ($Id: //depot/dev/client3/rdock/2013.1/src/exe/rbdock.cxx#4 $)

>  <Rbt.Library>
libRbt.so (2013.1, Build901 2013/11/27)

>  <Rbt.Parameter_File>
/export/apps/rDock/src/rDock_2013.1_src/data/scripts/dock_solv.prm

>  <Rbt.Receptor>
prm/pocket_docking_3.prm

>  <SCORE>
-7.67878

>  <SCORE.INTER>
-4.15838

>  <SCORE.INTER.CONST>
1

>  <SCORE.INTER.POLAR>
0

>  <SCORE.INTER.ROT>
10

>  <SCORE.INTER.SOLV>
11.707

>  <SCORE.INTER.VDW>
-16.9412

>  <SCORE.INTER.norm>
-0.122305

>  <SCORE.INTRA>
-3.5204

>  <SCORE.INTRA.DIHEDRAL>
-3.85526

>  <SCORE.INTRA.DIHEDRAL.0>
12.2703

>  <SCORE.INTRA.POLAR>
0

>  <SCORE.INTRA.POLAR.0>
0

>  <SCORE.INTRA.REPUL>
0

>  <SCORE.INTRA.REPUL.0>
0

>  <SCORE.INTRA.SOLV>
2.36503

>  <SCORE.INTRA.SOLV.lig_0>
-64.3214

>  <SCORE.INTRA.VDW>
-2.77528

>  <SCORE.INTRA.VDW.0>
-1.67301

>  <SCORE.INTRA.norm>
-0.103541

>  <SCORE.RESTR>
0

>  <SCORE.RESTR.CAVITY>
0

>  <SCORE.RESTR.norm>
0

>  <SCORE.SYSTEM>
0

>  <SCORE.SYSTEM.CONST>
0

>  <SCORE.SYSTEM.DIHEDRAL>
0

>  <SCORE.SYSTEM.SOLV>
0

>  <SCORE.SYSTEM.norm>
0

>  <SCORE.heavy>
34

>  <SCORE.norm>
-0.225846

>  <RMSD>
3.914

$$$$
ligand
 OpenBabel11021811483D
libRbt.so/2013.1/901 2013/11/27
 34 36  0  0  0  0  0  0  0  0999 V2000
    6.0449   43.2326   73.9518 N   0  0  0  0  0  0  0  0  0  0  0  0
    5.4667   43.5308   75.2829 C   0  0  1  0  0  0  0  0  0  0  0  0
    6.2703   41.9934   73.4962 C   0  0  0  0  0  0  0  0  0  0  0  0
    6.0248   40.9640   74.1313 O   0  0  0  0  0  0  0  0  0  0  0  0
   13.2355   46.3414   71.2296 N   0  0  0  0  0  0  0  0  0  0  0  0
    5.9201   44.9254   75.7463 C   0  0  0  0  0  0  0  0  0  0  0  0
    5.7394   45.1041   77.2599 C   0  0  0  0  0  0  0  0  0  0  0  0
    4.2540   45.0715   77.6505 C   0  0  0  0  0  0  0  0  0  0  0  0
    3.5159   45.9624   77.1683 O   0  0  0  0  0  0  0  0  0  0  0  0
    3.8885   44.1543   78.4211 O   0  0  0  0  0  0  0  0  0  0  0  0
   12.5769   45.2289   69.3095 N   0  0  0  0  0  0  0  0  0  0  0  0
    3.3104   44.2736   74.5437 O   0  0  0  0  0  0  0  0  0  0  0  0
   12.7318   45.2577   70.6446 C   0  0  0  0  0  0  0  0  0  0  0  0
    3.3974   42.5855   76.0037 O   0  0  0  0  0  0  0  0  0  0  0  0
   12.3680   44.1571   71.4307 N   0  0  0  0  0  0  0  0  0  0  0  0
   11.8389   43.0336   70.8098 C   0  0  0  0  0  0  0  0  0  0  0  0
   11.6622   43.0488   69.4325 C   0  0  0  0  0  0  0  0  0  0  0  0
   11.5030   42.0597   71.4790 O   0  0  0  0  0  0  0  0  0  0  0  0
   11.5158   40.7170   69.2239 C   0  0  0  0  0  0  0  0  0  0  0  0
   11.2006   41.9226   68.7603 N   0  0  0  0  0  0  0  0  0  0  0  0
   10.6419   39.9633   69.6466 O   0  0  0  0  0  0  0  0  0  0  0  0
   10.5506   42.0745   67.4539 C   0  0  2  0  0  0  0  0  0  0  0  0
   11.4313   42.9579   66.5666 C   0  0  0  0  0  0  0  0  0  0  0  0
   12.0672   44.1517   68.6930 C   0  0  0  0  0  0  0  0  0  0  0  0
   11.9292   44.1474   67.3006 N   0  0  0  0  0  0  0  0  0  0  0  0
    9.1624   42.7034   67.6150 C   0  0  0  0  0  0  0  0  0  0  0  0
    8.2352   41.7160   68.1811 N   0  0  0  0  0  0  0  0  0  0  0  0
    6.8290   41.9287   72.0632 C   0  0  0  0  0  0  0  0  0  0  0  0
    7.3020   40.7271   71.5416 C   0  0  0  0  0  0  0  0  0  0  0  0
    7.7557   40.6580   70.2258 C   0  0  0  0  0  0  0  0  0  0  0  0
    7.7832   41.7997   69.4319 C   0  0  0  0  0  0  0  0  0  0  0  0
    7.3195   43.0024   69.9541 C   0  0  0  0  0  0  0  0  0  0  0  0
    6.8322   43.0648   71.2589 C   0  0  0  0  0  0  0  0  0  0  0  0
    3.9258   43.4587   75.2730 C   0  0  0  0  0  0  0  0  0  0  0  0
  1  3  1  0  0  0  0
  2  1  1  6  0  0  0
  2  6  1  0  0  0  0
  2 34  1  0  0  0  0
  3  4  2  0  0  0  0
  3 28  1  0  0  0  0
  5 13  1  0  0  0  0
  6  7  1  0  0  0  0
  7  8  1  0  0  0  0
  8  9  1  0  0  0  0
  8 10  1  0  0  0  0
 11 13  2  0  0  0  0
 11 24  1  0  0  0  0
 12 34  1  0  0  0  0
 13 15  1  0  0  0  0
 14 34  1  0  0  0  0
 15 16  1  0  0  0  0
 16 17  1  0  0  0  0
 16 18  2  0  0  0  0
 17 20  1  0  0  0  0
 17 24  2  0  0  0  0
 19 21  1  0  0  0  0
 19 20  1  0  0  0  0
 20 22  1  0  0  0  0
 22 23  1  0  0  0  0
 22 26  1  1  0  0  0
 23 25  1  0  0  0  0
 24 25  1  0  0  0  0
 26 27  1  0  0  0  0
 27 31  1  0  0  0  0
 28 29  2  0  0  0  0
 28 33  1  0  0  0  0
 29 30  1  0  0  0  0
 30 31  2  0  0  0  0
 31 32  1  0  0  0  0
 32 33  2  0  0  0  0
M  END
>  <CHROM.1>
154.18533264,-161.73863701,-62.95501803,-65.38975841,-61.74670211,115.10994354
-73.45874892,108.44320243,-135.18954755,170.00524160,8.30040017,43.12290687
71.89478655,2.47526651,0.51302643,0.87037999

>  <Name>
ligand

>  <RI>
0

>  <Rbt.Current_Directory>
/home/itssahil/PROJECTS/Mol_Feturizer/New_Systems/rnas/3SUH

>  <Rbt.Executable>
rbdock ($Id: //depot/dev/client3/rdock/2013.1/src/exe/rbdock.cxx#4 $)

>  <Rbt.Library>
libRbt.so (2013.1, Build901 2013/11/27)

>  <Rbt.Parameter_File>
/export/apps/rDock/src/rDock_2013.1_src/data/scripts/dock_solv.prm

>  <Rbt.Receptor>
prm/pocket_docking_4.prm

>  <SCORE>
-18.3203

>  <SCORE.INTER>
-14.2371

>  <SCORE.INTER.CONST>
1

>  <SCORE.INTER.POLAR>
0

>  <SCORE.INTER.ROT>
10

>  <SCORE.INTER.SOLV>
20.8831

>  <SCORE.INTER.VDW>
-26.7191

>  <SCORE.INTER.norm>
-0.41874

>  <SCORE.INTRA>
-4.08311

>  <SCORE.INTRA.DIHEDRAL>
-2.26636

>  <SCORE.INTRA.DIHEDRAL.0>
12.2703

>  <SCORE.INTRA.POLAR>
0

>  <SCORE.INTRA.POLAR.0>
0

>  <SCORE.INTRA.REPUL>
0

>  <SCORE.INTRA.REPUL.0>
0

>  <SCORE.INTRA.SOLV>
-0.131857

>  <SCORE.INTRA.SOLV.lig_0>
-64.3214

>  <SCORE.INTRA.VDW>
-2.884

>  <SCORE.INTRA.VDW.0>
-1.67301

>  <SCORE.INTRA.norm>
-0.120091

>  <SCORE.RESTR>
0

>  <SCORE.RESTR.CAVITY>
0

>  <SCORE.RESTR.norm>
0

>  <SCORE.SYSTEM>
0

>  <SCORE.SYSTEM.CONST>
0

>  <SCORE.SYSTEM.DIHEDRAL>
0

>  <SCORE.SYSTEM.SOLV>
0

>  <SCORE.SYSTEM.norm>
0

>  <SCORE.heavy>
34

>  <SCORE.norm>
-0.538831

>  <RMSD>
3.918

$$$$
ligand
 OpenBabel11021811483D
libRbt.so/2013.1/901 2013/11/27
 34 36  0  0  0  0  0  0  0  0999 V2000
    6.3666   40.9701   74.9546 N   0  0  0  0  0  0  0  0  0  0  0  0
    6.0395   40.3637   76.2661 C   0  0  1  0  0  0  0  0  0  0  0  0
    5.7119   42.0145   74.4307 C   0  0  0  0  0  0  0  0  0  0  0  0
    4.7649   42.5866   74.9777 O   0  0  0  0  0  0  0  0  0  0  0  0
   13.2472   40.3175   72.5477 N   0  0  0  0  0  0  0  0  0  0  0  0
    6.9761   39.1744   76.5374 C   0  0  0  0  0  0  0  0  0  0  0  0
    6.7851   38.0574   75.5024 C   0  0  0  0  0  0  0  0  0  0  0  0
    7.6865   36.8524   75.8116 C   0  0  0  0  0  0  0  0  0  0  0  0
    7.1374   35.8383   76.3028 O   0  0  0  0  0  0  0  0  0  0  0  0
    8.9051   36.9710   75.5476 O   0  0  0  0  0  0  0  0  0  0  0  0
   12.5943   41.5964   70.7321 N   0  0  0  0  0  0  0  0  0  0  0  0
    5.3031   41.3050   78.3445 O   0  0  0  0  0  0  0  0  0  0  0  0
   12.3326   40.6354   71.6351 C   0  0  0  0  0  0  0  0  0  0  0  0
    7.0703   42.2296   77.3391 O   0  0  0  0  0  0  0  0  0  0  0  0
   11.1044   39.9623   71.6276 N   0  0  0  0  0  0  0  0  0  0  0  0
   10.1558   40.3059   70.6739 C   0  0  0  0  0  0  0  0  0  0  0  0
   10.4456   41.3248   69.7760 C   0  0  0  0  0  0  0  0  0  0  0  0
    9.0673   39.7368   70.6535 O   0  0  0  0  0  0  0  0  0  0  0  0
    8.7967   40.7025   68.2281 C   0  0  0  0  0  0  0  0  0  0  0  0
    9.5546   41.6560   68.7612 N   0  0  0  0  0  0  0  0  0  0  0  0
    7.6125   40.9147   67.9771 O   0  0  0  0  0  0  0  0  0  0  0  0
    9.6048   42.9938   68.1611 C   0  0  2  0  0  0  0  0  0  0  0  0
   11.0546   43.3093   67.7844 C   0  0  0  0  0  0  0  0  0  0  0  0
   11.6893   41.9411   69.8035 C   0  0  0  0  0  0  0  0  0  0  0  0
   11.9956   42.9370   68.8696 N   0  0  0  0  0  0  0  0  0  0  0  0
    9.0731   44.0430   69.1435 C   0  0  0  0  0  0  0  0  0  0  0  0
    7.6495   43.7981   69.4055 N   0  0  0  0  0  0  0  0  0  0  0  0
    6.2631   42.5048   73.0796 C   0  0  0  0  0  0  0  0  0  0  0  0
    6.7360   41.5958   72.1362 C   0  0  0  0  0  0  0  0  0  0  0  0
    7.1829   42.0369   70.8922 C   0  0  0  0  0  0  0  0  0  0  0  0
    7.2039   43.3954   70.5951 C   0  0  0  0  0  0  0  0  0  0  0  0
    6.7404   44.3053   71.5393 C   0  0  0  0  0  0  0  0  0  0  0  0
    6.2599   43.8622   72.7708 C   0  0  0  0  0  0  0  0  0  0  0  0
    6.1450   41.3851   77.4174 C   0  0  0  0  0  0  0  0  0  0  0  0
  1  3  1  0  0  0  0
  2  1  1  6  0  0  0
  2  6  1  0  0  0  0
  2 34  1  0  0  0  0
  3  4  2  0  0  0  0
  3 28  1  0  0  0  0
  5 13  1  0  0  0  0
  6  7  1  0  0  0  0
  7  8  1  0  0  0  0
  8  9  1  0  0  0  0
  8 10  1  0  0  0  0
 11 13  2  0  0  0  0
 11 24  1  0  0  0  0
 12 34  1  0  0  0  0
 13 15  1  0  0  0  0
 14 34  1  0  0  0  0
 15 16  1  0  0  0  0
 16 17  1  0  0  0  0
 16 18  2  0  0  0  0
 17 20  1  0  0  0  0
 17 24  2  0  0  0  0
 19 21  1  0  0  0  0
 19 20  1  0  0  0  0
 20 22  1  0  0  0  0
 22 23  1  0  0  0  0
 22 26  1  1  0  0  0
 23 25  1  0  0  0  0
 24 25  1  0  0  0  0
 26 27  1  0  0  0  0
 27 31  1  0  0  0  0
 28 29  2  0  0  0  0
 28 33  1  0  0  0  0
 29 30  1  0  0  0  0
 30 31  2  0  0  0  0
 31 32  1  0  0  0  0
 32 33  2  0  0  0  0
M  END
>  <CHROM.1>
179.05262689,-63.08022579,142.83197422,-177.87174335,104.94323860,138.13858769
-64.75442688,112.25859174,-86.38690370,37.44244322,8.37359726,41.15652529
72.42350236,2.15617818,-0.65471700,2.27693581

>  <Name>
ligand

>  <RI>
0

>  <Rbt.Current_Directory>
/home/itssahil/PROJECTS/Mol_Feturizer/New_Systems/rnas/3SUH

>  <Rbt.Executable>
rbdock ($Id: //depot/dev/client3/rdock/2013.1/src/exe/rbdock.cxx#4 $)

>  <Rbt.Library>
libRbt.so (2013.1, Build901 2013/11/27)

>  <Rbt.Parameter_File>
/export/apps/rDock/src/rDock_2013.1_src/data/scripts/dock_solv.prm

>  <Rbt.Receptor>
prm/pocket_docking_7.prm

>  <SCORE>
-12.4845

>  <SCORE.INTER>
-7.06479

>  <SCORE.INTER.CONST>
1

>  <SCORE.INTER.POLAR>
0

>  <SCORE.INTER.ROT>
10

>  <SCORE.INTER.SOLV>
16.5834

>  <SCORE.INTER.VDW>
-20.5043

>  <SCORE.INTER.norm>
-0.207788

>  <SCORE.INTRA>
-5.41969

>  <SCORE.INTRA.DIHEDRAL>
-4.80596

>  <SCORE.INTRA.DIHEDRAL.0>
12.2703

>  <SCORE.INTRA.POLAR>
0

>  <SCORE.INTRA.POLAR.0>
0

>  <SCORE.INTRA.REPUL>
0

>  <SCORE.INTRA.REPUL.0>
0

>  <SCORE.INTRA.SOLV>
0.591036

>  <SCORE.INTRA.SOLV.lig_0>
-64.3214

>  <SCORE.INTRA.VDW>
-3.31222

>  <SCORE.INTRA.VDW.0>
-1.67301

>  <SCORE.INTRA.norm>
-0.159403

>  <SCORE.RESTR>
0

>  <SCORE.RESTR.CAVITY>
0

>  <SCORE.RESTR.norm>
0

>  <SCORE.SYSTEM>
0

>  <SCORE.SYSTEM.CONST>
0

>  <SCORE.SYSTEM.DIHEDRAL>
0

>  <SCORE.SYSTEM.SOLV>
0

>  <SCORE.SYSTEM.norm>
0

>  <SCORE.heavy>
34

>  <SCORE.norm>
-0.367191

>  <RMSD>
3.948

$$$$
ligand
 OpenBabel11021811483D
libRbt.so/2013.1/901 2013/11/27
 34 36  0  0  0  0  0  0  0  0999 V2000
    4.5920   39.5451   76.0044 N   0  0  0  0  0  0  0  0  0  0  0  0
    3.9779   38.9131   77.1953 C   0  0  1  0  0  0  0  0  0  0  0  0
    5.7433   39.1388   75.4536 C   0  0  0  0  0  0  0  0  0  0  0  0
    6.4211   38.1972   75.8746 O   0  0  0  0  0  0  0  0  0  0  0  0
   13.5183   45.4242   71.2648 N   0  0  0  0  0  0  0  0  0  0  0  0
    2.6265   39.5811   77.4999 C   0  0  0  0  0  0  0  0  0  0  0  0
    2.7956   41.0672   77.8437 C   0  0  0  0  0  0  0  0  0  0  0  0
    3.0020   41.9112   76.5767 C   0  0  0  0  0  0  0  0  0  0  0  0
    1.9769   42.2383   75.9338 O   0  0  0  0  0  0  0  0  0  0  0  0
    4.1808   42.2132   76.2802 O   0  0  0  0  0  0  0  0  0  0  0  0
   11.3064   45.6433   70.6186 N   0  0  0  0  0  0  0  0  0  0  0  0
    3.5668   36.9770   75.8425 O   0  0  0  0  0  0  0  0  0  0  0  0
   12.4252   44.9039   70.7127 C   0  0  0  0  0  0  0  0  0  0  0  0
    3.8430   36.6850   78.0396 O   0  0  0  0  0  0  0  0  0  0  0  0
   12.4548   43.5875   70.2353 N   0  0  0  0  0  0  0  0  0  0  0  0
   11.3068   43.0535   69.6657 C   0  0  0  0  0  0  0  0  0  0  0  0
   10.1588   43.8332   69.6130 C   0  0  0  0  0  0  0  0  0  0  0  0
   11.3051   41.8979   69.2490 O   0  0  0  0  0  0  0  0  0  0  0  0
    9.1205   42.5483   67.9477 C   0  0  0  0  0  0  0  0  0  0  0  0
    9.0069   43.3654   68.9904 N   0  0  0  0  0  0  0  0  0  0  0  0
    9.7419   42.8977   66.9466 O   0  0  0  0  0  0  0  0  0  0  0  0
    7.7040   43.9299   69.3590 C   0  0  2  0  0  0  0  0  0  0  0  0
    7.8022   45.4572   69.3227 C   0  0  0  0  0  0  0  0  0  0  0  0
   10.1881   45.1434   70.0712 C   0  0  0  0  0  0  0  0  0  0  0  0
    9.0428   45.9416   69.9766 N   0  0  0  0  0  0  0  0  0  0  0  0
    7.2915   43.4594   70.7579 C   0  0  0  0  0  0  0  0  0  0  0  0
    7.3771   41.9957   70.8322 N   0  0  0  0  0  0  0  0  0  0  0  0
    6.1590   39.9146   74.1906 C   0  0  0  0  0  0  0  0  0  0  0  0
    6.3693   41.2904   74.2422 C   0  0  0  0  0  0  0  0  0  0  0  0
    6.7994   41.9823   73.1117 C   0  0  0  0  0  0  0  0  0  0  0  0
    6.9803   41.3133   71.9059 C   0  0  0  0  0  0  0  0  0  0  0  0
    6.7621   39.9408   71.8502 C   0  0  0  0  0  0  0  0  0  0  0  0
    6.3662   39.2418   72.9897 C   0  0  0  0  0  0  0  0  0  0  0  0
    3.7797   37.3950   77.0063 C   0  0  0  0  0  0  0  0  0  0  0  0
  1  3  1  0  0  0  0
  2  1  1  6  0  0  0
  2  6  1  0  0  0  0
  2 34  1  0  0  0  0
  3  4  2  0  0  0  0
  3 28  1  0  0  0  0
  5 13  1  0  0  0  0
  6  7  1  0  0  0  0
  7  8  1  0  0  0  0
  8  9  1  0  0  0  0
  8 10  1  0  0  0  0
 11 13  2  0  0  0  0
 11 24  1  0  0  0  0
 12 34  1  0  0  0  0
 13 15  1  0  0  0  0
 14 34  1  0  0  0  0
 15 16  1  0  0  0  0
 16 17  1  0  0  0  0
 16 18  2  0  0  0  0
 17 20  1  0  0  0  0
 17 24  2  0  0  0  0
 19 21  1  0  0  0  0
 19 20  1  0  0  0  0
 20 22  1  0  0  0  0
 22 23  1  0  0  0  0
 22 26  1  1  0  0  0
 23 25  1  0  0  0  0
 24 25  1  0  0  0  0
 26 27  1  0  0  0  0
 27 31  1  0  0  0  0
 28 29  2  0  0  0  0
 28 33  1  0  0  0  0
 29 30  1  0  0  0  0
 30 31  2  0  0  0  0
 31 32  1  0  0  0  0
 32 33  2  0  0  0  0
M  END
>  <CHROM.1>
-176.70522963,-62.56152800,-30.68275684,78.27954044,81.84679418,-58.16867424
-52.19261831,-174.95746668,-16.73085883,59.54460835,7.18166795,41.75358889
72.77618193,-2.49770421,0.69974146,-0.26120619

>  <Name>
ligand

>  <RI>
0

>  <Rbt.Current_Directory>
/home/itssahil/PROJECTS/Mol_Feturizer/New_Systems/rnas/3SUH

>  <Rbt.Executable>
rbdock ($Id: //depot/dev/client3/rdock/2013.1/src/exe/rbdock.cxx#4 $)

>  <Rbt.Library>
libRbt.so (2013.1, Build901 2013/11/27)

>  <Rbt.Parameter_File>
/export/apps/rDock/src/rDock_2013.1_src/data/scripts/dock_solv.prm

>  <Rbt.Receptor>
prm/pocket_docking_5.prm

>  <SCORE>
-8.74442

>  <SCORE.INTER>
-5.16504

>  <SCORE.INTER.CONST>
1

>  <SCORE.INTER.POLAR>
0

>  <SCORE.INTER.ROT>
10

>  <SCORE.INTER.SOLV>
16.3175

>  <SCORE.INTER.VDW>
-19.1492

>  <SCORE.INTER.norm>
-0.151913

>  <SCORE.INTRA>
-3.57938

>  <SCORE.INTRA.DIHEDRAL>
-4.34623

>  <SCORE.INTRA.DIHEDRAL.0>
12.2703

>  <SCORE.INTRA.POLAR>
0

>  <SCORE.INTRA.POLAR.0>
0

>  <SCORE.INTRA.REPUL>
0

>  <SCORE.INTRA.REPUL.0>
0

>  <SCORE.INTRA.SOLV>
0.218896

>  <SCORE.INTRA.SOLV.lig_0>
-64.3214

>  <SCORE.INTRA.VDW>
-1.51571

>  <SCORE.INTRA.VDW.0>
-1.67301

>  <SCORE.INTRA.norm>
-0.105276

>  <SCORE.RESTR>
0

>  <SCORE.RESTR.CAVITY>
0

>  <SCORE.RESTR.norm>
0

>  <SCORE.SYSTEM>
0

>  <SCORE.SYSTEM.CONST>
0

>  <SCORE.SYSTEM.DIHEDRAL>
0

>  <SCORE.SYSTEM.SOLV>
0

>  <SCORE.SYSTEM.norm>
0

>  <SCORE.heavy>
34

>  <SCORE.norm>
-0.257189

>  <RMSD>
3.961

$$$$
ligand
 OpenBabel11021811483D
libRbt.so/2013.1/901 2013/11/27
 34 36  0  0  0  0  0  0  0  0999 V2000
    5.8734   42.3935   74.1498 N   0  0  0  0  0  0  0  0  0  0  0  0
    5.4137   42.6072   75.5419 C   0  0  1  0  0  0  0  0  0  0  0  0
    6.1472   43.3860   73.2932 C   0  0  0  0  0  0  0  0  0  0  0  0
    6.0466   44.5858   73.5644 O   0  0  0  0  0  0  0  0  0  0  0  0
   12.8196   46.2035   71.3660 N   0  0  0  0  0  0  0  0  0  0  0  0
    3.9343   43.0273   75.5424 C   0  0  0  0  0  0  0  0  0  0  0  0
    3.4464   43.3755   76.9552 C   0  0  0  0  0  0  0  0  0  0  0  0
    1.9608   43.7670   76.9500 C   0  0  0  0  0  0  0  0  0  0  0  0
    1.6889   44.9780   76.7754 O   0  0  0  0  0  0  0  0  0  0  0  0
    1.1292   42.8457   77.1183 O   0  0  0  0  0  0  0  0  0  0  0  0
   12.3035   45.0954   69.4003 N   0  0  0  0  0  0  0  0  0  0  0  0
    6.1227   41.4930   77.5428 O   0  0  0  0  0  0  0  0  0  0  0  0
   12.3608   45.1209   70.7432 C   0  0  0  0  0  0  0  0  0  0  0  0
    5.2134   40.2591   75.9182 O   0  0  0  0  0  0  0  0  0  0  0  0
   11.9418   44.0180   71.4980 N   0  0  0  0  0  0  0  0  0  0  0  0
   11.4603   42.8958   70.8375 C   0  0  0  0  0  0  0  0  0  0  0  0
   11.3843   42.9143   69.4511 C   0  0  0  0  0  0  0  0  0  0  0  0
   11.0774   41.9200   71.4781 O   0  0  0  0  0  0  0  0  0  0  0  0
   11.2556   40.5829   69.2265 C   0  0  0  0  0  0  0  0  0  0  0  0
   10.9738   41.7895   68.7442 N   0  0  0  0  0  0  0  0  0  0  0  0
   12.4227   40.2253   69.3691 O   0  0  0  0  0  0  0  0  0  0  0  0
   10.4205   41.9442   67.3943 C   0  0  2  0  0  0  0  0  0  0  0  0
   11.3627   42.8305   66.5757 C   0  0  0  0  0  0  0  0  0  0  0  0
   11.8411   44.0194   68.7457 C   0  0  0  0  0  0  0  0  0  0  0  0
   11.8048   44.0185   67.3469 N   0  0  0  0  0  0  0  0  0  0  0  0
    9.0237   42.5717   67.4555 C   0  0  0  0  0  0  0  0  0  0  0  0
    8.1317   41.7158   68.2473 N   0  0  0  0  0  0  0  0  0  0  0  0
    6.6592   42.9228   71.9173 C   0  0  0  0  0  0  0  0  0  0  0  0
    6.7870   43.8293   70.8677 C   0  0  0  0  0  0  0  0  0  0  0  0
    7.3029   43.4202   69.6396 C   0  0  0  0  0  0  0  0  0  0  0  0
    7.6545   42.0903   69.4339 C   0  0  0  0  0  0  0  0  0  0  0  0
    7.5193   41.1818   70.4782 C   0  0  0  0  0  0  0  0  0  0  0  0
    7.0365   41.5977   71.7182 C   0  0  0  0  0  0  0  0  0  0  0  0
    5.5994   41.3468   76.4117 C   0  0  0  0  0  0  0  0  0  0  0  0
  1  3  1  0  0  0  0
  2  1  1  6  0  0  0
  2  6  1  0  0  0  0
  2 34  1  0  0  0  0
  3  4  2  0  0  0  0
  3 28  1  0  0  0  0
  5 13  1  0  0  0  0
  6  7  1  0  0  0  0
  7  8  1  0  0  0  0
  8  9  1  0  0  0  0
  8 10  1  0  0  0  0
 11 13  2  0  0  0  0
 11 24  1  0  0  0  0
 12 34  1  0  0  0  0
 13 15  1  0  0  0  0
 14 34  1  0  0  0  0
 15 16  1  0  0  0  0
 16 17  1  0  0  0  0
 16 18  2  0  0  0  0
 17 20  1  0  0  0  0
 17 24  2  0  0  0  0
 19 21  1  0  0  0  0
 19 20  1  0  0  0  0
 20 22  1  0  0  0  0
 22 23  1  0  0  0  0
 22 26  1  1  0  0  0
 23 25  1  0  0  0  0
 24 25  1  0  0  0  0
 26 27  1  0  0  0  0
 27 31  1  0  0  0  0
 28 29  2  0  0  0  0
 28 33  1  0  0  0  0
 29 30  1  0  0  0  0
 30 31  2  0  0  0  0
 31 32  1  0  0  0  0
 32 33  2  0  0  0  0
M  END
>  <CHROM.1>
75.61911840,-175.16443556,133.04395316,-178.87693885,-89.63008641,-62.19104507
-59.58821416,111.91891210,37.26928476,170.12908674,8.07333821,42.83264956
71.91153721,2.48507404,0.42614214,1.08172841

>  <Name>
ligand

>  <RI>
0

>  <Rbt.Current_Directory>
/home/itssahil/PROJECTS/Mol_Feturizer/New_Systems/rnas/3SUH

>  <Rbt.Executable>
rbdock ($Id: //depot/dev/client3/rdock/2013.1/src/exe/rbdock.cxx#4 $)

>  <Rbt.Library>
libRbt.so (2013.1, Build901 2013/11/27)

>  <Rbt.Parameter_File>
/export/apps/rDock/src/rDock_2013.1_src/data/scripts/dock_solv.prm

>  <Rbt.Receptor>
prm/pocket_docking_6.prm

>  <SCORE>
-17.5185

>  <SCORE.INTER>
-13.1347

>  <SCORE.INTER.CONST>
1

>  <SCORE.INTER.POLAR>
0

>  <SCORE.INTER.ROT>
10

>  <SCORE.INTER.SOLV>
18.9948

>  <SCORE.INTER.VDW>
-25.3548

>  <SCORE.INTER.norm>
-0.386316

>  <SCORE.INTRA>
-4.38373

>  <SCORE.INTRA.DIHEDRAL>
-4.57263

>  <SCORE.INTRA.DIHEDRAL.0>
12.2703

>  <SCORE.INTRA.POLAR>
0

>  <SCORE.INTRA.POLAR.0>
0

>  <SCORE.INTRA.REPUL>
0

>  <SCORE.INTRA.REPUL.0>
0

>  <SCORE.INTRA.SOLV>
-0.569745

>  <SCORE.INTRA.SOLV.lig_0>
-64.3214

>  <SCORE.INTRA.VDW>
-1.81254

>  <SCORE.INTRA.VDW.0>
-1.67301

>  <SCORE.INTRA.norm>
-0.128933

>  <SCORE.RESTR>
0

>  <SCORE.RESTR.CAVITY>
0

>  <SCORE.RESTR.norm>
0

>  <SCORE.SYSTEM>
0

>  <SCORE.SYSTEM.CONST>
0

>  <SCORE.SYSTEM.DIHEDRAL>
0

>  <SCORE.SYSTEM.SOLV>
0

>  <SCORE.SYSTEM.norm>
0

>  <SCORE.heavy>
34

>  <SCORE.norm>
-0.515249

>  <RMSD>
3.977

$$$$
ligand
 OpenBabel11021811483D
libRbt.so/2013.1/901 2013/11/27
 34 36  0  0  0  0  0  0  0  0999 V2000
    5.8698   41.7428   75.4604 N   0  0  0  0  0  0  0  0  0  0  0  0
    5.4843   41.5698   76.8804 C   0  0  1  0  0  0  0  0  0  0  0  0
    5.7886   42.9058   74.8010 C   0  0  0  0  0  0  0  0  0  0  0  0
    5.3836   43.9601   75.2986 O   0  0  0  0  0  0  0  0  0  0  0  0
   11.4463   41.3994   73.9313 N   0  0  0  0  0  0  0  0  0  0  0  0
    3.9906   41.2156   76.9744 C   0  0  0  0  0  0  0  0  0  0  0  0
    3.5100   41.1763   78.4314 C   0  0  0  0  0  0  0  0  0  0  0  0
    2.1078   40.5577   78.5380 C   0  0  0  0  0  0  0  0  0  0  0  0
    1.7791   39.7298   77.6562 O   0  0  0  0  0  0  0  0  0  0  0  0
    1.3960   40.9245   79.5011 O   0  0  0  0  0  0  0  0  0  0  0  0
   11.2333   42.6970   72.0262 N   0  0  0  0  0  0  0  0  0  0  0  0
    6.6675   40.6849   78.7684 O   0  0  0  0  0  0  0  0  0  0  0  0
   11.0602   41.5264   72.6643 C   0  0  0  0  0  0  0  0  0  0  0  0
    6.6082   39.4646   76.8986 O   0  0  0  0  0  0  0  0  0  0  0  0
   10.4761   40.4346   72.0098 N   0  0  0  0  0  0  0  0  0  0  0  0
   10.0726   40.5803   70.6894 C   0  0  0  0  0  0  0  0  0  0  0  0
   10.2365   41.8121   70.0697 C   0  0  0  0  0  0  0  0  0  0  0  0
    9.5485   39.6401   70.0973 O   0  0  0  0  0  0  0  0  0  0  0  0
   10.0593   40.9647   67.8897 C   0  0  0  0  0  0  0  0  0  0  0  0
    9.9108   41.9851   68.7290 N   0  0  0  0  0  0  0  0  0  0  0  0
   10.5422   41.1407   66.7733 O   0  0  0  0  0  0  0  0  0  0  0  0
    9.6038   43.3283   68.2255 C   0  0  2  0  0  0  0  0  0  0  0  0
   10.7056   44.2880   68.6821 C   0  0  0  0  0  0  0  0  0  0  0  0
   10.8494   42.8554   70.7505 C   0  0  0  0  0  0  0  0  0  0  0  0
   11.0538   44.0823   70.1097 N   0  0  0  0  0  0  0  0  0  0  0  0
    8.2422   43.7991   68.7481 C   0  0  0  0  0  0  0  0  0  0  0  0
    7.5566   42.6851   69.4146 N   0  0  0  0  0  0  0  0  0  0  0  0
    6.2943   42.8558   73.3479 C   0  0  0  0  0  0  0  0  0  0  0  0
    6.7242   41.6547   72.7890 C   0  0  0  0  0  0  0  0  0  0  0  0
    7.1291   41.6003   71.4568 C   0  0  0  0  0  0  0  0  0  0  0  0
    7.1513   42.7552   70.6821 C   0  0  0  0  0  0  0  0  0  0  0  0
    6.7308   43.9573   71.2412 C   0  0  0  0  0  0  0  0  0  0  0  0
    6.2917   44.0059   72.5636 C   0  0  0  0  0  0  0  0  0  0  0  0
    6.3246   40.4807   77.5788 C   0  0  0  0  0  0  0  0  0  0  0  0
  1  3  1  0  0  0  0
  2  1  1  6  0  0  0
  2  6  1  0  0  0  0
  2 34  1  0  0  0  0
  3  4  2  0  0  0  0
  3 28  1  0  0  0  0
  5 13  1  0  0  0  0
  6  7  1  0  0  0  0
  7  8  1  0  0  0  0
  8  9  1  0  0  0  0
  8 10  1  0  0  0  0
 11 13  2  0  0  0  0
 11 24  1  0  0  0  0
 12 34  1  0  0  0  0
 13 15  1  0  0  0  0
 14 34  1  0  0  0  0
 15 16  1  0  0  0  0
 16 17  1  0  0  0  0
 16 18  2  0  0  0  0
 17 20  1  0  0  0  0
 17 24  2  0  0  0  0
 19 21  1  0  0  0  0
 19 20  1  0  0  0  0
 20 22  1  0  0  0  0
 22 23  1  0  0  0  0
 22 26  1  1  0  0  0
 23 25  1  0  0  0  0
 24 25  1  0  0  0  0
 26 27  1  0  0  0  0
 27 31  1  0  0  0  0
 28 29  2  0  0  0  0
 28 33  1  0  0  0  0
 29 30  1  0  0  0  0
 30 31  2  0  0  0  0
 31 32  1  0  0  0  0
 32 33  2  0  0  0  0
M  END
>  <CHROM.1>
88.72517457,-173.81715992,141.72260515,-168.77423565,27.72881524,-137.45253161
-9.16011671,122.76828242,-148.52985268,3.26629326,7.54307332,41.84778764
72.99960554,2.23755810,-0.32649695,1.97302019

>  <Name>
ligand

>  <RI>
0

>  <Rbt.Current_Directory>
/home/itssahil/PROJECTS/Mol_Feturizer/New_Systems/rnas/3SUH

>  <Rbt.Executable>
rbdock ($Id: //depot/dev/client3/rdock/2013.1/src/exe/rbdock.cxx#4 $)

>  <Rbt.Library>
libRbt.so (2013.1, Build901 2013/11/27)

>  <Rbt.Parameter_File>
/export/apps/rDock/src/rDock_2013.1_src/data/scripts/dock_solv.prm

>  <Rbt.Receptor>
prm/pocket_docking_2.prm

>  <SCORE>
0.302811

>  <SCORE.INTER>
-1.41006

>  <SCORE.INTER.CONST>
1

>  <SCORE.INTER.POLAR>
0

>  <SCORE.INTER.ROT>
10

>  <SCORE.INTER.SOLV>
11.5925

>  <SCORE.INTER.VDW>
-15.0709

>  <SCORE.INTER.norm>
-0.0414723

>  <SCORE.INTRA>
0.223272

>  <SCORE.INTRA.DIHEDRAL>
1.77604

>  <SCORE.INTRA.DIHEDRAL.0>
12.2703

>  <SCORE.INTRA.POLAR>
0

>  <SCORE.INTRA.POLAR.0>
0

>  <SCORE.INTRA.REPUL>
0

>  <SCORE.INTRA.REPUL.0>
0

>  <SCORE.INTRA.SOLV>
0.957574

>  <SCORE.INTRA.SOLV.lig_0>
-64.3214

>  <SCORE.INTRA.VDW>
-1.14353

>  <SCORE.INTRA.VDW.0>
-1.67301

>  <SCORE.INTRA.norm>
0.00656682

>  <SCORE.RESTR>
1.4896

>  <SCORE.RESTR.CAVITY>
1.4896

>  <SCORE.RESTR.norm>
0.0438117

>  <SCORE.SYSTEM>
0

>  <SCORE.SYSTEM.CONST>
0

>  <SCORE.SYSTEM.DIHEDRAL>
0

>  <SCORE.SYSTEM.SOLV>
0

>  <SCORE.SYSTEM.norm>
0

>  <SCORE.heavy>
34

>  <SCORE.norm>
0.00890619

>  <RMSD>
3.988

$$$$
ligand
 OpenBabel11021811483D
libRbt.so/2013.1/901 2013/11/27
 34 36  0  0  0  0  0  0  0  0999 V2000
    5.7777   42.5040   74.0491 N   0  0  0  0  0  0  0  0  0  0  0  0
    5.2813   42.6627   75.4359 C   0  0  1  0  0  0  0  0  0  0  0  0
    6.9345   41.9071   73.7338 C   0  0  0  0  0  0  0  0  0  0  0  0
    7.7156   41.4252   74.5590 O   0  0  0  0  0  0  0  0  0  0  0  0
   12.9717   46.3774   71.0466 N   0  0  0  0  0  0  0  0  0  0  0  0
    3.8210   43.1448   75.4136 C   0  0  0  0  0  0  0  0  0  0  0  0
    3.2977   43.4272   76.8285 C   0  0  0  0  0  0  0  0  0  0  0  0
    1.8193   43.8439   76.8019 C   0  0  0  0  0  0  0  0  0  0  0  0
    1.5167   44.8346   76.0962 O   0  0  0  0  0  0  0  0  0  0  0  0
    1.0233   43.1606   77.4862 O   0  0  0  0  0  0  0  0  0  0  0  0
   12.3466   45.1832   69.1647 N   0  0  0  0  0  0  0  0  0  0  0  0
    5.1616   40.2764   75.6331 O   0  0  0  0  0  0  0  0  0  0  0  0
   12.4874   45.2656   70.4991 C   0  0  0  0  0  0  0  0  0  0  0  0
    5.6877   41.4568   77.4548 O   0  0  0  0  0  0  0  0  0  0  0  0
   12.1291   44.1917   71.3238 N   0  0  0  0  0  0  0  0  0  0  0  0
   11.6203   43.0384   70.7418 C   0  0  0  0  0  0  0  0  0  0  0  0
   11.4577   42.9981   69.3633 C   0  0  0  0  0  0  0  0  0  0  0  0
   11.2894   42.0870   71.4449 O   0  0  0  0  0  0  0  0  0  0  0  0
   11.3420   40.6583   69.2438 C   0  0  0  0  0  0  0  0  0  0  0  0
   11.0168   41.8410   68.7307 N   0  0  0  0  0  0  0  0  0  0  0  0
   10.4820   39.9394   69.7477 O   0  0  0  0  0  0  0  0  0  0  0  0
   10.3786   41.9339   67.4131 C   0  0  2  0  0  0  0  0  0  0  0  0
   11.2575   42.7935   66.5009 C   0  0  0  0  0  0  0  0  0  0  0  0
   11.8567   44.0766   68.5855 C   0  0  0  0  0  0  0  0  0  0  0  0
   11.7332   44.0166   67.1930 N   0  0  0  0  0  0  0  0  0  0  0  0
    8.9812   42.5510   67.5359 C   0  0  0  0  0  0  0  0  0  0  0  0
    8.0745   41.5959   68.1848 N   0  0  0  0  0  0  0  0  0  0  0  0
    7.2169   41.8129   72.2234 C   0  0  0  0  0  0  0  0  0  0  0  0
    7.1497   42.9477   71.4187 C   0  0  0  0  0  0  0  0  0  0  0  0
    7.4597   42.8713   70.0624 C   0  0  0  0  0  0  0  0  0  0  0  0
    7.7965   41.6508   69.4869 C   0  0  0  0  0  0  0  0  0  0  0  0
    7.8553   40.5148   70.2872 C   0  0  0  0  0  0  0  0  0  0  0  0
    7.5799   40.5969   71.6514 C   0  0  0  0  0  0  0  0  0  0  0  0
    5.3863   41.3509   76.2409 C   0  0  0  0  0  0  0  0  0  0  0  0
  1  3  1  0  0  0  0
  2  1  1  6  0  0  0
  2  6  1  0  0  0  0
  2 34  1  0  0  0  0
  3  4  2  0  0  0  0
  3 28  1  0  0  0  0
  5 13  1  0  0  0  0
  6  7  1  0  0  0  0
  7  8  1  0  0  0  0
  8  9  1  0  0  0  0
  8 10  1  0  0  0  0
 11 13  2  0  0  0  0
 11 24  1  0  0  0  0
 12 34  1  0  0  0  0
 13 15  1  0  0  0  0
 14 34  1  0  0  0  0
 15 16  1  0  0  0  0
 16 17  1  0  0  0  0
 16 18  2  0  0  0  0
 17 20  1  0  0  0  0
 17 24  2  0  0  0  0
 19 21  1  0  0  0  0
 19 20  1  0  0  0  0
 20 22  1  0  0  0  0
 22 23  1  0  0  0  0
 22 26  1  1  0  0  0
 23 25  1  0  0  0  0
 24 25  1  0  0  0  0
 26 27  1  0  0  0  0
 27 31  1  0  0  0  0
 28 29  2  0  0  0  0
 28 33  1  0  0  0  0
 29 30  1  0  0  0  0
 30 31  2  0  0  0  0
 31 32  1  0  0  0  0
 32 33  2  0  0  0  0
M  END
>  <CHROM.1>
-169.36020703,-175.61164547,-36.72326131,-177.30402488,-56.59789262,111.43146346
-70.98127662,97.60886702,47.17695771,52.14546608,8.11168758,42.59987117,71.90842707
2.62039051,0.58992434,0.84339569

>  <Name>
ligand

>  <RI>
0

>  <Rbt.Current_Directory>
/home/itssahil/PROJECTS/Mol_Feturizer/New_Systems/rnas/3SUH

>  <Rbt.Executable>
rbdock ($Id: //depot/dev/client3/rdock/2013.1/src/exe/rbdock.cxx#4 $)

>  <Rbt.Library>
libRbt.so (2013.1, Build901 2013/11/27)

>  <Rbt.Parameter_File>
/export/apps/rDock/src/rDock_2013.1_src/data/scripts/dock_solv.prm

>  <Rbt.Receptor>
prm/pocket_docking_4.prm

>  <SCORE>
-16.3082

>  <SCORE.INTER>
-11.7907

>  <SCORE.INTER.CONST>
1

>  <SCORE.INTER.POLAR>
0

>  <SCORE.INTER.ROT>
10

>  <SCORE.INTER.SOLV>
19.4743

>  <SCORE.INTER.VDW>
-24.6186

>  <SCORE.INTER.norm>
-0.346785

>  <SCORE.INTRA>
-4.51747

>  <SCORE.INTRA.DIHEDRAL>
-4.27273

>  <SCORE.INTRA.DIHEDRAL.0>
12.2703

>  <SCORE.INTRA.POLAR>
0

>  <SCORE.INTRA.POLAR.0>
0

>  <SCORE.INTRA.REPUL>
0

>  <SCORE.INTRA.REPUL.0>
0

>  <SCORE.INTRA.SOLV>
0.286203

>  <SCORE.INTRA.SOLV.lig_0>
-64.3214

>  <SCORE.INTRA.VDW>
-2.52421

>  <SCORE.INTRA.VDW.0>
-1.67301

>  <SCORE.INTRA.norm>
-0.132867

>  <SCORE.RESTR>
0

>  <SCORE.RESTR.CAVITY>
0

>  <SCORE.RESTR.norm>
0

>  <SCORE.SYSTEM>
0

>  <SCORE.SYSTEM.CONST>
0

>  <SCORE.SYSTEM.DIHEDRAL>
0

>  <SCORE.SYSTEM.SOLV>
0

>  <SCORE.SYSTEM.norm>
0

>  <SCORE.heavy>
34

>  <SCORE.norm>
-0.479652

>  <RMSD>
3.995

$$$$
ligand
 OpenBabel11021811483D
libRbt.so/2013.1/901 2013/11/27
 34 36  0  0  0  0  0  0  0  0999 V2000
    5.6312   41.2811   75.7573 N   0  0  0  0  0  0  0  0  0  0  0  0
    5.2614   40.9031   77.1412 C   0  0  1  0  0  0  0  0  0  0  0  0
    6.4489   40.5598   74.9794 C   0  0  0  0  0  0  0  0  0  0  0  0
    6.9860   39.5041   75.3261 O   0  0  0  0  0  0  0  0  0  0  0  0
   11.4425   39.9131   72.7278 N   0  0  0  0  0  0  0  0  0  0  0  0
    4.2680   41.9286   77.7127 C   0  0  0  0  0  0  0  0  0  0  0  0
    2.9390   41.9162   76.9452 C   0  0  0  0  0  0  0  0  0  0  0  0
    2.0831   40.7013   77.3346 C   0  0  0  0  0  0  0  0  0  0  0  0
    1.8800   40.5128   78.5570 O   0  0  0  0  0  0  0  0  0  0  0  0
    1.6483   39.9890   76.4006 O   0  0  0  0  0  0  0  0  0  0  0  0
   10.8590   41.9814   71.8674 N   0  0  0  0  0  0  0  0  0  0  0  0
    4.5822   38.9386   78.3359 O   0  0  0  0  0  0  0  0  0  0  0  0
   10.9683   40.6489   71.7257 C   0  0  0  0  0  0  0  0  0  0  0  0
    4.2650   38.9871   76.1255 O   0  0  0  0  0  0  0  0  0  0  0  0
   10.5877   40.0230   70.5320 N   0  0  0  0  0  0  0  0  0  0  0  0
   10.0897   40.8003   69.4950 C   0  0  0  0  0  0  0  0  0  0  0  0
    9.9597   42.1697   69.6856 C   0  0  0  0  0  0  0  0  0  0  0  0
    9.7397   40.2731   68.4421 O   0  0  0  0  0  0  0  0  0  0  0  0
    9.8406   42.6795   67.3990 C   0  0  0  0  0  0  0  0  0  0  0  0
    9.5309   42.9960   68.6527 N   0  0  0  0  0  0  0  0  0  0  0  0
   10.9707   42.8892   66.9640 O   0  0  0  0  0  0  0  0  0  0  0  0
    8.9243   44.2940   68.9678 C   0  0  2  0  0  0  0  0  0  0  0  0
    9.8269   45.0300   69.9612 C   0  0  0  0  0  0  0  0  0  0  0  0
   10.3800   42.7477   70.8758 C   0  0  0  0  0  0  0  0  0  0  0  0
   10.2893   44.1332   71.0491 N   0  0  0  0  0  0  0  0  0  0  0  0
    7.5261   44.1023   69.5650 C   0  0  0  0  0  0  0  0  0  0  0  0
    7.2717   42.6723   69.7786 N   0  0  0  0  0  0  0  0  0  0  0  0
    6.6460   41.1228   73.5603 C   0  0  0  0  0  0  0  0  0  0  0  0
    6.4121   42.4698   73.2945 C   0  0  0  0  0  0  0  0  0  0  0  0
    6.6444   42.9897   72.0227 C   0  0  0  0  0  0  0  0  0  0  0  0
    7.0700   42.1589   70.9917 C   0  0  0  0  0  0  0  0  0  0  0  0
    7.2956   40.8116   71.2532 C   0  0  0  0  0  0  0  0  0  0  0  0
    7.0976   40.2979   72.5340 C   0  0  0  0  0  0  0  0  0  0  0  0
    4.6497   39.4885   77.2100 C   0  0  0  0  0  0  0  0  0  0  0  0
  1  3  1  0  0  0  0
  2  1  1  6  0  0  0
  2  6  1  0  0  0  0
  2 34  1  0  0  0  0
  3  4  2  0  0  0  0
  3 28  1  0  0  0  0
  5 13  1  0  0  0  0
  6  7  1  0  0  0  0
  7  8  1  0  0  0  0
  8  9  1  0  0  0  0
  8 10  1  0  0  0  0
 11 13  2  0  0  0  0
 11 24  1  0  0  0  0
 12 34  1  0  0  0  0
 13 15  1  0  0  0  0
 14 34  1  0  0  0  0
 15 16  1  0  0  0  0
 16 17  1  0  0  0  0
 16 18  2  0  0  0  0
 17 20  1  0  0  0  0
 17 24  2  0  0  0  0
 19 21  1  0  0  0  0
 19 20  1  0  0  0  0
 20 22  1  0  0  0  0
 22 23  1  0  0  0  0
 22 26  1  1  0  0  0
 23 25  1  0  0  0  0
 24 25  1  0  0  0  0
 26 27  1  0  0  0  0
 27 31  1  0  0  0  0
 28 29  2  0  0  0  0
 28 33  1  0  0  0  0
 29 30  1  0  0  0  0
 30 31  2  0  0  0  0
 31 32  1  0  0  0  0
 32 33  2  0  0  0  0
M  END
>  <CHROM.1>
-177.85823098,64.73663054,163.99521730,76.21212765,51.92491898,-77.22515035
6.15118042,116.98770597,21.95917789,22.32892024,7.30461176,41.49376094,72.78900771
2.34608772,-0.51316540,2.28570750

>  <Name>
ligand

>  <RI>
0

>  <Rbt.Current_Directory>
/home/itssahil/PROJECTS/Mol_Feturizer/New_Systems/rnas/3SUH

>  <Rbt.Executable>
rbdock ($Id: //depot/dev/client3/rdock/2013.1/src/exe/rbdock.cxx#4 $)

>  <Rbt.Library>
libRbt.so (2013.1, Build901 2013/11/27)

>  <Rbt.Parameter_File>
/export/apps/rDock/src/rDock_2013.1_src/data/scripts/dock_solv.prm

>  <Rbt.Receptor>
prm/pocket_docking_3.prm

>  <SCORE>
-5.81215

>  <SCORE.INTER>
-4.98924

>  <SCORE.INTER.CONST>
1

>  <SCORE.INTER.POLAR>
0

>  <SCORE.INTER.ROT>
10

>  <SCORE.INTER.SOLV>
11.4718

>  <SCORE.INTER.VDW>
-17.4168

>  <SCORE.INTER.norm>
-0.146742

>  <SCORE.INTRA>
-0.833316

>  <SCORE.INTRA.DIHEDRAL>
1.28425

>  <SCORE.INTRA.DIHEDRAL.0>
12.2703

>  <SCORE.INTRA.POLAR>
0

>  <SCORE.INTRA.POLAR.0>
0

>  <SCORE.INTRA.REPUL>
0

>  <SCORE.INTRA.REPUL.0>
0

>  <SCORE.INTRA.SOLV>
1.89854

>  <SCORE.INTRA.SOLV.lig_0>
-64.3214

>  <SCORE.INTRA.VDW>
-2.42471

>  <SCORE.INTRA.VDW.0>
-1.67301

>  <SCORE.INTRA.norm>
-0.0245093

>  <SCORE.RESTR>
0.010406

>  <SCORE.RESTR.CAVITY>
0.010406

>  <SCORE.RESTR.norm>
0.00030606

>  <SCORE.SYSTEM>
0

>  <SCORE.SYSTEM.CONST>
0

>  <SCORE.SYSTEM.DIHEDRAL>
0

>  <SCORE.SYSTEM.SOLV>
0

>  <SCORE.SYSTEM.norm>
0

>  <SCORE.heavy>
34

>  <SCORE.norm>
-0.170945

>  <RMSD>
3.996

$$$$
ligand
 OpenBabel11021811483D
libRbt.so/2013.1/901 2013/11/27
 34 36  0  0  0  0  0  0  0  0999 V2000
    5.3498   40.9473   75.2470 N   0  0  0  0  0  0  0  0  0  0  0  0
    4.8254   40.2981   76.4711 C   0  0  1  0  0  0  0  0  0  0  0  0
    6.2052   40.3615   74.3990 C   0  0  0  0  0  0  0  0  0  0  0  0
    6.6530   39.2202   74.5412 O   0  0  0  0  0  0  0  0  0  0  0  0
   12.6781   39.9170   72.4568 N   0  0  0  0  0  0  0  0  0  0  0  0
    4.2760   38.9038   76.1257 C   0  0  0  0  0  0  0  0  0  0  0  0
    3.5641   38.2640   77.3254 C   0  0  0  0  0  0  0  0  0  0  0  0
    2.3818   39.1255   77.7949 C   0  0  0  0  0  0  0  0  0  0  0  0
    2.5658   39.8501   78.8009 O   0  0  0  0  0  0  0  0  0  0  0  0
    1.3202   39.0423   77.1354 O   0  0  0  0  0  0  0  0  0  0  0  0
   12.2137   41.9189   71.3915 N   0  0  0  0  0  0  0  0  0  0  0  0
    5.7878   40.9131   78.5790 O   0  0  0  0  0  0  0  0  0  0  0  0
   11.9943   40.6013   71.5433 C   0  0  0  0  0  0  0  0  0  0  0  0
    6.8244   39.3502   77.3659 O   0  0  0  0  0  0  0  0  0  0  0  0
   11.0510   39.9371   70.7491 N   0  0  0  0  0  0  0  0  0  0  0  0
   10.3399   40.6623   69.8025 C   0  0  0  0  0  0  0  0  0  0  0  0
   10.5677   42.0278   69.6934 C   0  0  0  0  0  0  0  0  0  0  0  0
    9.5000   40.1041   69.1011 O   0  0  0  0  0  0  0  0  0  0  0  0
    9.6401   42.2146   67.5470 C   0  0  0  0  0  0  0  0  0  0  0  0
    9.9297   42.7814   68.7144 N   0  0  0  0  0  0  0  0  0  0  0  0
   10.5040   42.0934   66.6814 O   0  0  0  0  0  0  0  0  0  0  0  0
    9.7676   44.2270   68.9039 C   0  0  2  0  0  0  0  0  0  0  0  0
   11.1185   44.8246   69.3056 C   0  0  0  0  0  0  0  0  0  0  0  0
   11.5357   42.6351   70.4819 C   0  0  0  0  0  0  0  0  0  0  0  0
   11.7949   44.0027   70.3393 N   0  0  0  0  0  0  0  0  0  0  0  0
    8.7201   44.5124   69.9856 C   0  0  0  0  0  0  0  0  0  0  0  0
    7.6454   43.5153   69.9082 N   0  0  0  0  0  0  0  0  0  0  0  0
    6.5706   41.2106   73.1680 C   0  0  0  0  0  0  0  0  0  0  0  0
    6.4109   42.5940   73.1897 C   0  0  0  0  0  0  0  0  0  0  0  0
    6.7941   43.3666   72.0952 C   0  0  0  0  0  0  0  0  0  0  0  0
    7.2991   42.7601   70.9501 C   0  0  0  0  0  0  0  0  0  0  0  0
    7.4509   41.3778   70.9233 C   0  0  0  0  0  0  0  0  0  0  0  0
    7.1010   40.6072   72.0312 C   0  0  0  0  0  0  0  0  0  0  0  0
    5.9030   40.1782   77.5685 C   0  0  0  0  0  0  0  0  0  0  0  0
  1  3  1  0  0  0  0
  2  1  1  6  0  0  0
  2  6  1  0  0  0  0
  2 34  1  0  0  0  0
  3  4  2  0  0  0  0
  3 28  1  0  0  0  0
  5 13  1  0  0  0  0
  6  7  1  0  0  0  0
  7  8  1  0  0  0  0
  8  9  1  0  0  0  0
  8 10  1  0  0  0  0
 11 13  2  0  0  0  0
 11 24  1  0  0  0  0
 12 34  1  0  0  0  0
 13 15  1  0  0  0  0
 14 34  1  0  0  0  0
 15 16  1  0  0  0  0
 16 17  1  0  0  0  0
 16 18  2  0  0  0  0
 17 20  1  0  0  0  0
 17 24  2  0  0  0  0
 19 21  1  0  0  0  0
 19 20  1  0  0  0  0
 20 22  1  0  0  0  0
 22 23  1  0  0  0  0
 22 26  1  1  0  0  0
 23 25  1  0  0  0  0
 24 25  1  0  0  0  0
 26 27  1  0  0  0  0
 27 31  1  0  0  0  0
 28 29  2  0  0  0  0
 28 33  1  0  0  0  0
 29 30  1  0  0  0  0
 30 31  2  0  0  0  0
 31 32  1  0  0  0  0
 32 33  2  0  0  0  0
M  END
>  <CHROM.1>
-50.29363345,-172.87954444,109.01287596,59.84770481,-100.63372498,-80.26838961
-36.04696176,123.91150800,62.86211422,21.34567072,7.78923234,41.26101946
72.71861294,2.25721005,-0.24817685,2.12139391

>  <Name>
ligand

>  <RI>
0

>  <Rbt.Current_Directory>
/home/itssahil/PROJECTS/Mol_Feturizer/New_Systems/rnas/3SUH

>  <Rbt.Executable>
rbdock ($Id: //depot/dev/client3/rdock/2013.1/src/exe/rbdock.cxx#4 $)

>  <Rbt.Library>
libRbt.so (2013.1, Build901 2013/11/27)

>  <Rbt.Parameter_File>
/export/apps/rDock/src/rDock_2013.1_src/data/scripts/dock_solv.prm

>  <Rbt.Receptor>
prm/pocket_docking_3.prm

>  <SCORE>
-8.24324

>  <SCORE.INTER>
-4.90716

>  <SCORE.INTER.CONST>
1

>  <SCORE.INTER.POLAR>
0

>  <SCORE.INTER.ROT>
10

>  <SCORE.INTER.SOLV>
12.0472

>  <SCORE.INTER.VDW>
-17.5538

>  <SCORE.INTER.norm>
-0.144328

>  <SCORE.INTRA>
-3.33715

>  <SCORE.INTRA.DIHEDRAL>
-2.94091

>  <SCORE.INTRA.DIHEDRAL.0>
12.2703

>  <SCORE.INTRA.POLAR>
0

>  <SCORE.INTRA.POLAR.0>
0

>  <SCORE.INTRA.REPUL>
0

>  <SCORE.INTRA.REPUL.0>
0

>  <SCORE.INTRA.SOLV>
0.713168

>  <SCORE.INTRA.SOLV.lig_0>
-64.3214

>  <SCORE.INTRA.VDW>
-2.22328

>  <SCORE.INTRA.VDW.0>
-1.67301

>  <SCORE.INTRA.norm>
-0.0981516

>  <SCORE.RESTR>
0.00107816

>  <SCORE.RESTR.CAVITY>
0.00107816

>  <SCORE.RESTR.norm>
3.17106e-05

>  <SCORE.SYSTEM>
0

>  <SCORE.SYSTEM.CONST>
0

>  <SCORE.SYSTEM.DIHEDRAL>
0

>  <SCORE.SYSTEM.SOLV>
0

>  <SCORE.SYSTEM.norm>
0

>  <SCORE.heavy>
34

>  <SCORE.norm>
-0.242448

>  <RMSD>
3.996

$$$$
ligand
 OpenBabel11021811483D
libRbt.so/2013.1/901 2013/11/27
 34 36  0  0  0  0  0  0  0  0999 V2000
    5.6532   43.1986   76.3005 N   0  0  0  0  0  0  0  0  0  0  0  0
    5.1952   43.7423   77.6003 C   0  0  1  0  0  0  0  0  0  0  0  0
    5.3411   41.9761   75.8509 C   0  0  0  0  0  0  0  0  0  0  0  0
    4.6413   41.1669   76.4662 O   0  0  0  0  0  0  0  0  0  0  0  0
    7.3723   46.3651   70.3495 N   0  0  0  0  0  0  0  0  0  0  0  0
    3.6580   43.7632   77.6427 C   0  0  0  0  0  0  0  0  0  0  0  0
    3.0748   44.6642   76.5458 C   0  0  0  0  0  0  0  0  0  0  0  0
    3.1383   43.9799   75.1717 C   0  0  0  0  0  0  0  0  0  0  0  0
    3.9398   44.4542   74.3329 O   0  0  0  0  0  0  0  0  0  0  0  0
    2.3852   42.9955   74.9912 O   0  0  0  0  0  0  0  0  0  0  0  0
    7.6694   44.2681   69.4153 N   0  0  0  0  0  0  0  0  0  0  0  0
    5.3242   41.7519   78.9305 O   0  0  0  0  0  0  0  0  0  0  0  0
    8.0725   45.2377   70.2548 C   0  0  0  0  0  0  0  0  0  0  0  0
    6.5626   43.5073   79.5420 O   0  0  0  0  0  0  0  0  0  0  0  0
    9.2247   45.0752   71.0344 N   0  0  0  0  0  0  0  0  0  0  0  0
    9.9446   43.8926   70.9309 C   0  0  0  0  0  0  0  0  0  0  0  0
    9.4831   42.8986   70.0781 C   0  0  0  0  0  0  0  0  0  0  0  0
   10.9528   43.7226   71.6119 O   0  0  0  0  0  0  0  0  0  0  0  0
   11.5347   41.7676   69.9602 C   0  0  0  0  0  0  0  0  0  0  0  0
   10.2076   41.7267   69.8906 N   0  0  0  0  0  0  0  0  0  0  0  0
   12.1658   40.8102   70.4024 O   0  0  0  0  0  0  0  0  0  0  0  0
    9.5206   40.5168   69.4254 C   0  0  2  0  0  0  0  0  0  0  0  0
    8.6703   40.8737   68.2034 C   0  0  0  0  0  0  0  0  0  0  0  0
    8.3529   43.1191   69.3026 C   0  0  0  0  0  0  0  0  0  0  0  0
    7.9148   42.1336   68.4112 N   0  0  0  0  0  0  0  0  0  0  0  0
    8.6352   39.9416   70.5362 C   0  0  0  0  0  0  0  0  0  0  0  0
    7.4555   40.7959   70.7201 N   0  0  0  0  0  0  0  0  0  0  0  0
    5.8881   41.6492   74.4495 C   0  0  0  0  0  0  0  0  0  0  0  0
    6.1512   42.6680   73.5371 C   0  0  0  0  0  0  0  0  0  0  0  0
    6.6984   42.3751   72.2895 C   0  0  0  0  0  0  0  0  0  0  0  0
    6.9463   41.0564   71.9237 C   0  0  0  0  0  0  0  0  0  0  0  0
    6.6758   40.0369   72.8303 C   0  0  0  0  0  0  0  0  0  0  0  0
    6.1616   40.3319   74.0922 C   0  0  0  0  0  0  0  0  0  0  0  0
    5.7399   42.9277   78.7917 C   0  0  0  0  0  0  0  0  0  0  0  0
  1  3  1  0  0  0  0
  2  1  1  6  0  0  0
  2  6  1  0  0  0  0
  2 34  1  0  0  0  0
  3  4  2  0  0  0  0
  3 28  1  0  0  0  0
  5 13  1  0  0  0  0
  6  7  1  0  0  0  0
  7  8  1  0  0  0  0
  8  9  1  0  0  0  0
  8 10  1  0  0  0  0
 11 13  2  0  0  0  0
 11 24  1  0  0  0  0
 12 34  1  0  0  0  0
 13 15  1  0  0  0  0
 14 34  1  0  0  0  0
 15 16  1  0  0  0  0
 16 17  1  0  0  0  0
 16 18  2  0  0  0  0
 17 20  1  0  0  0  0
 17 24  2  0  0  0  0
 19 21  1  0  0  0  0
 19 20  1  0  0  0  0
 20 22  1  0  0  0  0
 22 23  1  0  0  0  0
 22 26  1  1  0  0  0
 23 25  1  0  0  0  0
 24 25  1  0  0  0  0
 26 27  1  0  0  0  0
 27 31  1  0  0  0  0
 28 29  2  0  0  0  0
 28 33  1  0  0  0  0
 29 30  1  0  0  0  0
 30 31  2  0  0  0  0
 31 32  1  0  0  0  0
 32 33  2  0  0  0  0
M  END
>  <CHROM.1>
-59.22414183,-61.41740295,-67.23299280,76.29391977,-110.62348886,146.62173885
72.77490937,-141.41019334,129.22167651,-26.04187889,7.06708034,42.63994994
73.05581497,-2.48359971,0.78661885,-0.93639180

>  <Name>
ligand

>  <RI>
0

>  <Rbt.Current_Directory>
/home/itssahil/PROJECTS/Mol_Feturizer/New_Systems/rnas/3SUH

>  <Rbt.Executable>
rbdock ($Id: //depot/dev/client3/rdock/2013.1/src/exe/rbdock.cxx#4 $)

>  <Rbt.Library>
libRbt.so (2013.1, Build901 2013/11/27)

>  <Rbt.Parameter_File>
/export/apps/rDock/src/rDock_2013.1_src/data/scripts/dock_solv.prm

>  <Rbt.Receptor>
prm/pocket_docking_4.prm

>  <SCORE>
-8.08063

>  <SCORE.INTER>
-5.38549

>  <SCORE.INTER.CONST>
1

>  <SCORE.INTER.POLAR>
0

>  <SCORE.INTER.ROT>
10

>  <SCORE.INTER.SOLV>
13.9232

>  <SCORE.INTER.VDW>
-18.4981

>  <SCORE.INTER.norm>
-0.158397

>  <SCORE.INTRA>
-2.69514

>  <SCORE.INTRA.DIHEDRAL>
-3.54777

>  <SCORE.INTRA.DIHEDRAL.0>
12.2703

>  <SCORE.INTRA.POLAR>
0

>  <SCORE.INTRA.POLAR.0>
0

>  <SCORE.INTRA.REPUL>
0

>  <SCORE.INTRA.REPUL.0>
0

>  <SCORE.INTRA.SOLV>
3.00968

>  <SCORE.INTRA.SOLV.lig_0>
-64.3214

>  <SCORE.INTRA.VDW>
-2.42609

>  <SCORE.INTRA.VDW.0>
-1.67301

>  <SCORE.INTRA.norm>
-0.0792688

>  <SCORE.RESTR>
0

>  <SCORE.RESTR.CAVITY>
0

>  <SCORE.RESTR.norm>
0

>  <SCORE.SYSTEM>
0

>  <SCORE.SYSTEM.CONST>
0

>  <SCORE.SYSTEM.DIHEDRAL>
0

>  <SCORE.SYSTEM.SOLV>
0

>  <SCORE.SYSTEM.norm>
0

>  <SCORE.heavy>
34

>  <SCORE.norm>
-0.237665

>  <RMSD>
4.010

$$$$
ligand
 OpenBabel11021811483D
libRbt.so/2013.1/901 2013/11/27
 34 36  0  0  0  0  0  0  0  0999 V2000
    6.6668   40.3637   74.8027 N   0  0  0  0  0  0  0  0  0  0  0  0
    6.0143   40.4318   76.1310 C   0  0  1  0  0  0  0  0  0  0  0  0
    6.2237   39.6056   73.7912 C   0  0  0  0  0  0  0  0  0  0  0  0
    5.2273   38.8799   73.8510 O   0  0  0  0  0  0  0  0  0  0  0  0
   10.0307   47.1750   71.4505 N   0  0  0  0  0  0  0  0  0  0  0  0
    7.0043   40.9866   77.1689 C   0  0  0  0  0  0  0  0  0  0  0  0
    7.3840   42.4424   76.8657 C   0  0  0  0  0  0  0  0  0  0  0  0
    8.1120   42.5582   75.5179 C   0  0  0  0  0  0  0  0  0  0  0  0
    7.5251   43.1813   74.6023 O   0  0  0  0  0  0  0  0  0  0  0  0
    9.2413   42.0230   75.4335 O   0  0  0  0  0  0  0  0  0  0  0  0
    9.2910   45.4153   70.1412 N   0  0  0  0  0  0  0  0  0  0  0  0
    3.8030   40.9834   76.8753 O   0  0  0  0  0  0  0  0  0  0  0  0
   10.2852   46.2145   70.5655 C   0  0  0  0  0  0  0  0  0  0  0  0
    4.7367   42.2717   75.3077 O   0  0  0  0  0  0  0  0  0  0  0  0
   11.5906   46.0482   70.0862 N   0  0  0  0  0  0  0  0  0  0  0  0
   11.8452   45.0395   69.1668 C   0  0  0  0  0  0  0  0  0  0  0  0
   10.8024   44.2112   68.7735 C   0  0  0  0  0  0  0  0  0  0  0  0
   12.9841   44.8674   68.7395 O   0  0  0  0  0  0  0  0  0  0  0  0
   11.8728   43.4507   66.8298 C   0  0  0  0  0  0  0  0  0  0  0  0
   10.9952   43.2328   67.8045 N   0  0  0  0  0  0  0  0  0  0  0  0
   11.4895   43.6655   65.6821 O   0  0  0  0  0  0  0  0  0  0  0  0
   10.0959   42.0748   67.7553 C   0  0  2  0  0  0  0  0  0  0  0  0
    8.6493   42.5739   67.7943 C   0  0  0  0  0  0  0  0  0  0  0  0
    9.5190   44.4357   69.2532 C   0  0  0  0  0  0  0  0  0  0  0  0
    8.4613   43.6278   68.8216 N   0  0  0  0  0  0  0  0  0  0  0  0
   10.3639   41.1366   68.9371 C   0  0  0  0  0  0  0  0  0  0  0  0
    9.2797   40.1523   69.0424 N   0  0  0  0  0  0  0  0  0  0  0  0
    7.0340   39.7368   72.4888 C   0  0  0  0  0  0  0  0  0  0  0  0
    6.8922   40.8595   71.6770 C   0  0  0  0  0  0  0  0  0  0  0  0
    7.6668   41.0027   70.5276 C   0  0  0  0  0  0  0  0  0  0  0  0
    8.5592   40.0036   70.1535 C   0  0  0  0  0  0  0  0  0  0  0  0
    8.6956   38.8775   70.9583 C   0  0  0  0  0  0  0  0  0  0  0  0
    7.9468   38.7499   72.1274 C   0  0  0  0  0  0  0  0  0  0  0  0
    4.7412   41.3026   76.1055 C   0  0  0  0  0  0  0  0  0  0  0  0
  1  3  1  0  0  0  0
  2  1  1  6  0  0  0
  2  6  1  0  0  0  0
  2 34  1  0  0  0  0
  3  4  2  0  0  0  0
  3 28  1  0  0  0  0
  5 13  1  0  0  0  0
  6  7  1  0  0  0  0
  7  8  1  0  0  0  0
  8  9  1  0  0  0  0
  8 10  1  0  0  0  0
 11 13  2  0  0  0  0
 11 24  1  0  0  0  0
 12 34  1  0  0  0  0
 13 15  1  0  0  0  0
 14 34  1  0  0  0  0
 15 16  1  0  0  0  0
 16 17  1  0  0  0  0
 16 18  2  0  0  0  0
 17 20  1  0  0  0  0
 17 24  2  0  0  0  0
 19 21  1  0  0  0  0
 19 20  1  0  0  0  0
 20 22  1  0  0  0  0
 22 23  1  0  0  0  0
 22 26  1  1  0  0  0
 23 25  1  0  0  0  0
 24 25  1  0  0  0  0
 26 27  1  0  0  0  0
 27 31  1  0  0  0  0
 28 29  2  0  0  0  0
 28 33  1  0  0  0  0
 29 30  1  0  0  0  0
 30 31  2  0  0  0  0
 31 32  1  0  0  0  0
 32 33  2  0  0  0  0
M  END
>  <CHROM.1>
160.88898978,65.20506998,147.63428547,-63.02566772,113.80528107,-108.39474843
167.65544475,-123.29257634,70.10702101,-75.65042093,8.55354709,42.31623669
71.66236109,2.80916648,0.97920283,0.79997566

>  <Name>
ligand

>  <RI>
0

>  <Rbt.Current_Directory>
/home/itssahil/PROJECTS/Mol_Feturizer/New_Systems/rnas/3SUH

>  <Rbt.Executable>
rbdock ($Id: //depot/dev/client3/rdock/2013.1/src/exe/rbdock.cxx#4 $)

>  <Rbt.Library>
libRbt.so (2013.1, Build901 2013/11/27)

>  <Rbt.Parameter_File>
/export/apps/rDock/src/rDock_2013.1_src/data/scripts/dock_solv.prm

>  <Rbt.Receptor>
prm/pocket_docking_8.prm

>  <SCORE>
-13.8439

>  <SCORE.INTER>
-10.0062

>  <SCORE.INTER.CONST>
1

>  <SCORE.INTER.POLAR>
0

>  <SCORE.INTER.ROT>
10

>  <SCORE.INTER.SOLV>
18.9635

>  <SCORE.INTER.VDW>
-23.2586

>  <SCORE.INTER.norm>
-0.2943

>  <SCORE.INTRA>
-3.83771

>  <SCORE.INTRA.DIHEDRAL>
-3.88859

>  <SCORE.INTRA.DIHEDRAL.0>
12.2703

>  <SCORE.INTRA.POLAR>
0

>  <SCORE.INTRA.POLAR.0>
0

>  <SCORE.INTRA.REPUL>
0

>  <SCORE.INTRA.REPUL.0>
0

>  <SCORE.INTRA.SOLV>
0.0619858

>  <SCORE.INTRA.SOLV.lig_0>
-64.3214

>  <SCORE.INTRA.VDW>
-1.92441

>  <SCORE.INTRA.VDW.0>
-1.67301

>  <SCORE.INTRA.norm>
-0.112874

>  <SCORE.RESTR>
0

>  <SCORE.RESTR.CAVITY>
0

>  <SCORE.RESTR.norm>
0

>  <SCORE.SYSTEM>
0

>  <SCORE.SYSTEM.CONST>
0

>  <SCORE.SYSTEM.DIHEDRAL>
0

>  <SCORE.SYSTEM.SOLV>
0

>  <SCORE.SYSTEM.norm>
0

>  <SCORE.heavy>
34

>  <SCORE.norm>
-0.407174

>  <RMSD>
4.015

$$$$
ligand
 OpenBabel11021811483D
libRbt.so/2013.1/901 2013/11/27
 34 36  0  0  0  0  0  0  0  0999 V2000
    5.0590   42.6819   74.4944 N   0  0  0  0  0  0  0  0  0  0  0  0
    4.4555   42.7714   75.8445 C   0  0  1  0  0  0  0  0  0  0  0  0
    6.3426   42.9591   74.2304 C   0  0  0  0  0  0  0  0  0  0  0  0
    7.1640   43.3207   75.0776 O   0  0  0  0  0  0  0  0  0  0  0  0
    9.9206   46.4164   71.4474 N   0  0  0  0  0  0  0  0  0  0  0  0
    2.9716   43.1578   75.7262 C   0  0  0  0  0  0  0  0  0  0  0  0
    2.7912   44.4836   74.9745 C   0  0  0  0  0  0  0  0  0  0  0  0
    3.6594   45.5931   75.5873 C   0  0  0  0  0  0  0  0  0  0  0  0
    4.5426   46.0983   74.8555 O   0  0  0  0  0  0  0  0  0  0  0  0
    3.4188   45.9135   76.7740 O   0  0  0  0  0  0  0  0  0  0  0  0
    9.9903   44.9227   69.6804 N   0  0  0  0  0  0  0  0  0  0  0  0
    4.3815   41.4809   77.8636 O   0  0  0  0  0  0  0  0  0  0  0  0
   10.0390   45.1685   71.0013 C   0  0  0  0  0  0  0  0  0  0  0  0
    4.9050   40.4306   75.9631 O   0  0  0  0  0  0  0  0  0  0  0  0
   10.2134   44.1234   71.9173 N   0  0  0  0  0  0  0  0  0  0  0  0
   10.3309   42.8248   71.4405 C   0  0  0  0  0  0  0  0  0  0  0  0
   10.2442   42.6018   70.0726 C   0  0  0  0  0  0  0  0  0  0  0  0
   10.4744   41.8903   72.2249 O   0  0  0  0  0  0  0  0  0  0  0  0
   11.2599   40.4889   70.1495 C   0  0  0  0  0  0  0  0  0  0  0  0
   10.4246   41.3282   69.5448 N   0  0  0  0  0  0  0  0  0  0  0  0
   12.4744   40.6013   69.9990 O   0  0  0  0  0  0  0  0  0  0  0  0
    9.8547   41.0000   68.2334 C   0  0  2  0  0  0  0  0  0  0  0  0
   10.2423   42.0986   67.2403 C   0  0  0  0  0  0  0  0  0  0  0  0
   10.1021   43.6741   69.2023 C   0  0  0  0  0  0  0  0  0  0  0  0
   10.0594   43.4515   67.8216 N   0  0  0  0  0  0  0  0  0  0  0  0
    8.3293   40.8838   68.3250 C   0  0  0  0  0  0  0  0  0  0  0  0
    7.7644   42.1539   68.7974 N   0  0  0  0  0  0  0  0  0  0  0  0
    6.7563   42.7452   72.7632 C   0  0  0  0  0  0  0  0  0  0  0  0
    6.8976   41.4589   72.2480 C   0  0  0  0  0  0  0  0  0  0  0  0
    7.2177   41.2667   70.9055 C   0  0  0  0  0  0  0  0  0  0  0  0
    7.4442   42.3588   70.0746 C   0  0  0  0  0  0  0  0  0  0  0  0
    7.3123   43.6440   70.5896 C   0  0  0  0  0  0  0  0  0  0  0  0
    6.9571   43.8373   71.9238 C   0  0  0  0  0  0  0  0  0  0  0  0
    4.5904   41.4486   76.6267 C   0  0  0  0  0  0  0  0  0  0  0  0
  1  3  1  0  0  0  0
  2  1  1  6  0  0  0
  2  6  1  0  0  0  0
  2 34  1  0  0  0  0
  3  4  2  0  0  0  0
  3 28  1  0  0  0  0
  5 13  1  0  0  0  0
  6  7  1  0  0  0  0
  7  8  1  0  0  0  0
  8  9  1  0  0  0  0
  8 10  1  0  0  0  0
 11 13  2  0  0  0  0
 11 24  1  0  0  0  0
 12 34  1  0  0  0  0
 13 15  1  0  0  0  0
 14 34  1  0  0  0  0
 15 16  1  0  0  0  0
 16 17  1  0  0  0  0
 16 18  2  0  0  0  0
 17 20  1  0  0  0  0
 17 24  2  0  0  0  0
 19 21  1  0  0  0  0
 19 20  1  0  0  0  0
 20 22  1  0  0  0  0
 22 23  1  0  0  0  0
 22 26  1  1  0  0  0
 23 25  1  0  0  0  0
 24 25  1  0  0  0  0
 26 27  1  0  0  0  0
 27 31  1  0  0  0  0
 28 29  2  0  0  0  0
 28 33  1  0  0  0  0
 29 30  1  0  0  0  0
 30 31  2  0  0  0  0
 31 32  1  0  0  0  0
 32 33  2  0  0  0  0
M  END
>  <CHROM.1>
148.89179489,-57.45686869,165.09612089,-52.48369594,117.74425326,-78.01823439
59.35666895,-97.58353518,-21.25158115,-72.70467297,7.58631310,42.91419476
72.24792399,3.11863898,0.83653915,-0.14708272

>  <Name>
ligand

>  <RI>
0

>  <Rbt.Current_Directory>
/home/itssahil/PROJECTS/Mol_Feturizer/New_Systems/rnas/3SUH

>  <Rbt.Executable>
rbdock ($Id: //depot/dev/client3/rdock/2013.1/src/exe/rbdock.cxx#4 $)

>  <Rbt.Library>
libRbt.so (2013.1, Build901 2013/11/27)

>  <Rbt.Parameter_File>
/export/apps/rDock/src/rDock_2013.1_src/data/scripts/dock_solv.prm

>  <Rbt.Receptor>
prm/pocket_docking_4.prm

>  <SCORE>
-12.222

>  <SCORE.INTER>
-7.50962

>  <SCORE.INTER.CONST>
1

>  <SCORE.INTER.POLAR>
0

>  <SCORE.INTER.ROT>
10

>  <SCORE.INTER.SOLV>
14.2969

>  <SCORE.INTER.VDW>
-20.0387

>  <SCORE.INTER.norm>
-0.220871

>  <SCORE.INTRA>
-4.71239

>  <SCORE.INTRA.DIHEDRAL>
-4.46275

>  <SCORE.INTRA.DIHEDRAL.0>
12.2703

>  <SCORE.INTRA.POLAR>
0

>  <SCORE.INTRA.POLAR.0>
0

>  <SCORE.INTRA.REPUL>
0

>  <SCORE.INTRA.REPUL.0>
0

>  <SCORE.INTRA.SOLV>
2.62375

>  <SCORE.INTRA.SOLV.lig_0>
-64.3214

>  <SCORE.INTRA.VDW>
-3.79289

>  <SCORE.INTRA.VDW.0>
-1.67301

>  <SCORE.INTRA.norm>
-0.1386

>  <SCORE.RESTR>
0

>  <SCORE.RESTR.CAVITY>
0

>  <SCORE.RESTR.norm>
0

>  <SCORE.SYSTEM>
0

>  <SCORE.SYSTEM.CONST>
0

>  <SCORE.SYSTEM.DIHEDRAL>
0

>  <SCORE.SYSTEM.SOLV>
0

>  <SCORE.SYSTEM.norm>
0

>  <SCORE.heavy>
34

>  <SCORE.norm>
-0.359471

>  <RMSD>
4.032

$$$$
ligand
 OpenBabel11021811483D
libRbt.so/2013.1/901 2013/11/27
 34 36  0  0  0  0  0  0  0  0999 V2000
    6.4233   39.7936   74.4119 N   0  0  0  0  0  0  0  0  0  0  0  0
    6.1948   38.9621   75.6166 C   0  0  1  0  0  0  0  0  0  0  0  0
    6.0489   41.0753   74.3073 C   0  0  0  0  0  0  0  0  0  0  0  0
    5.4721   41.7059   75.1978 O   0  0  0  0  0  0  0  0  0  0  0  0
   13.3170   40.6863   72.7818 N   0  0  0  0  0  0  0  0  0  0  0  0
    4.8633   38.2045   75.4808 C   0  0  0  0  0  0  0  0  0  0  0  0
    4.4903   37.4802   76.7813 C   0  0  0  0  0  0  0  0  0  0  0  0
    4.2600   38.4774   77.9271 C   0  0  0  0  0  0  0  0  0  0  0  0
    5.2599   38.8102   78.6056 O   0  0  0  0  0  0  0  0  0  0  0  0
    3.0887   38.8871   78.0977 O   0  0  0  0  0  0  0  0  0  0  0  0
   12.6323   41.9438   70.9630 N   0  0  0  0  0  0  0  0  0  0  0  0
    7.7229   37.7803   77.0366 O   0  0  0  0  0  0  0  0  0  0  0  0
   12.4270   40.9316   71.8237 C   0  0  0  0  0  0  0  0  0  0  0  0
    7.8211   37.3985   74.8381 O   0  0  0  0  0  0  0  0  0  0  0  0
   11.2834   40.1291   71.7243 N   0  0  0  0  0  0  0  0  0  0  0  0
   10.3592   40.3975   70.7236 C   0  0  0  0  0  0  0  0  0  0  0  0
   10.5857   41.4702   69.8713 C   0  0  0  0  0  0  0  0  0  0  0  0
    9.3435   39.7140   70.6225 O   0  0  0  0  0  0  0  0  0  0  0  0
    9.1080   40.7217   68.2105 C   0  0  0  0  0  0  0  0  0  0  0  0
    9.7235   41.7346   68.8129 N   0  0  0  0  0  0  0  0  0  0  0  0
    7.8883   40.7340   68.0597 O   0  0  0  0  0  0  0  0  0  0  0  0
    9.6598   43.0883   68.2512 C   0  0  2  0  0  0  0  0  0  0  0  0
   11.0850   43.5720   67.9717 C   0  0  0  0  0  0  0  0  0  0  0  0
   11.7498   42.2173   69.9901 C   0  0  0  0  0  0  0  0  0  0  0  0
   11.9972   43.2701   69.1022 N   0  0  0  0  0  0  0  0  0  0  0  0
    8.9593   44.0413   69.2258 C   0  0  0  0  0  0  0  0  0  0  0  0
    7.5824   43.5875   69.4570 N   0  0  0  0  0  0  0  0  0  0  0  0
    6.4387   41.7511   72.9802 C   0  0  0  0  0  0  0  0  0  0  0  0
    6.3899   43.1370   72.8506 C   0  0  0  0  0  0  0  0  0  0  0  0
    6.7961   43.7506   71.6673 C   0  0  0  0  0  0  0  0  0  0  0  0
    7.2126   42.9824   70.5852 C   0  0  0  0  0  0  0  0  0  0  0  0
    7.2535   41.5978   70.7099 C   0  0  0  0  0  0  0  0  0  0  0  0
    6.8811   40.9850   71.9055 C   0  0  0  0  0  0  0  0  0  0  0  0
    7.3440   37.9606   75.8540 C   0  0  0  0  0  0  0  0  0  0  0  0
  1  3  1  0  0  0  0
  2  1  1  6  0  0  0
  2  6  1  0  0  0  0
  2 34  1  0  0  0  0
  3  4  2  0  0  0  0
  3 28  1  0  0  0  0
  5 13  1  0  0  0  0
  6  7  1  0  0  0  0
  7  8  1  0  0  0  0
  8  9  1  0  0  0  0
  8 10  1  0  0  0  0
 11 13  2  0  0  0  0
 11 24  1  0  0  0  0
 12 34  1  0  0  0  0
 13 15  1  0  0  0  0
 14 34  1  0  0  0  0
 15 16  1  0  0  0  0
 16 17  1  0  0  0  0
 16 18  2  0  0  0  0
 17 20  1  0  0  0  0
 17 24  2  0  0  0  0
 19 21  1  0  0  0  0
 19 20  1  0  0  0  0
 20 22  1  0  0  0  0
 22 23  1  0  0  0  0
 22 26  1  1  0  0  0
 23 25  1  0  0  0  0
 24 25  1  0  0  0  0
 26 27  1  0  0  0  0
 27 31  1  0  0  0  0
 28 29  2  0  0  0  0
 28 33  1  0  0  0  0
 29 30  1  0  0  0  0
 30 31  2  0  0  0  0
 31 32  1  0  0  0  0
 32 33  2  0  0  0  0
M  END
>  <CHROM.1>
92.48569727,-172.24277976,139.72071190,63.32833991,-88.21884358,128.01343523
-61.36607400,104.78016190,87.70760227,-165.36494806,8.13234595,40.78002521
72.49490009,2.15308796,-0.27572514,2.19884176

>  <Name>
ligand

>  <RI>
0

>  <Rbt.Current_Directory>
/home/itssahil/PROJECTS/Mol_Feturizer/New_Systems/rnas/3SUH

>  <Rbt.Executable>
rbdock ($Id: //depot/dev/client3/rdock/2013.1/src/exe/rbdock.cxx#4 $)

>  <Rbt.Library>
libRbt.so (2013.1, Build901 2013/11/27)

>  <Rbt.Parameter_File>
/export/apps/rDock/src/rDock_2013.1_src/data/scripts/dock_solv.prm

>  <Rbt.Receptor>
prm/pocket_docking_5.prm

>  <SCORE>
-12.4671

>  <SCORE.INTER>
-7.47824

>  <SCORE.INTER.CONST>
1

>  <SCORE.INTER.POLAR>
0

>  <SCORE.INTER.ROT>
10

>  <SCORE.INTER.SOLV>
15.992

>  <SCORE.INTER.VDW>
-20.5828

>  <SCORE.INTER.norm>
-0.219948

>  <SCORE.INTRA>
-4.98886

>  <SCORE.INTRA.DIHEDRAL>
-3.90388

>  <SCORE.INTRA.DIHEDRAL.0>
12.2703

>  <SCORE.INTRA.POLAR>
0

>  <SCORE.INTRA.POLAR.0>
0

>  <SCORE.INTRA.REPUL>
0

>  <SCORE.INTRA.REPUL.0>
0

>  <SCORE.INTRA.SOLV>
0.448997

>  <SCORE.INTRA.SOLV.lig_0>
-64.3214

>  <SCORE.INTRA.VDW>
-3.26142

>  <SCORE.INTRA.VDW.0>
-1.67301

>  <SCORE.INTRA.norm>
-0.146731

>  <SCORE.RESTR>
0

>  <SCORE.RESTR.CAVITY>
0

>  <SCORE.RESTR.norm>
0

>  <SCORE.SYSTEM>
0

>  <SCORE.SYSTEM.CONST>
0

>  <SCORE.SYSTEM.DIHEDRAL>
0

>  <SCORE.SYSTEM.SOLV>
0

>  <SCORE.SYSTEM.norm>
0

>  <SCORE.heavy>
34

>  <SCORE.norm>
-0.36668

>  <RMSD>
4.036

$$$$
ligand
 OpenBabel11021811483D
libRbt.so/2013.1/901 2013/11/27
 34 36  0  0  0  0  0  0  0  0999 V2000
    6.1753   40.8012   74.0813 N   0  0  0  0  0  0  0  0  0  0  0  0
    5.7981   40.5634   75.4941 C   0  0  1  0  0  0  0  0  0  0  0  0
    7.4316   41.0175   73.6701 C   0  0  0  0  0  0  0  0  0  0  0  0
    8.4128   41.0448   74.4182 O   0  0  0  0  0  0  0  0  0  0  0  0
   12.9370   46.1458   71.5001 N   0  0  0  0  0  0  0  0  0  0  0  0
    4.9044   41.7108   75.9940 C   0  0  0  0  0  0  0  0  0  0  0  0
    5.6808   43.0312   76.0892 C   0  0  0  0  0  0  0  0  0  0  0  0
    5.9754   43.6050   74.6948 C   0  0  0  0  0  0  0  0  0  0  0  0
    4.9914   43.8614   73.9620 O   0  0  0  0  0  0  0  0  0  0  0  0
    7.1788   43.7771   74.3932 O   0  0  0  0  0  0  0  0  0  0  0  0
   12.3782   45.1114   69.5061 N   0  0  0  0  0  0  0  0  0  0  0  0
    4.7939   38.5581   74.6466 O   0  0  0  0  0  0  0  0  0  0  0  0
   12.4596   45.0889   70.8478 C   0  0  0  0  0  0  0  0  0  0  0  0
    4.8038   38.8758   76.8575 O   0  0  0  0  0  0  0  0  0  0  0  0
   12.0465   43.9626   71.5706 N   0  0  0  0  0  0  0  0  0  0  0  0
   11.5455   42.8675   70.8796 C   0  0  0  0  0  0  0  0  0  0  0  0
   11.4450   42.9358   69.4962 C   0  0  0  0  0  0  0  0  0  0  0  0
   11.1673   41.8720   71.4920 O   0  0  0  0  0  0  0  0  0  0  0  0
   11.2960   40.6147   69.1917 C   0  0  0  0  0  0  0  0  0  0  0  0
   11.0141   41.8394   68.7575 N   0  0  0  0  0  0  0  0  0  0  0  0
   12.4625   40.2386   69.2832 O   0  0  0  0  0  0  0  0  0  0  0  0
   10.4380   42.0454   67.4242 C   0  0  2  0  0  0  0  0  0  0  0  0
   11.3715   42.9543   66.6205 C   0  0  0  0  0  0  0  0  0  0  0  0
   11.8967   44.0623   68.8223 C   0  0  0  0  0  0  0  0  0  0  0  0
   11.8355   44.1113   67.4252 N   0  0  0  0  0  0  0  0  0  0  0  0
    9.0469   42.6791   67.5327 C   0  0  0  0  0  0  0  0  0  0  0  0
    8.0987   41.6996   68.0775 N   0  0  0  0  0  0  0  0  0  0  0  0
    7.5879   41.1878   72.1482 C   0  0  0  0  0  0  0  0  0  0  0  0
    7.2102   42.3755   71.5264 C   0  0  0  0  0  0  0  0  0  0  0  0
    7.4039   42.5488   70.1574 C   0  0  0  0  0  0  0  0  0  0  0  0
    7.9357   41.5197   69.3878 C   0  0  0  0  0  0  0  0  0  0  0  0
    8.3052   40.3297   70.0055 C   0  0  0  0  0  0  0  0  0  0  0  0
    8.1448   40.1684   71.3810 C   0  0  0  0  0  0  0  0  0  0  0  0
    5.0705   39.2157   75.6789 C   0  0  0  0  0  0  0  0  0  0  0  0
  1  3  1  0  0  0  0
  2  1  1  6  0  0  0
  2  6  1  0  0  0  0
  2 34  1  0  0  0  0
  3  4  2  0  0  0  0
  3 28  1  0  0  0  0
  5 13  1  0  0  0  0
  6  7  1  0  0  0  0
  7  8  1  0  0  0  0
  8  9  1  0  0  0  0
  8 10  1  0  0  0  0
 11 13  2  0  0  0  0
 11 24  1  0  0  0  0
 12 34  1  0  0  0  0
 13 15  1  0  0  0  0
 14 34  1  0  0  0  0
 15 16  1  0  0  0  0
 16 17  1  0  0  0  0
 16 18  2  0  0  0  0
 17 20  1  0  0  0  0
 17 24  2  0  0  0  0
 19 21  1  0  0  0  0
 19 20  1  0  0  0  0
 20 22  1  0  0  0  0
 22 23  1  0  0  0  0
 22 26  1  1  0  0  0
 23 25  1  0  0  0  0
 24 25  1  0  0  0  0
 26 27  1  0  0  0  0
 27 31  1  0  0  0  0
 28 29  2  0  0  0  0
 28 33  1  0  0  0  0
 29 30  1  0  0  0  0
 30 31  2  0  0  0  0
 31 32  1  0  0  0  0
 32 33  2  0  0  0  0
M  END
>  <CHROM.1>
115.45626725,-67.68032027,-5.61455849,72.46597678,59.36087014,-63.18490218
-70.44683021,86.04354236,65.66168839,75.85284037,8.77916524,42.10806925,71.62727735
2.75019760,0.77049809,0.87379140

>  <Name>
ligand

>  <RI>
0

>  <Rbt.Current_Directory>
/home/itssahil/PROJECTS/Mol_Feturizer/New_Systems/rnas/3SUH

>  <Rbt.Executable>
rbdock ($Id: //depot/dev/client3/rdock/2013.1/src/exe/rbdock.cxx#4 $)

>  <Rbt.Library>
libRbt.so (2013.1, Build901 2013/11/27)

>  <Rbt.Parameter_File>
/export/apps/rDock/src/rDock_2013.1_src/data/scripts/dock_solv.prm

>  <Rbt.Receptor>
prm/pocket_docking_5.prm

>  <SCORE>
-17.3698

>  <SCORE.INTER>
-11.685

>  <SCORE.INTER.CONST>
1

>  <SCORE.INTER.POLAR>
0

>  <SCORE.INTER.ROT>
10

>  <SCORE.INTER.SOLV>
18.1286

>  <SCORE.INTER.VDW>
-24.0995

>  <SCORE.INTER.norm>
-0.343675

>  <SCORE.INTRA>
-5.68487

>  <SCORE.INTRA.DIHEDRAL>
-3.01489

>  <SCORE.INTRA.DIHEDRAL.0>
12.2703

>  <SCORE.INTRA.POLAR>
0

>  <SCORE.INTRA.POLAR.0>
0

>  <SCORE.INTRA.REPUL>
0

>  <SCORE.INTRA.REPUL.0>
0

>  <SCORE.INTRA.SOLV>
0.54273

>  <SCORE.INTRA.SOLV.lig_0>
-64.3214

>  <SCORE.INTRA.VDW>
-4.44879

>  <SCORE.INTRA.VDW.0>
-1.67301

>  <SCORE.INTRA.norm>
-0.167202

>  <SCORE.RESTR>
0

>  <SCORE.RESTR.CAVITY>
0

>  <SCORE.RESTR.norm>
0

>  <SCORE.SYSTEM>
0

>  <SCORE.SYSTEM.CONST>
0

>  <SCORE.SYSTEM.DIHEDRAL>
0

>  <SCORE.SYSTEM.SOLV>
0

>  <SCORE.SYSTEM.norm>
0

>  <SCORE.heavy>
34

>  <SCORE.norm>
-0.510877

>  <RMSD>
4.045

$$$$
ligand
 OpenBabel11021811483D
libRbt.so/2013.1/901 2013/11/27
 34 36  0  0  0  0  0  0  0  0999 V2000
    6.2576   42.5120   73.4770 N   0  0  0  0  0  0  0  0  0  0  0  0
    5.5970   42.6640   74.7944 C   0  0  1  0  0  0  0  0  0  0  0  0
    6.4762   41.3315   72.8831 C   0  0  0  0  0  0  0  0  0  0  0  0
    6.1553   40.2413   73.3644 O   0  0  0  0  0  0  0  0  0  0  0  0
   10.3384   45.9157   72.9764 N   0  0  0  0  0  0  0  0  0  0  0  0
    6.6164   42.4164   75.9190 C   0  0  0  0  0  0  0  0  0  0  0  0
    6.9435   40.9242   76.0664 C   0  0  0  0  0  0  0  0  0  0  0  0
    7.9092   40.6793   77.2360 C   0  0  0  0  0  0  0  0  0  0  0  0
    7.4267   40.7105   78.3924 O   0  0  0  0  0  0  0  0  0  0  0  0
    9.1088   40.4637   76.9475 O   0  0  0  0  0  0  0  0  0  0  0  0
   10.9956   45.2866   70.8479 N   0  0  0  0  0  0  0  0  0  0  0  0
    3.7769   44.1111   75.3784 O   0  0  0  0  0  0  0  0  0  0  0  0
   10.5169   44.9653   72.0624 C   0  0  0  0  0  0  0  0  0  0  0  0
    5.6775   45.0458   74.6692 O   0  0  0  0  0  0  0  0  0  0  0  0
   10.2022   43.6378   72.3789 N   0  0  0  0  0  0  0  0  0  0  0  0
   10.3879   42.6553   71.4156 C   0  0  0  0  0  0  0  0  0  0  0  0
   10.8537   43.0255   70.1608 C   0  0  0  0  0  0  0  0  0  0  0  0
   10.1095   41.4854   71.6662 O   0  0  0  0  0  0  0  0  0  0  0  0
   11.5512   40.8675   69.5617 C   0  0  0  0  0  0  0  0  0  0  0  0
   11.1198   42.0684   69.1880 N   0  0  0  0  0  0  0  0  0  0  0  0
   12.7207   40.7031   69.9016 O   0  0  0  0  0  0  0  0  0  0  0  0
   11.1147   42.4534   67.7724 C   0  0  2  0  0  0  0  0  0  0  0  0
   11.9754   43.7078   67.6013 C   0  0  0  0  0  0  0  0  0  0  0  0
   11.1812   44.3501   69.9052 C   0  0  0  0  0  0  0  0  0  0  0  0
   11.6922   44.7139   68.6544 N   0  0  0  0  0  0  0  0  0  0  0  0
    9.6839   42.7244   67.2950 C   0  0  0  0  0  0  0  0  0  0  0  0
    8.8055   41.6270   67.7183 N   0  0  0  0  0  0  0  0  0  0  0  0
    7.1317   41.4245   71.4933 C   0  0  0  0  0  0  0  0  0  0  0  0
    7.7759   40.3208   70.9393 C   0  0  0  0  0  0  0  0  0  0  0  0
    8.3201   40.3899   69.6584 C   0  0  0  0  0  0  0  0  0  0  0  0
    8.2655   41.5768   68.9355 C   0  0  0  0  0  0  0  0  0  0  0  0
    7.6304   42.6826   69.4908 C   0  0  0  0  0  0  0  0  0  0  0  0
    7.0544   42.6039   70.7580 C   0  0  0  0  0  0  0  0  0  0  0  0
    4.9602   44.0588   74.9640 C   0  0  0  0  0  0  0  0  0  0  0  0
  1  3  1  0  0  0  0
  2  1  1  6  0  0  0
  2  6  1  0  0  0  0
  2 34  1  0  0  0  0
  3  4  2  0  0  0  0
  3 28  1  0  0  0  0
  5 13  1  0  0  0  0
  6  7  1  0  0  0  0
  7  8  1  0  0  0  0
  8  9  1  0  0  0  0
  8 10  1  0  0  0  0
 11 13  2  0  0  0  0
 11 24  1  0  0  0  0
 12 34  1  0  0  0  0
 13 15  1  0  0  0  0
 14 34  1  0  0  0  0
 15 16  1  0  0  0  0
 16 17  1  0  0  0  0
 16 18  2  0  0  0  0
 17 20  1  0  0  0  0
 17 24  2  0  0  0  0
 19 21  1  0  0  0  0
 19 20  1  0  0  0  0
 20 22  1  0  0  0  0
 22 23  1  0  0  0  0
 22 26  1  1  0  0  0
 23 25  1  0  0  0  0
 24 25  1  0  0  0  0
 26 27  1  0  0  0  0
 27 31  1  0  0  0  0
 28 29  2  0  0  0  0
 28 33  1  0  0  0  0
 29 30  1  0  0  0  0
 30 31  2  0  0  0  0
 31 32  1  0  0  0  0
 32 33  2  0  0  0  0
M  END
>  <CHROM.1>
81.57982487,-74.49735283,131.53124851,-177.22382679,77.26155850,-77.22335459
-47.98964030,83.31595237,-132.98622067,160.60029904,8.71221709,42.46988557
71.99273204,2.63430065,-0.89973317,2.61487602

>  <Name>
ligand

>  <RI>
0

>  <Rbt.Current_Directory>
/home/itssahil/PROJECTS/Mol_Feturizer/New_Systems/rnas/3SUH

>  <Rbt.Executable>
rbdock ($Id: //depot/dev/client3/rdock/2013.1/src/exe/rbdock.cxx#4 $)

>  <Rbt.Library>
libRbt.so (2013.1, Build901 2013/11/27)

>  <Rbt.Parameter_File>
/export/apps/rDock/src/rDock_2013.1_src/data/scripts/dock_solv.prm

>  <Rbt.Receptor>
prm/pocket_docking_6.prm

>  <SCORE>
-14.8314

>  <SCORE.INTER>
-9.35134

>  <SCORE.INTER.CONST>
1

>  <SCORE.INTER.POLAR>
0

>  <SCORE.INTER.ROT>
10

>  <SCORE.INTER.SOLV>
15.0065

>  <SCORE.INTER.VDW>
-21.5031

>  <SCORE.INTER.norm>
-0.27504

>  <SCORE.INTRA>
-5.48005

>  <SCORE.INTRA.DIHEDRAL>
-4.09374

>  <SCORE.INTRA.DIHEDRAL.0>
12.2703

>  <SCORE.INTRA.POLAR>
0

>  <SCORE.INTRA.POLAR.0>
0

>  <SCORE.INTRA.REPUL>
0

>  <SCORE.INTRA.REPUL.0>
0

>  <SCORE.INTRA.SOLV>
1.03792

>  <SCORE.INTRA.SOLV.lig_0>
-64.3214

>  <SCORE.INTRA.VDW>
-3.95214

>  <SCORE.INTRA.VDW.0>
-1.67301

>  <SCORE.INTRA.norm>
-0.161178

>  <SCORE.RESTR>
0

>  <SCORE.RESTR.CAVITY>
0

>  <SCORE.RESTR.norm>
0

>  <SCORE.SYSTEM>
0

>  <SCORE.SYSTEM.CONST>
0

>  <SCORE.SYSTEM.DIHEDRAL>
0

>  <SCORE.SYSTEM.SOLV>
0

>  <SCORE.SYSTEM.norm>
0

>  <SCORE.heavy>
34

>  <SCORE.norm>
-0.436217

>  <RMSD>
4.056

$$$$
ligand
 OpenBabel11021811483D
libRbt.so/2013.1/901 2013/11/27
 34 36  0  0  0  0  0  0  0  0999 V2000
    6.5338   40.3725   73.7515 N   0  0  0  0  0  0  0  0  0  0  0  0
    5.9259   39.8363   74.9917 C   0  0  1  0  0  0  0  0  0  0  0  0
    6.5854   39.7002   72.5942 C   0  0  0  0  0  0  0  0  0  0  0  0
    6.1361   38.5624   72.4306 O   0  0  0  0  0  0  0  0  0  0  0  0
    8.7965   44.9643   73.2590 N   0  0  0  0  0  0  0  0  0  0  0  0
    6.9193   38.8947   75.6928 C   0  0  0  0  0  0  0  0  0  0  0  0
    6.2276   38.0392   76.7630 C   0  0  0  0  0  0  0  0  0  0  0  0
    5.7204   38.9059   77.9257 C   0  0  0  0  0  0  0  0  0  0  0  0
    4.4920   38.8704   78.1722 O   0  0  0  0  0  0  0  0  0  0  0  0
    6.5731   39.5833   78.5444 O   0  0  0  0  0  0  0  0  0  0  0  0
    9.8151   44.7912   71.1875 N   0  0  0  0  0  0  0  0  0  0  0  0
    6.3776   41.7802   76.3203 O   0  0  0  0  0  0  0  0  0  0  0  0
    9.4526   44.2377   72.3578 C   0  0  0  0  0  0  0  0  0  0  0  0
    4.2967   40.9686   76.3179 O   0  0  0  0  0  0  0  0  0  0  0  0
    9.7577   42.9005   72.6415 N   0  0  0  0  0  0  0  0  0  0  0  0
   10.4382   42.1506   71.6917 C   0  0  0  0  0  0  0  0  0  0  0  0
   10.7697   42.7434   70.4804 C   0  0  0  0  0  0  0  0  0  0  0  0
   10.7082   40.9729   71.9132 O   0  0  0  0  0  0  0  0  0  0  0  0
   12.4156   41.1656   69.9292 C   0  0  0  0  0  0  0  0  0  0  0  0
   11.5106   42.0530   69.5276 N   0  0  0  0  0  0  0  0  0  0  0  0
   12.4134   40.0236   69.4751 O   0  0  0  0  0  0  0  0  0  0  0  0
   11.4289   42.4516   68.1181 C   0  0  2  0  0  0  0  0  0  0  0  0
   11.6313   43.9660   68.0231 C   0  0  0  0  0  0  0  0  0  0  0  0
   10.4730   44.0814   70.2584 C   0  0  0  0  0  0  0  0  0  0  0  0
   10.8473   44.6889   69.0548 N   0  0  0  0  0  0  0  0  0  0  0  0
   10.0694   42.0615   67.5280 C   0  0  0  0  0  0  0  0  0  0  0  0
    8.9929   42.6112   68.3611 N   0  0  0  0  0  0  0  0  0  0  0  0
    7.2184   40.4798   71.4274 C   0  0  0  0  0  0  0  0  0  0  0  0
    6.9517   41.8359   71.2549 C   0  0  0  0  0  0  0  0  0  0  0  0
    7.5689   42.5527   70.2317 C   0  0  0  0  0  0  0  0  0  0  0  0
    8.4245   41.9113   69.3424 C   0  0  0  0  0  0  0  0  0  0  0  0
    8.6851   40.5551   69.5078 C   0  0  0  0  0  0  0  0  0  0  0  0
    8.0958   39.8449   70.5527 C   0  0  0  0  0  0  0  0  0  0  0  0
    5.4994   40.9600   75.9587 C   0  0  0  0  0  0  0  0  0  0  0  0
  1  3  1  0  0  0  0
  2  1  1  6  0  0  0
  2  6  1  0  0  0  0
  2 34  1  0  0  0  0
  3  4  2  0  0  0  0
  3 28  1  0  0  0  0
  5 13  1  0  0  0  0
  6  7  1  0  0  0  0
  7  8  1  0  0  0  0
  8  9  1  0  0  0  0
  8 10  1  0  0  0  0
 11 13  2  0  0  0  0
 11 24  1  0  0  0  0
 12 34  1  0  0  0  0
 13 15  1  0  0  0  0
 14 34  1  0  0  0  0
 15 16  1  0  0  0  0
 16 17  1  0  0  0  0
 16 18  2  0  0  0  0
 17 20  1  0  0  0  0
 17 24  2  0  0  0  0
 19 21  1  0  0  0  0
 19 20  1  0  0  0  0
 20 22  1  0  0  0  0
 22 23  1  0  0  0  0
 22 26  1  1  0  0  0
 23 25  1  0  0  0  0
 24 25  1  0  0  0  0
 26 27  1  0  0  0  0
 27 31  1  0  0  0  0
 28 29  2  0  0  0  0
 28 33  1  0  0  0  0
 29 30  1  0  0  0  0
 30 31  2  0  0  0  0
 31 32  1  0  0  0  0
 32 33  2  0  0  0  0
M  END
>  <CHROM.1>
80.66115164,-165.15974517,-56.29608777,-66.40612635,121.17832355,128.30624408
53.82550434,-93.50853628,169.61446351,-39.88927404,8.44492513,41.41247593
72.32472215,3.02892704,1.00094566,0.53055081

>  <Name>
ligand

>  <RI>
0

>  <Rbt.Current_Directory>
/home/itssahil/PROJECTS/Mol_Feturizer/New_Systems/rnas/3SUH

>  <Rbt.Executable>
rbdock ($Id: //depot/dev/client3/rdock/2013.1/src/exe/rbdock.cxx#4 $)

>  <Rbt.Library>
libRbt.so (2013.1, Build901 2013/11/27)

>  <Rbt.Parameter_File>
/export/apps/rDock/src/rDock_2013.1_src/data/scripts/dock_solv.prm

>  <Rbt.Receptor>
prm/pocket_docking_8.prm

>  <SCORE>
-11.377

>  <SCORE.INTER>
-6.965

>  <SCORE.INTER.CONST>
1

>  <SCORE.INTER.POLAR>
0

>  <SCORE.INTER.ROT>
10

>  <SCORE.INTER.SOLV>
12.3597

>  <SCORE.INTER.VDW>
-19.0299

>  <SCORE.INTER.norm>
-0.204853

>  <SCORE.INTRA>
-4.41201

>  <SCORE.INTRA.DIHEDRAL>
-3.70541

>  <SCORE.INTRA.DIHEDRAL.0>
12.2703

>  <SCORE.INTRA.POLAR>
0

>  <SCORE.INTRA.POLAR.0>
0

>  <SCORE.INTRA.REPUL>
0

>  <SCORE.INTRA.REPUL.0>
0

>  <SCORE.INTRA.SOLV>
2.33583

>  <SCORE.INTRA.SOLV.lig_0>
-64.3214

>  <SCORE.INTRA.VDW>
-3.72722

>  <SCORE.INTRA.VDW.0>
-1.67301

>  <SCORE.INTRA.norm>
-0.129765

>  <SCORE.RESTR>
0

>  <SCORE.RESTR.CAVITY>
0

>  <SCORE.RESTR.norm>
0

>  <SCORE.SYSTEM>
0

>  <SCORE.SYSTEM.CONST>
0

>  <SCORE.SYSTEM.DIHEDRAL>
0

>  <SCORE.SYSTEM.SOLV>
0

>  <SCORE.SYSTEM.norm>
0

>  <SCORE.heavy>
34

>  <SCORE.norm>
-0.334618

>  <RMSD>
4.072

$$$$
ligand
 OpenBabel11021811483D
libRbt.so/2013.1/901 2013/11/27
 34 36  0  0  0  0  0  0  0  0999 V2000
    5.5472   41.2883   75.1623 N   0  0  0  0  0  0  0  0  0  0  0  0
    4.8441   41.5549   76.4388 C   0  0  1  0  0  0  0  0  0  0  0  0
    6.4762   42.0984   74.6381 C   0  0  0  0  0  0  0  0  0  0  0  0
    6.8489   43.1550   75.1557 O   0  0  0  0  0  0  0  0  0  0  0  0
   11.4398   47.1373   70.9457 N   0  0  0  0  0  0  0  0  0  0  0  0
    3.5446   42.3303   76.1646 C   0  0  0  0  0  0  0  0  0  0  0  0
    3.8239   43.6811   75.4919 C   0  0  0  0  0  0  0  0  0  0  0  0
    2.5218   44.4553   75.2366 C   0  0  0  0  0  0  0  0  0  0  0  0
    2.1406   45.2449   76.1324 O   0  0  0  0  0  0  0  0  0  0  0  0
    1.9371   44.2423   74.1496 O   0  0  0  0  0  0  0  0  0  0  0  0
   10.0768   45.4626   70.1116 N   0  0  0  0  0  0  0  0  0  0  0  0
    4.6298   40.2765   78.4556 O   0  0  0  0  0  0  0  0  0  0  0  0
   11.2703   46.0797   70.1563 C   0  0  0  0  0  0  0  0  0  0  0  0
    4.1851   39.2625   76.5158 O   0  0  0  0  0  0  0  0  0  0  0  0
   12.3419   45.6215   69.3796 N   0  0  0  0  0  0  0  0  0  0  0  0
   12.1548   44.5141   68.5634 C   0  0  0  0  0  0  0  0  0  0  0  0
   10.9190   43.8806   68.5649 C   0  0  0  0  0  0  0  0  0  0  0  0
   13.0825   44.0872   67.8805 O   0  0  0  0  0  0  0  0  0  0  0  0
   11.2586   42.7746   66.5243 C   0  0  0  0  0  0  0  0  0  0  0  0
   10.6647   42.8112   67.7134 N   0  0  0  0  0  0  0  0  0  0  0  0
   11.0270   43.6417   65.6847 O   0  0  0  0  0  0  0  0  0  0  0  0
    9.6051   41.8538   68.0492 C   0  0  2  0  0  0  0  0  0  0  0  0
    8.3333   42.6310   68.3983 C   0  0  0  0  0  0  0  0  0  0  0  0
    9.8783   44.3913   69.3287 C   0  0  0  0  0  0  0  0  0  0  0  0
    8.6212   43.7778   69.2947 N   0  0  0  0  0  0  0  0  0  0  0  0
   10.0299   40.9758   69.2313 C   0  0  0  0  0  0  0  0  0  0  0  0
    8.8512   40.3145   69.8044 N   0  0  0  0  0  0  0  0  0  0  0  0
    7.1069   41.5889   73.3296 C   0  0  0  0  0  0  0  0  0  0  0  0
    6.5674   41.9486   72.0969 C   0  0  0  0  0  0  0  0  0  0  0  0
    7.1722   41.5323   70.9125 C   0  0  0  0  0  0  0  0  0  0  0  0
    8.2966   40.7146   70.9482 C   0  0  0  0  0  0  0  0  0  0  0  0
    8.8314   40.3471   72.1783 C   0  0  0  0  0  0  0  0  0  0  0  0
    8.2480   40.7924   73.3636 C   0  0  0  0  0  0  0  0  0  0  0  0
    4.5251   40.2547   77.2054 C   0  0  0  0  0  0  0  0  0  0  0  0
  1  3  1  0  0  0  0
  2  1  1  6  0  0  0
  2  6  1  0  0  0  0
  2 34  1  0  0  0  0
  3  4  2  0  0  0  0
  3 28  1  0  0  0  0
  5 13  1  0  0  0  0
  6  7  1  0  0  0  0
  7  8  1  0  0  0  0
  8  9  1  0  0  0  0
  8 10  1  0  0  0  0
 11 13  2  0  0  0  0
 11 24  1  0  0  0  0
 12 34  1  0  0  0  0
 13 15  1  0  0  0  0
 14 34  1  0  0  0  0
 15 16  1  0  0  0  0
 16 17  1  0  0  0  0
 16 18  2  0  0  0  0
 17 20  1  0  0  0  0
 17 24  2  0  0  0  0
 19 21  1  0  0  0  0
 19 20  1  0  0  0  0
 20 22  1  0  0  0  0
 22 23  1  0  0  0  0
 22 26  1  1  0  0  0
 23 25  1  0  0  0  0
 24 25  1  0  0  0  0
 26 27  1  0  0  0  0
 27 31  1  0  0  0  0
 28 29  2  0  0  0  0
 28 33  1  0  0  0  0
 29 30  1  0  0  0  0
 30 31  2  0  0  0  0
 31 32  1  0  0  0  0
 32 33  2  0  0  0  0
M  END
>  <CHROM.1>
91.66856181,-60.55315121,142.10486539,-179.34746074,91.42212436,-63.40184211
163.43475703,-104.17300124,98.75706243,91.62824588,7.79345393,42.80791472
71.89430815,-2.93044392,0.83116683,-0.06827749

>  <Name>
ligand

>  <RI>
0

>  <Rbt.Current_Directory>
/home/itssahil/PROJECTS/Mol_Feturizer/New_Systems/rnas/3SUH

>  <Rbt.Executable>
rbdock ($Id: //depot/dev/client3/rdock/2013.1/src/exe/rbdock.cxx#4 $)

>  <Rbt.Library>
libRbt.so (2013.1, Build901 2013/11/27)

>  <Rbt.Parameter_File>
/export/apps/rDock/src/rDock_2013.1_src/data/scripts/dock_solv.prm

>  <Rbt.Receptor>
prm/pocket_docking_5.prm

>  <SCORE>
-11.7246

>  <SCORE.INTER>
-9.15161

>  <SCORE.INTER.CONST>
1

>  <SCORE.INTER.POLAR>
0

>  <SCORE.INTER.ROT>
10

>  <SCORE.INTER.SOLV>
17.3374

>  <SCORE.INTER.VDW>
-22.1469

>  <SCORE.INTER.norm>
-0.269165

>  <SCORE.INTRA>
-2.57297

>  <SCORE.INTRA.DIHEDRAL>
-3.30306

>  <SCORE.INTRA.DIHEDRAL.0>
12.2703

>  <SCORE.INTRA.POLAR>
0

>  <SCORE.INTRA.POLAR.0>
0

>  <SCORE.INTRA.REPUL>
0

>  <SCORE.INTRA.REPUL.0>
0

>  <SCORE.INTRA.SOLV>
0.353185

>  <SCORE.INTRA.SOLV.lig_0>
-64.3214

>  <SCORE.INTRA.VDW>
-1.09804

>  <SCORE.INTRA.VDW.0>
-1.67301

>  <SCORE.INTRA.norm>
-0.0756757

>  <SCORE.RESTR>
0

>  <SCORE.RESTR.CAVITY>
0

>  <SCORE.RESTR.norm>
0

>  <SCORE.SYSTEM>
0

>  <SCORE.SYSTEM.CONST>
0

>  <SCORE.SYSTEM.DIHEDRAL>
0

>  <SCORE.SYSTEM.SOLV>
0

>  <SCORE.SYSTEM.norm>
0

>  <SCORE.heavy>
34

>  <SCORE.norm>
-0.344841

>  <RMSD>
4.092

$$$$
ligand
 OpenBabel11021811483D
libRbt.so/2013.1/901 2013/11/27
 34 36  0  0  0  0  0  0  0  0999 V2000
    6.0267   42.7512   74.0487 N   0  0  0  0  0  0  0  0  0  0  0  0
    5.1538   42.3333   75.1704 C   0  0  1  0  0  0  0  0  0  0  0  0
    5.8476   43.8746   73.3417 C   0  0  0  0  0  0  0  0  0  0  0  0
    4.9383   44.6846   73.5422 O   0  0  0  0  0  0  0  0  0  0  0  0
    7.6080   39.7298   71.8981 N   0  0  0  0  0  0  0  0  0  0  0  0
    5.7040   41.0453   75.8057 C   0  0  0  0  0  0  0  0  0  0  0  0
    4.6682   40.3805   76.7226 C   0  0  0  0  0  0  0  0  0  0  0  0
    4.4214   41.2212   77.9845 C   0  0  0  0  0  0  0  0  0  0  0  0
    3.2593   41.6546   78.1651 O   0  0  0  0  0  0  0  0  0  0  0  0
    5.4004   41.4100   78.7426 O   0  0  0  0  0  0  0  0  0  0  0  0
    9.5744   40.7645   71.2493 N   0  0  0  0  0  0  0  0  0  0  0  0
    6.0801   43.8222   76.8053 O   0  0  0  0  0  0  0  0  0  0  0  0
    8.2873   40.4558   71.0139 C   0  0  0  0  0  0  0  0  0  0  0  0
    3.8701   43.8580   76.4830 O   0  0  0  0  0  0  0  0  0  0  0  0
    7.6498   40.8906   69.8451 N   0  0  0  0  0  0  0  0  0  0  0  0
    8.3671   41.6517   68.9320 C   0  0  0  0  0  0  0  0  0  0  0  0
    9.6852   41.9799   69.2207 C   0  0  0  0  0  0  0  0  0  0  0  0
    7.8268   42.0533   67.9044 O   0  0  0  0  0  0  0  0  0  0  0  0
   10.2514   42.5020   67.0051 C   0  0  0  0  0  0  0  0  0  0  0  0
   10.4625   42.6810   68.3056 N   0  0  0  0  0  0  0  0  0  0  0  0
   11.1280   42.7740   66.1879 O   0  0  0  0  0  0  0  0  0  0  0  0
   11.6232   43.4449   68.7761 C   0  0  2  0  0  0  0  0  0  0  0  0
   12.4669   42.5471   69.6846 C   0  0  0  0  0  0  0  0  0  0  0  0
   10.2825   41.4989   70.3780 C   0  0  0  0  0  0  0  0  0  0  0  0
   11.6239   41.7937   70.6455 N   0  0  0  0  0  0  0  0  0  0  0  0
   11.1699   44.6939   69.5399 C   0  0  0  0  0  0  0  0  0  0  0  0
    9.7312   44.9030   69.3357 N   0  0  0  0  0  0  0  0  0  0  0  0
    6.9110   44.1263   72.2574 C   0  0  0  0  0  0  0  0  0  0  0  0
    6.5713   44.0751   70.9076 C   0  0  0  0  0  0  0  0  0  0  0  0
    7.5219   44.3579   69.9287 C   0  0  0  0  0  0  0  0  0  0  0  0
    8.8333   44.6507   70.2875 C   0  0  0  0  0  0  0  0  0  0  0  0
    9.1764   44.6935   71.6346 C   0  0  0  0  0  0  0  0  0  0  0  0
    8.2175   44.4457   72.6159 C   0  0  0  0  0  0  0  0  0  0  0  0
    5.0270   43.4331   76.2448 C   0  0  0  0  0  0  0  0  0  0  0  0
  1  3  1  0  0  0  0
  2  1  1  6  0  0  0
  2  6  1  0  0  0  0
  2 34  1  0  0  0  0
  3  4  2  0  0  0  0
  3 28  1  0  0  0  0
  5 13  1  0  0  0  0
  6  7  1  0  0  0  0
  7  8  1  0  0  0  0
  8  9  1  0  0  0  0
  8 10  1  0  0  0  0
 11 13  2  0  0  0  0
 11 24  1  0  0  0  0
 12 34  1  0  0  0  0
 13 15  1  0  0  0  0
 14 34  1  0  0  0  0
 15 16  1  0  0  0  0
 16 17  1  0  0  0  0
 16 18  2  0  0  0  0
 17 20  1  0  0  0  0
 17 24  2  0  0  0  0
 19 21  1  0  0  0  0
 19 20  1  0  0  0  0
 20 22  1  0  0  0  0
 22 23  1  0  0  0  0
 22 26  1  1  0  0  0
 23 25  1  0  0  0  0
 24 25  1  0  0  0  0
 26 27  1  0  0  0  0
 27 31  1  0  0  0  0
 28 29  2  0  0  0  0
 28 33  1  0  0  0  0
 29 30  1  0  0  0  0
 30 31  2  0  0  0  0
 31 32  1  0  0  0  0
 32 33  2  0  0  0  0
M  END
>  <CHROM.1>
-176.45056280,-165.64299109,-59.48166370,-69.06080138,118.58270283,-158.64727329
-11.70953985,106.12834019,-155.03872352,112.65833689,7.76032339,42.66306304
72.14415439,2.83144908,-0.93731489,2.82512782

>  <Name>
ligand

>  <RI>
0

>  <Rbt.Current_Directory>
/home/itssahil/PROJECTS/Mol_Feturizer/New_Systems/rnas/3SUH

>  <Rbt.Executable>
rbdock ($Id: //depot/dev/client3/rdock/2013.1/src/exe/rbdock.cxx#4 $)

>  <Rbt.Library>
libRbt.so (2013.1, Build901 2013/11/27)

>  <Rbt.Parameter_File>
/export/apps/rDock/src/rDock_2013.1_src/data/scripts/dock_solv.prm

>  <Rbt.Receptor>
prm/pocket_docking_3.prm

>  <SCORE>
-7.56828

>  <SCORE.INTER>
-5.50784

>  <SCORE.INTER.CONST>
1

>  <SCORE.INTER.POLAR>
0

>  <SCORE.INTER.ROT>
10

>  <SCORE.INTER.SOLV>
16.1337

>  <SCORE.INTER.VDW>
-19.3164

>  <SCORE.INTER.norm>
-0.161995

>  <SCORE.INTRA>
-2.06196

>  <SCORE.INTRA.DIHEDRAL>
1.34598

>  <SCORE.INTRA.DIHEDRAL.0>
12.2703

>  <SCORE.INTRA.POLAR>
0

>  <SCORE.INTRA.POLAR.0>
0

>  <SCORE.INTRA.REPUL>
0

>  <SCORE.INTRA.REPUL.0>
0

>  <SCORE.INTRA.SOLV>
1.95162

>  <SCORE.INTRA.SOLV.lig_0>
-64.3214

>  <SCORE.INTRA.VDW>
-3.71076

>  <SCORE.INTRA.VDW.0>
-1.67301

>  <SCORE.INTRA.norm>
-0.0606459

>  <SCORE.RESTR>
0.00152277

>  <SCORE.RESTR.CAVITY>
0.00152277

>  <SCORE.RESTR.norm>
4.47873e-05

>  <SCORE.SYSTEM>
0

>  <SCORE.SYSTEM.CONST>
0

>  <SCORE.SYSTEM.DIHEDRAL>
0

>  <SCORE.SYSTEM.SOLV>
0

>  <SCORE.SYSTEM.norm>
0

>  <SCORE.heavy>
34

>  <SCORE.norm>
-0.222596

>  <RMSD>
4.093

$$$$
ligand
 OpenBabel11021811483D
libRbt.so/2013.1/901 2013/11/27
 34 36  0  0  0  0  0  0  0  0999 V2000
    5.9669   43.2851   73.8849 N   0  0  0  0  0  0  0  0  0  0  0  0
    5.3744   43.5940   75.2071 C   0  0  1  0  0  0  0  0  0  0  0  0
    6.2589   42.0460   73.4686 C   0  0  0  0  0  0  0  0  0  0  0  0
    6.0701   41.0256   74.1368 O   0  0  0  0  0  0  0  0  0  0  0  0
   13.1392   46.3118   71.3134 N   0  0  0  0  0  0  0  0  0  0  0  0
    6.2501   44.6229   75.9419 C   0  0  0  0  0  0  0  0  0  0  0  0
    7.6206   44.0383   76.3097 C   0  0  0  0  0  0  0  0  0  0  0  0
    8.4759   43.7948   75.0570 C   0  0  0  0  0  0  0  0  0  0  0  0
    8.7712   42.6068   74.7879 O   0  0  0  0  0  0  0  0  0  0  0  0
    8.8136   44.8025   74.3941 O   0  0  0  0  0  0  0  0  0  0  0  0
   12.5229   45.2173   69.3690 N   0  0  0  0  0  0  0  0  0  0  0  0
    3.6200   44.7177   74.0210 O   0  0  0  0  0  0  0  0  0  0  0  0
   12.6518   45.2323   70.7071 C   0  0  0  0  0  0  0  0  0  0  0  0
    3.1736   43.9350   76.0648 O   0  0  0  0  0  0  0  0  0  0  0  0
   12.2778   44.1216   71.4741 N   0  0  0  0  0  0  0  0  0  0  0  0
   11.7659   43.0027   70.8310 C   0  0  0  0  0  0  0  0  0  0  0  0
   11.6158   43.0321   69.4508 C   0  0  0  0  0  0  0  0  0  0  0  0
   11.4214   42.0202   71.4830 O   0  0  0  0  0  0  0  0  0  0  0  0
   11.4839   40.7021   69.2143 C   0  0  0  0  0  0  0  0  0  0  0  0
   11.1723   41.9113   68.7576 N   0  0  0  0  0  0  0  0  0  0  0  0
   12.6396   40.4360   69.5366 O   0  0  0  0  0  0  0  0  0  0  0  0
   10.5471   42.0745   67.4406 C   0  0  2  0  0  0  0  0  0  0  0  0
   11.4408   42.9713   66.5801 C   0  0  0  0  0  0  0  0  0  0  0  0
   12.0301   44.1447   68.7312 C   0  0  0  0  0  0  0  0  0  0  0  0
   11.9191   44.1549   67.3364 N   0  0  0  0  0  0  0  0  0  0  0  0
    9.1532   42.6957   67.5814 C   0  0  0  0  0  0  0  0  0  0  0  0
    8.2296   41.7115   68.1589 N   0  0  0  0  0  0  0  0  0  0  0  0
    6.8192   41.9657   72.0370 C   0  0  0  0  0  0  0  0  0  0  0  0
    7.2853   40.7568   71.5261 C   0  0  0  0  0  0  0  0  0  0  0  0
    7.7404   40.6738   70.2117 C   0  0  0  0  0  0  0  0  0  0  0  0
    7.7764   41.8086   69.4083 C   0  0  0  0  0  0  0  0  0  0  0  0
    7.3196   43.0186   69.9197 C   0  0  0  0  0  0  0  0  0  0  0  0
    6.8309   43.0950   71.2232 C   0  0  0  0  0  0  0  0  0  0  0  0
    3.9325   44.1282   75.0837 C   0  0  0  0  0  0  0  0  0  0  0  0
  1  3  1  0  0  0  0
  2  1  1  6  0  0  0
  2  6  1  0  0  0  0
  2 34  1  0  0  0  0
  3  4  2  0  0  0  0
  3 28  1  0  0  0  0
  5 13  1  0  0  0  0
  6  7  1  0  0  0  0
  7  8  1  0  0  0  0
  8  9  1  0  0  0  0
  8 10  1  0  0  0  0
 11 13  2  0  0  0  0
 11 24  1  0  0  0  0
 12 34  1  0  0  0  0
 13 15  1  0  0  0  0
 14 34  1  0  0  0  0
 15 16  1  0  0  0  0
 16 17  1  0  0  0  0
 16 18  2  0  0  0  0
 17 20  1  0  0  0  0
 17 24  2  0  0  0  0
 19 21  1  0  0  0  0
 19 20  1  0  0  0  0
 20 22  1  0  0  0  0
 22 23  1  0  0  0  0
 22 26  1  1  0  0  0
 23 25  1  0  0  0  0
 24 25  1  0  0  0  0
 26 27  1  0  0  0  0
 27 31  1  0  0  0  0
 28 29  2  0  0  0  0
 28 33  1  0  0  0  0
 29 30  1  0  0  0  0
 30 31  2  0  0  0  0
 31 32  1  0  0  0  0
 32 33  2  0  0  0  0
M  END
>  <CHROM.1>
125.59612963,-66.62656469,-27.04961172,68.90757497,-115.32240277,-48.02407911
-71.66137999,107.94090966,-135.82840710,173.73899527,8.87808748,43.05451311
71.55801866,2.43778804,0.37779253,1.06635674

>  <Name>
ligand

>  <RI>
0

>  <Rbt.Current_Directory>
/home/itssahil/PROJECTS/Mol_Feturizer/New_Systems/rnas/3SUH

>  <Rbt.Executable>
rbdock ($Id: //depot/dev/client3/rdock/2013.1/src/exe/rbdock.cxx#4 $)

>  <Rbt.Library>
libRbt.so (2013.1, Build901 2013/11/27)

>  <Rbt.Parameter_File>
/export/apps/rDock/src/rDock_2013.1_src/data/scripts/dock_solv.prm

>  <Rbt.Receptor>
prm/pocket_docking_4.prm

>  <SCORE>
-18.3955

>  <SCORE.INTER>
-14.2636

>  <SCORE.INTER.CONST>
1

>  <SCORE.INTER.POLAR>
0

>  <SCORE.INTER.ROT>
10

>  <SCORE.INTER.SOLV>
20.0209

>  <SCORE.INTER.VDW>
-26.4494

>  <SCORE.INTER.norm>
-0.419519

>  <SCORE.INTRA>
-4.13188

>  <SCORE.INTRA.DIHEDRAL>
-2.56188

>  <SCORE.INTRA.DIHEDRAL.0>
12.2703

>  <SCORE.INTRA.POLAR>
0

>  <SCORE.INTRA.POLAR.0>
0

>  <SCORE.INTRA.REPUL>
0

>  <SCORE.INTRA.REPUL.0>
0

>  <SCORE.INTRA.SOLV>
0.190214

>  <SCORE.INTRA.SOLV.lig_0>
-64.3214

>  <SCORE.INTRA.VDW>
-2.94604

>  <SCORE.INTRA.VDW.0>
-1.67301

>  <SCORE.INTRA.norm>
-0.121526

>  <SCORE.RESTR>
0

>  <SCORE.RESTR.CAVITY>
0

>  <SCORE.RESTR.norm>
0

>  <SCORE.SYSTEM>
0

>  <SCORE.SYSTEM.CONST>
0

>  <SCORE.SYSTEM.DIHEDRAL>
0

>  <SCORE.SYSTEM.SOLV>
0

>  <SCORE.SYSTEM.norm>
0

>  <SCORE.heavy>
34

>  <SCORE.norm>
-0.541044

>  <RMSD>
4.097

$$$$
ligand
 OpenBabel11021811483D
libRbt.so/2013.1/901 2013/11/27
 34 36  0  0  0  0  0  0  0  0999 V2000
    5.5872   42.5612   74.0220 N   0  0  0  0  0  0  0  0  0  0  0  0
    5.0943   42.7332   75.4085 C   0  0  1  0  0  0  0  0  0  0  0  0
    6.8809   42.6077   73.6783 C   0  0  0  0  0  0  0  0  0  0  0  0
    7.8049   42.7998   74.4736 O   0  0  0  0  0  0  0  0  0  0  0  0
   12.6267   46.4178   71.2253 N   0  0  0  0  0  0  0  0  0  0  0  0
    3.6806   43.3383   75.3866 C   0  0  0  0  0  0  0  0  0  0  0  0
    3.6669   44.7179   74.7144 C   0  0  0  0  0  0  0  0  0  0  0  0
    4.6132   45.6945   75.4293 C   0  0  0  0  0  0  0  0  0  0  0  0
    4.3411   45.9887   76.6170 O   0  0  0  0  0  0  0  0  0  0  0  0
    5.5898   46.1236   74.7729 O   0  0  0  0  0  0  0  0  0  0  0  0
   12.1543   45.2012   69.3134 N   0  0  0  0  0  0  0  0  0  0  0  0
    5.3137   40.3496   75.5425 O   0  0  0  0  0  0  0  0  0  0  0  0
   12.1853   45.3002   70.6538 C   0  0  0  0  0  0  0  0  0  0  0  0
    4.8318   41.4679   77.4149 O   0  0  0  0  0  0  0  0  0  0  0  0
   11.7568   44.2377   71.4595 N   0  0  0  0  0  0  0  0  0  0  0  0
   11.2936   43.0784   70.8521 C   0  0  0  0  0  0  0  0  0  0  0  0
   11.2446   43.0209   69.4655 C   0  0  0  0  0  0  0  0  0  0  0  0
   10.9028   42.1367   71.5374 O   0  0  0  0  0  0  0  0  0  0  0  0
   11.1312   40.6800   69.3661 C   0  0  0  0  0  0  0  0  0  0  0  0
   10.8533   41.8569   68.8133 N   0  0  0  0  0  0  0  0  0  0  0  0
   12.2972   40.3281   69.5303 O   0  0  0  0  0  0  0  0  0  0  0  0
   10.3258   41.9346   67.4466 C   0  0  2  0  0  0  0  0  0  0  0  0
   11.2796   42.7805   66.5991 C   0  0  0  0  0  0  0  0  0  0  0  0
   11.7099   44.0885   68.7098 C   0  0  0  0  0  0  0  0  0  0  0  0
   11.7009   44.0112   67.3127 N   0  0  0  0  0  0  0  0  0  0  0  0
    8.9251   42.5565   67.4465 C   0  0  0  0  0  0  0  0  0  0  0  0
    8.0011   41.6932   68.1922 N   0  0  0  0  0  0  0  0  0  0  0  0
    7.1577   42.3497   72.1861 C   0  0  0  0  0  0  0  0  0  0  0  0
    7.1015   43.3930   71.2652 C   0  0  0  0  0  0  0  0  0  0  0  0
    7.4067   43.1688   69.9242 C   0  0  0  0  0  0  0  0  0  0  0  0
    7.7275   41.8899   69.4815 C   0  0  0  0  0  0  0  0  0  0  0  0
    7.7754   40.8451   70.3983 C   0  0  0  0  0  0  0  0  0  0  0  0
    7.5049   41.0754   71.7464 C   0  0  0  0  0  0  0  0  0  0  0  0
    5.0806   41.4011   76.1864 C   0  0  0  0  0  0  0  0  0  0  0  0
  1  3  1  0  0  0  0
  2  1  1  6  0  0  0
  2  6  1  0  0  0  0
  2 34  1  0  0  0  0
  3  4  2  0  0  0  0
  3 28  1  0  0  0  0
  5 13  1  0  0  0  0
  6  7  1  0  0  0  0
  7  8  1  0  0  0  0
  8  9  1  0  0  0  0
  8 10  1  0  0  0  0
 11 13  2  0  0  0  0
 11 24  1  0  0  0  0
 12 34  1  0  0  0  0
 13 15  1  0  0  0  0
 14 34  1  0  0  0  0
 15 16  1  0  0  0  0
 16 17  1  0  0  0  0
 16 18  2  0  0  0  0
 17 20  1  0  0  0  0
 17 24  2  0  0  0  0
 19 21  1  0  0  0  0
 19 20  1  0  0  0  0
 20 22  1  0  0  0  0
 22 23  1  0  0  0  0
 22 26  1  1  0  0  0
 23 25  1  0  0  0  0
 24 25  1  0  0  0  0
 26 27  1  0  0  0  0
 27 31  1  0  0  0  0
 28 29  2  0  0  0  0
 28 33  1  0  0  0  0
 29 30  1  0  0  0  0
 30 31  2  0  0  0  0
 31 32  1  0  0  0  0
 32 33  2  0  0  0  0
M  END
>  <CHROM.1>
150.80930114,-60.78081858,-8.43846338,-58.25733906,-63.70414018,-63.39211951
-63.32235607,94.88019813,47.66956234,85.96908990,8.37447504,42.99449051,71.75044425
2.70934031,0.71931303,0.54959871

>  <Name>
ligand

>  <RI>
0

>  <Rbt.Current_Directory>
/home/itssahil/PROJECTS/Mol_Feturizer/New_Systems/rnas/3SUH

>  <Rbt.Executable>
rbdock ($Id: //depot/dev/client3/rdock/2013.1/src/exe/rbdock.cxx#4 $)

>  <Rbt.Library>
libRbt.so (2013.1, Build901 2013/11/27)

>  <Rbt.Parameter_File>
/export/apps/rDock/src/rDock_2013.1_src/data/scripts/dock_solv.prm

>  <Rbt.Receptor>
prm/pocket_docking_4.prm

>  <SCORE>
-17.495

>  <SCORE.INTER>
-11.6114

>  <SCORE.INTER.CONST>
1

>  <SCORE.INTER.POLAR>
0

>  <SCORE.INTER.ROT>
10

>  <SCORE.INTER.SOLV>
17.9017

>  <SCORE.INTER.VDW>
-23.9749

>  <SCORE.INTER.norm>
-0.341513

>  <SCORE.INTRA>
-5.88351

>  <SCORE.INTRA.DIHEDRAL>
-4.51963

>  <SCORE.INTRA.DIHEDRAL.0>
12.2703

>  <SCORE.INTRA.POLAR>
0

>  <SCORE.INTRA.POLAR.0>
0

>  <SCORE.INTRA.REPUL>
0

>  <SCORE.INTRA.REPUL.0>
0

>  <SCORE.INTRA.SOLV>
-0.0681651

>  <SCORE.INTRA.SOLV.lig_0>
-64.3214

>  <SCORE.INTRA.VDW>
-3.58961

>  <SCORE.INTRA.VDW.0>
-1.67301

>  <SCORE.INTRA.norm>
-0.173044

>  <SCORE.RESTR>
0

>  <SCORE.RESTR.CAVITY>
0

>  <SCORE.RESTR.norm>
0

>  <SCORE.SYSTEM>
0

>  <SCORE.SYSTEM.CONST>
0

>  <SCORE.SYSTEM.DIHEDRAL>
0

>  <SCORE.SYSTEM.SOLV>
0

>  <SCORE.SYSTEM.norm>
0

>  <SCORE.heavy>
34

>  <SCORE.norm>
-0.514558

>  <RMSD>
4.104

$$$$
ligand
 OpenBabel11021811483D
libRbt.so/2013.1/901 2013/11/27
 34 36  0  0  0  0  0  0  0  0999 V2000
    4.3499   42.6586   74.9930 N   0  0  0  0  0  0  0  0  0  0  0  0
    3.4898   43.0812   76.1229 C   0  0  1  0  0  0  0  0  0  0  0  0
    5.4694   41.9373   75.1360 C   0  0  0  0  0  0  0  0  0  0  0  0
    5.9106   41.5461   76.2202 O   0  0  0  0  0  0  0  0  0  0  0  0
   11.7994   47.3608   70.8291 N   0  0  0  0  0  0  0  0  0  0  0  0
    4.1151   44.2979   76.8257 C   0  0  0  0  0  0  0  0  0  0  0  0
    4.2450   45.4950   75.8742 C   0  0  0  0  0  0  0  0  0  0  0  0
    5.2303   45.1951   74.7342 C   0  0  0  0  0  0  0  0  0  0  0  0
    4.7640   45.1515   73.5716 O   0  0  0  0  0  0  0  0  0  0  0  0
    6.4293   45.0185   75.0505 O   0  0  0  0  0  0  0  0  0  0  0  0
   10.1523   45.8535   70.2181 N   0  0  0  0  0  0  0  0  0  0  0  0
    1.1403   43.3512   76.5159 O   0  0  0  0  0  0  0  0  0  0  0  0
   11.4317   46.2638   70.1720 C   0  0  0  0  0  0  0  0  0  0  0  0
    1.9141   43.7455   74.4581 O   0  0  0  0  0  0  0  0  0  0  0  0
   12.3863   45.5483   69.4382 N   0  0  0  0  0  0  0  0  0  0  0  0
   11.9921   44.4024   68.7606 C   0  0  0  0  0  0  0  0  0  0  0  0
   10.6700   43.9883   68.8551 C   0  0  0  0  0  0  0  0  0  0  0  0
   12.8132   43.7523   68.1186 O   0  0  0  0  0  0  0  0  0  0  0  0
   10.7532   42.6174   66.9536 C   0  0  0  0  0  0  0  0  0  0  0  0
   10.2146   42.8869   68.1390 N   0  0  0  0  0  0  0  0  0  0  0  0
   10.7919   43.4772   66.0763 O   0  0  0  0  0  0  0  0  0  0  0  0
    9.0245   42.1641   68.6008 C   0  0  2  0  0  0  0  0  0  0  0  0
    7.9102   43.1770   68.8756 C   0  0  0  0  0  0  0  0  0  0  0  0
    9.7540   44.7487   69.5694 C   0  0  0  0  0  0  0  0  0  0  0  0
    8.4129   44.3537   69.6268 N   0  0  0  0  0  0  0  0  0  0  0  0
    9.3401   41.3671   69.8712 C   0  0  0  0  0  0  0  0  0  0  0  0
    8.1440   40.6347   70.3050 N   0  0  0  0  0  0  0  0  0  0  0  0
    6.1704   41.5726   73.8148 C   0  0  0  0  0  0  0  0  0  0  0  0
    6.3632   42.5350   72.8267 C   0  0  0  0  0  0  0  0  0  0  0  0
    7.0470   42.2173   71.6549 C   0  0  0  0  0  0  0  0  0  0  0  0
    7.5058   40.9222   71.4390 C   0  0  0  0  0  0  0  0  0  0  0  0
    7.3063   39.9576   72.4208 C   0  0  0  0  0  0  0  0  0  0  0  0
    6.6536   40.2834   73.6089 C   0  0  0  0  0  0  0  0  0  0  0  0
    2.0575   43.4225   75.6626 C   0  0  0  0  0  0  0  0  0  0  0  0
  1  3  1  0  0  0  0
  2  1  1  6  0  0  0
  2  6  1  0  0  0  0
  2 34  1  0  0  0  0
  3  4  2  0  0  0  0
  3 28  1  0  0  0  0
  5 13  1  0  0  0  0
  6  7  1  0  0  0  0
  7  8  1  0  0  0  0
  8  9  1  0  0  0  0
  8 10  1  0  0  0  0
 11 13  2  0  0  0  0
 11 24  1  0  0  0  0
 12 34  1  0  0  0  0
 13 15  1  0  0  0  0
 14 34  1  0  0  0  0
 15 16  1  0  0  0  0
 16 17  1  0  0  0  0
 16 18  2  0  0  0  0
 17 20  1  0  0  0  0
 17 24  2  0  0  0  0
 19 21  1  0  0  0  0
 19 20  1  0  0  0  0
 20 22  1  0  0  0  0
 22 23  1  0  0  0  0
 22 26  1  1  0  0  0
 23 25  1  0  0  0  0
 24 25  1  0  0  0  0
 26 27  1  0  0  0  0
 27 31  1  0  0  0  0
 28 29  2  0  0  0  0
 28 33  1  0  0  0  0
 29 30  1  0  0  0  0
 30 31  2  0  0  0  0
 31 32  1  0  0  0  0
 32 33  2  0  0  0  0
M  END
>  <CHROM.1>
78.84868917,61.01805697,156.44186610,-65.01467681,115.05599039,-53.85021047
-179.10260999,-113.29550568,55.98392963,46.00851453,7.48972056,43.42348835
71.93223359,2.90974521,0.74499759,0.42247594

>  <Name>
ligand

>  <RI>
0

>  <Rbt.Current_Directory>
/home/itssahil/PROJECTS/Mol_Feturizer/New_Systems/rnas/3SUH

>  <Rbt.Executable>
rbdock ($Id: //depot/dev/client3/rdock/2013.1/src/exe/rbdock.cxx#4 $)

>  <Rbt.Library>
libRbt.so (2013.1, Build901 2013/11/27)

>  <Rbt.Parameter_File>
/export/apps/rDock/src/rDock_2013.1_src/data/scripts/dock_solv.prm

>  <Rbt.Receptor>
prm/pocket_docking_4.prm

>  <SCORE>
-13.9509

>  <SCORE.INTER>
-9.90394

>  <SCORE.INTER.CONST>
1

>  <SCORE.INTER.POLAR>
0

>  <SCORE.INTER.ROT>
10

>  <SCORE.INTER.SOLV>
15.9437

>  <SCORE.INTER.VDW>
-22.1839

>  <SCORE.INTER.norm>
-0.291292

>  <SCORE.INTRA>
-4.04693

>  <SCORE.INTRA.DIHEDRAL>
-4.3448

>  <SCORE.INTRA.DIHEDRAL.0>
12.2703

>  <SCORE.INTRA.POLAR>
0

>  <SCORE.INTRA.POLAR.0>
0

>  <SCORE.INTRA.REPUL>
0

>  <SCORE.INTRA.REPUL.0>
0

>  <SCORE.INTRA.SOLV>
0.263597

>  <SCORE.INTRA.SOLV.lig_0>
-64.3214

>  <SCORE.INTRA.VDW>
-2.00633

>  <SCORE.INTRA.VDW.0>
-1.67301

>  <SCORE.INTRA.norm>
-0.119027

>  <SCORE.RESTR>
0

>  <SCORE.RESTR.CAVITY>
0

>  <SCORE.RESTR.norm>
0

>  <SCORE.SYSTEM>
0

>  <SCORE.SYSTEM.CONST>
0

>  <SCORE.SYSTEM.DIHEDRAL>
0

>  <SCORE.SYSTEM.SOLV>
0

>  <SCORE.SYSTEM.norm>
0

>  <SCORE.heavy>
34

>  <SCORE.norm>
-0.41032

>  <RMSD>
4.112

$$$$
ligand
 OpenBabel11021811483D
libRbt.so/2013.1/901 2013/11/27
 34 36  0  0  0  0  0  0  0  0999 V2000
    5.7356   42.9684   73.6575 N   0  0  0  0  0  0  0  0  0  0  0  0
    5.0735   43.1913   74.9640 C   0  0  1  0  0  0  0  0  0  0  0  0
    6.3944   41.8475   73.3359 C   0  0  0  0  0  0  0  0  0  0  0  0
    6.5256   40.8781   74.0884 O   0  0  0  0  0  0  0  0  0  0  0  0
   12.9987   46.4773   71.3549 N   0  0  0  0  0  0  0  0  0  0  0  0
    6.1008   43.7048   75.9868 C   0  0  0  0  0  0  0  0  0  0  0  0
    6.7673   45.0040   75.5145 C   0  0  0  0  0  0  0  0  0  0  0  0
    7.7498   45.5398   76.5672 C   0  0  0  0  0  0  0  0  0  0  0  0
    7.2834   46.2921   77.4546 O   0  0  0  0  0  0  0  0  0  0  0  0
    8.9458   45.1829   76.4627 O   0  0  0  0  0  0  0  0  0  0  0  0
   12.4937   45.3647   69.3889 N   0  0  0  0  0  0  0  0  0  0  0  0
    2.9269   44.0263   75.6291 O   0  0  0  0  0  0  0  0  0  0  0  0
   12.5714   45.3826   70.7309 C   0  0  0  0  0  0  0  0  0  0  0  0
    4.0081   45.0923   73.9910 O   0  0  0  0  0  0  0  0  0  0  0  0
   12.2064   44.2592   71.4835 N   0  0  0  0  0  0  0  0  0  0  0  0
   11.7573   43.1243   70.8218 C   0  0  0  0  0  0  0  0  0  0  0  0
   11.6586   43.1500   69.4369 C   0  0  0  0  0  0  0  0  0  0  0  0
   11.4218   42.1300   71.4606 O   0  0  0  0  0  0  0  0  0  0  0  0
   11.6146   40.8171   69.1961 C   0  0  0  0  0  0  0  0  0  0  0  0
   11.2798   42.0155   68.7277 N   0  0  0  0  0  0  0  0  0  0  0  0
   10.7505   40.0406   69.5972 O   0  0  0  0  0  0  0  0  0  0  0  0
   10.6997   42.1589   67.3879 C   0  0  2  0  0  0  0  0  0  0  0  0
   11.5945   43.0863   66.5616 C   0  0  0  0  0  0  0  0  0  0  0  0
   12.0620   44.2767   68.7332 C   0  0  0  0  0  0  0  0  0  0  0  0
   12.0036   44.2845   67.3352 N   0  0  0  0  0  0  0  0  0  0  0  0
    9.2813   42.7325   67.4758 C   0  0  0  0  0  0  0  0  0  0  0  0
    8.3705   41.7175   68.0193 N   0  0  0  0  0  0  0  0  0  0  0  0
    6.9561   41.8225   71.9028 C   0  0  0  0  0  0  0  0  0  0  0  0
    7.4290   40.6355   71.3486 C   0  0  0  0  0  0  0  0  0  0  0  0
    7.8854   40.6029   70.0324 C   0  0  0  0  0  0  0  0  0  0  0  0
    7.9159   41.7664   69.2710 C   0  0  0  0  0  0  0  0  0  0  0  0
    7.4523   42.9545   69.8258 C   0  0  0  0  0  0  0  0  0  0  0  0
    6.9623   42.9808   71.1307 C   0  0  0  0  0  0  0  0  0  0  0  0
    3.9012   44.1881   74.8551 C   0  0  0  0  0  0  0  0  0  0  0  0
  1  3  1  0  0  0  0
  2  1  1  6  0  0  0
  2  6  1  0  0  0  0
  2 34  1  0  0  0  0
  3  4  2  0  0  0  0
  3 28  1  0  0  0  0
  5 13  1  0  0  0  0
  6  7  1  0  0  0  0
  7  8  1  0  0  0  0
  8  9  1  0  0  0  0
  8 10  1  0  0  0  0
 11 13  2  0  0  0  0
 11 24  1  0  0  0  0
 12 34  1  0  0  0  0
 13 15  1  0  0  0  0
 14 34  1  0  0  0  0
 15 16  1  0  0  0  0
 16 17  1  0  0  0  0
 16 18  2  0  0  0  0
 17 20  1  0  0  0  0
 17 24  2  0  0  0  0
 19 21  1  0  0  0  0
 19 20  1  0  0  0  0
 20 22  1  0  0  0  0
 22 23  1  0  0  0  0
 22 26  1  1  0  0  0
 23 25  1  0  0  0  0
 24 25  1  0  0  0  0
 26 27  1  0  0  0  0
 27 31  1  0  0  0  0
 28 29  2  0  0  0  0
 28 33  1  0  0  0  0
 29 30  1  0  0  0  0
 30 31  2  0  0  0  0
 31 32  1  0  0  0  0
 32 33  2  0  0  0  0
M  END
>  <CHROM.1>
84.27718661,58.08112937,148.15753950,177.70372152,-87.46807935,112.94971886
-71.61148581,104.81421320,-136.29758510,-167.41205339,8.76518543,43.24908233
71.66884614,2.37522088,0.45970701,0.96016848

>  <Name>
ligand

>  <RI>
0

>  <Rbt.Current_Directory>
/home/itssahil/PROJECTS/Mol_Feturizer/New_Systems/rnas/3SUH

>  <Rbt.Executable>
rbdock ($Id: //depot/dev/client3/rdock/2013.1/src/exe/rbdock.cxx#4 $)

>  <Rbt.Library>
libRbt.so (2013.1, Build901 2013/11/27)

>  <Rbt.Parameter_File>
/export/apps/rDock/src/rDock_2013.1_src/data/scripts/dock_solv.prm

>  <Rbt.Receptor>
prm/pocket_docking_5.prm

>  <SCORE>
-18.1867

>  <SCORE.INTER>
-14.1219

>  <SCORE.INTER.CONST>
1

>  <SCORE.INTER.POLAR>
0

>  <SCORE.INTER.ROT>
10

>  <SCORE.INTER.SOLV>
19.8452

>  <SCORE.INTER.VDW>
-26.2963

>  <SCORE.INTER.norm>
-0.41535

>  <SCORE.INTRA>
-4.06481

>  <SCORE.INTRA.DIHEDRAL>
-3.7101

>  <SCORE.INTRA.DIHEDRAL.0>
12.2703

>  <SCORE.INTRA.POLAR>
0

>  <SCORE.INTRA.POLAR.0>
0

>  <SCORE.INTRA.REPUL>
0

>  <SCORE.INTRA.REPUL.0>
0

>  <SCORE.INTRA.SOLV>
0.210882

>  <SCORE.INTRA.SOLV.lig_0>
-64.3214

>  <SCORE.INTRA.VDW>
-2.3152

>  <SCORE.INTRA.VDW.0>
-1.67301

>  <SCORE.INTRA.norm>
-0.119553

>  <SCORE.RESTR>
0

>  <SCORE.RESTR.CAVITY>
0

>  <SCORE.RESTR.norm>
0

>  <SCORE.SYSTEM>
0

>  <SCORE.SYSTEM.CONST>
0

>  <SCORE.SYSTEM.DIHEDRAL>
0

>  <SCORE.SYSTEM.SOLV>
0

>  <SCORE.SYSTEM.norm>
0

>  <SCORE.heavy>
34

>  <SCORE.norm>
-0.534903

>  <RMSD>
4.113

$$$$
ligand
 OpenBabel11021811483D
libRbt.so/2013.1/901 2013/11/27
 34 36  0  0  0  0  0  0  0  0999 V2000
    5.9703   42.1795   74.2957 N   0  0  0  0  0  0  0  0  0  0  0  0
    5.5890   42.2634   75.7248 C   0  0  1  0  0  0  0  0  0  0  0  0
    7.1160   42.6637   73.7989 C   0  0  0  0  0  0  0  0  0  0  0  0
    7.9794   43.2337   74.4718 O   0  0  0  0  0  0  0  0  0  0  0  0
   12.7253   46.4693   71.1329 N   0  0  0  0  0  0  0  0  0  0  0  0
    4.0711   42.4791   75.8464 C   0  0  0  0  0  0  0  0  0  0  0  0
    3.6443   43.8329   75.2629 C   0  0  0  0  0  0  0  0  0  0  0  0
    2.1190   44.0070   75.3194 C   0  0  0  0  0  0  0  0  0  0  0  0
    1.6377   44.4991   76.3669 O   0  0  0  0  0  0  0  0  0  0  0  0
    1.4676   43.6463   74.3123 O   0  0  0  0  0  0  0  0  0  0  0  0
   12.2081   45.2142   69.2579 N   0  0  0  0  0  0  0  0  0  0  0  0
    6.4067   41.1531   77.6860 O   0  0  0  0  0  0  0  0  0  0  0  0
   12.2534   45.3475   70.5949 C   0  0  0  0  0  0  0  0  0  0  0  0
    5.9045   39.9046   75.9034 O   0  0  0  0  0  0  0  0  0  0  0  0
   11.8080   44.3167   71.4319 N   0  0  0  0  0  0  0  0  0  0  0  0
   11.3130   43.1528   70.8593 C   0  0  0  0  0  0  0  0  0  0  0  0
   11.2503   43.0601   69.4751 C   0  0  0  0  0  0  0  0  0  0  0  0
   10.9071   42.2387   71.5725 O   0  0  0  0  0  0  0  0  0  0  0  0
   11.0827   40.7207   69.4386 C   0  0  0  0  0  0  0  0  0  0  0  0
   10.8267   41.8887   68.8572 N   0  0  0  0  0  0  0  0  0  0  0  0
   12.2318   40.2878   69.4890 O   0  0  0  0  0  0  0  0  0  0  0  0
   10.2889   41.9427   67.4934 C   0  0  2  0  0  0  0  0  0  0  0  0
   11.2541   42.7438   66.6159 C   0  0  0  0  0  0  0  0  0  0  0  0
   11.7330   44.0966   68.6876 C   0  0  0  0  0  0  0  0  0  0  0  0
   11.7098   43.9828   67.2932 N   0  0  0  0  0  0  0  0  0  0  0  0
    8.9028   42.5965   67.4886 C   0  0  0  0  0  0  0  0  0  0  0  0
    7.9649   41.7721   68.2606 N   0  0  0  0  0  0  0  0  0  0  0  0
    7.3184   42.4141   72.2934 C   0  0  0  0  0  0  0  0  0  0  0  0
    7.3105   43.4763   71.3925 C   0  0  0  0  0  0  0  0  0  0  0  0
    7.5492   43.2552   70.0376 C   0  0  0  0  0  0  0  0  0  0  0  0
    7.7536   41.9642   69.5623 C   0  0  0  0  0  0  0  0  0  0  0  0
    7.7530   40.9013   70.4592 C   0  0  0  0  0  0  0  0  0  0  0  0
    7.5497   41.1256   71.8201 C   0  0  0  0  0  0  0  0  0  0  0  0
    6.0017   41.0002   76.5083 C   0  0  0  0  0  0  0  0  0  0  0  0
  1  3  1  0  0  0  0
  2  1  1  6  0  0  0
  2  6  1  0  0  0  0
  2 34  1  0  0  0  0
  3  4  2  0  0  0  0
  3 28  1  0  0  0  0
  5 13  1  0  0  0  0
  6  7  1  0  0  0  0
  7  8  1  0  0  0  0
  8  9  1  0  0  0  0
  8 10  1  0  0  0  0
 11 13  2  0  0  0  0
 11 24  1  0  0  0  0
 12 34  1  0  0  0  0
 13 15  1  0  0  0  0
 14 34  1  0  0  0  0
 15 16  1  0  0  0  0
 16 17  1  0  0  0  0
 16 18  2  0  0  0  0
 17 20  1  0  0  0  0
 17 24  2  0  0  0  0
 19 21  1  0  0  0  0
 19 20  1  0  0  0  0
 20 22  1  0  0  0  0
 22 23  1  0  0  0  0
 22 26  1  1  0  0  0
 23 25  1  0  0  0  0
 24 25  1  0  0  0  0
 26 27  1  0  0  0  0
 27 31  1  0  0  0  0
 28 29  2  0  0  0  0
 28 33  1  0  0  0  0
 29 30  1  0  0  0  0
 30 31  2  0  0  0  0
 31 32  1  0  0  0  0
 32 33  2  0  0  0  0
M  END
>  <CHROM.1>
144.28370056,-65.00993784,142.94034952,176.92186429,87.93656963,-70.32055450
-63.52528631,91.58866061,46.20883686,112.45433288,8.23725113,42.74115390
71.81963386,-2.39445258,-0.12552782,-1.64668223

>  <Name>
ligand

>  <RI>
0

>  <Rbt.Current_Directory>
/home/itssahil/PROJECTS/Mol_Feturizer/New_Systems/rnas/3SUH

>  <Rbt.Executable>
rbdock ($Id: //depot/dev/client3/rdock/2013.1/src/exe/rbdock.cxx#4 $)

>  <Rbt.Library>
libRbt.so (2013.1, Build901 2013/11/27)

>  <Rbt.Parameter_File>
/export/apps/rDock/src/rDock_2013.1_src/data/scripts/dock_solv.prm

>  <Rbt.Receptor>
prm/pocket_docking_4.prm

>  <SCORE>
-16.3701

>  <SCORE.INTER>
-10.3723

>  <SCORE.INTER.CONST>
1

>  <SCORE.INTER.POLAR>
0

>  <SCORE.INTER.ROT>
10

>  <SCORE.INTER.SOLV>
17.632

>  <SCORE.INTER.VDW>
-23.0589

>  <SCORE.INTER.norm>
-0.305069

>  <SCORE.INTRA>
-5.99777

>  <SCORE.INTRA.DIHEDRAL>
-4.38594

>  <SCORE.INTRA.DIHEDRAL.0>
12.2703

>  <SCORE.INTRA.POLAR>
0

>  <SCORE.INTRA.POLAR.0>
0

>  <SCORE.INTRA.REPUL>
0

>  <SCORE.INTRA.REPUL.0>
0

>  <SCORE.INTRA.SOLV>
-0.247303

>  <SCORE.INTRA.SOLV.lig_0>
-64.3214

>  <SCORE.INTRA.VDW>
-3.68115

>  <SCORE.INTRA.VDW.0>
-1.67301

>  <SCORE.INTRA.norm>
-0.176405

>  <SCORE.RESTR>
0

>  <SCORE.RESTR.CAVITY>
0

>  <SCORE.RESTR.norm>
0

>  <SCORE.SYSTEM>
0

>  <SCORE.SYSTEM.CONST>
0

>  <SCORE.SYSTEM.DIHEDRAL>
0

>  <SCORE.SYSTEM.SOLV>
0

>  <SCORE.SYSTEM.norm>
0

>  <SCORE.heavy>
34

>  <SCORE.norm>
-0.481474

>  <RMSD>
4.141

$$$$
ligand
 OpenBabel11021811483D
libRbt.so/2013.1/901 2013/11/27
 34 36  0  0  0  0  0  0  0  0999 V2000
    6.2926   42.5651   74.3709 N   0  0  0  0  0  0  0  0  0  0  0  0
    5.8619   42.8164   75.7660 C   0  0  1  0  0  0  0  0  0  0  0  0
    6.1128   43.4324   73.3662 C   0  0  0  0  0  0  0  0  0  0  0  0
    5.5690   44.5336   73.4875 O   0  0  0  0  0  0  0  0  0  0  0  0
   12.7650   46.4969   71.1338 N   0  0  0  0  0  0  0  0  0  0  0  0
    4.3726   42.4658   75.9217 C   0  0  0  0  0  0  0  0  0  0  0  0
    3.4705   43.5545   75.3249 C   0  0  0  0  0  0  0  0  0  0  0  0
    1.9853   43.1954   75.4842 C   0  0  0  0  0  0  0  0  0  0  0  0
    1.3465   42.9262   74.4399 O   0  0  0  0  0  0  0  0  0  0  0  0
    1.5217   43.1955   76.6477 O   0  0  0  0  0  0  0  0  0  0  0  0
   12.2464   45.2634   69.2450 N   0  0  0  0  0  0  0  0  0  0  0  0
    6.9670   40.8191   76.4990 O   0  0  0  0  0  0  0  0  0  0  0  0
   12.3239   45.3689   70.5830 C   0  0  0  0  0  0  0  0  0  0  0  0
    7.0454   42.6123   77.8283 O   0  0  0  0  0  0  0  0  0  0  0  0
   11.9443   44.3025   71.4077 N   0  0  0  0  0  0  0  0  0  0  0  0
   11.4808   43.1322   70.8219 C   0  0  0  0  0  0  0  0  0  0  0  0
   11.3829   43.0676   69.4382 C   0  0  0  0  0  0  0  0  0  0  0  0
   11.1323   42.1867   71.5246 O   0  0  0  0  0  0  0  0  0  0  0  0
   11.3090   40.7246   69.3520 C   0  0  0  0  0  0  0  0  0  0  0  0
   10.9898   41.8937   68.8051 N   0  0  0  0  0  0  0  0  0  0  0  0
   12.4806   40.3562   69.3967 O   0  0  0  0  0  0  0  0  0  0  0  0
   10.4120   41.9557   67.4581 C   0  0  2  0  0  0  0  0  0  0  0  0
   11.3189   42.8149   66.5734 C   0  0  0  0  0  0  0  0  0  0  0  0
   11.8010   44.1401   68.6621 C   0  0  0  0  0  0  0  0  0  0  0  0
   11.7431   44.0563   67.2666 N   0  0  0  0  0  0  0  0  0  0  0  0
    9.0010   42.5519   67.5062 C   0  0  0  0  0  0  0  0  0  0  0  0
    8.1402   41.7167   68.3527 N   0  0  0  0  0  0  0  0  0  0  0  0
    6.6894   42.9757   72.0138 C   0  0  0  0  0  0  0  0  0  0  0  0
    6.9991   41.6360   71.7926 C   0  0  0  0  0  0  0  0  0  0  0  0
    7.4685   41.2152   70.5499 C   0  0  0  0  0  0  0  0  0  0  0  0
    7.6760   42.1369   69.5291 C   0  0  0  0  0  0  0  0  0  0  0  0
    7.3757   43.4766   69.7511 C   0  0  0  0  0  0  0  0  0  0  0  0
    6.8724   43.8929   70.9828 C   0  0  0  0  0  0  0  0  0  0  0  0
    6.6974   42.0113   76.7826 C   0  0  0  0  0  0  0  0  0  0  0  0
  1  3  1  0  0  0  0
  2  1  1  6  0  0  0
  2  6  1  0  0  0  0
  2 34  1  0  0  0  0
  3  4  2  0  0  0  0
  3 28  1  0  0  0  0
  5 13  1  0  0  0  0
  6  7  1  0  0  0  0
  7  8  1  0  0  0  0
  8  9  1  0  0  0  0
  8 10  1  0  0  0  0
 11 13  2  0  0  0  0
 11 24  1  0  0  0  0
 12 34  1  0  0  0  0
 13 15  1  0  0  0  0
 14 34  1  0  0  0  0
 15 16  1  0  0  0  0
 16 17  1  0  0  0  0
 16 18  2  0  0  0  0
 17 20  1  0  0  0  0
 17 24  2  0  0  0  0
 19 21  1  0  0  0  0
 19 20  1  0  0  0  0
 20 22  1  0  0  0  0
 22 23  1  0  0  0  0
 22 26  1  1  0  0  0
 23 25  1  0  0  0  0
 24 25  1  0  0  0  0
 26 27  1  0  0  0  0
 27 31  1  0  0  0  0
 28 29  2  0  0  0  0
 28 33  1  0  0  0  0
 29 30  1  0  0  0  0
 30 31  2  0  0  0  0
 31 32  1  0  0  0  0
 32 33  2  0  0  0  0
M  END
>  <CHROM.1>
83.02226073,-76.82338691,-42.06452805,179.96438777,-111.64469840,-68.14364563
-60.04108885,111.46115914,-148.12568738,17.84499533,8.21925381,42.90465524
71.79561498,-2.40460240,-0.15589757,-1.69874269

>  <Name>
ligand

>  <RI>
0

>  <Rbt.Current_Directory>
/home/itssahil/PROJECTS/Mol_Feturizer/New_Systems/rnas/3SUH

>  <Rbt.Executable>
rbdock ($Id: //depot/dev/client3/rdock/2013.1/src/exe/rbdock.cxx#4 $)

>  <Rbt.Library>
libRbt.so (2013.1, Build901 2013/11/27)

>  <Rbt.Parameter_File>
/export/apps/rDock/src/rDock_2013.1_src/data/scripts/dock_solv.prm

>  <Rbt.Receptor>
prm/pocket_docking_5.prm

>  <SCORE>
-17.4699

>  <SCORE.INTER>
-13.5711

>  <SCORE.INTER.CONST>
1

>  <SCORE.INTER.POLAR>
0

>  <SCORE.INTER.ROT>
10

>  <SCORE.INTER.SOLV>
18.94

>  <SCORE.INTER.VDW>
-25.6274

>  <SCORE.INTER.norm>
-0.39915

>  <SCORE.INTRA>
-3.89885

>  <SCORE.INTRA.DIHEDRAL>
-3.50403

>  <SCORE.INTRA.DIHEDRAL.0>
12.2703

>  <SCORE.INTRA.POLAR>
0

>  <SCORE.INTRA.POLAR.0>
0

>  <SCORE.INTRA.REPUL>
0

>  <SCORE.INTRA.REPUL.0>
0

>  <SCORE.INTRA.SOLV>
-0.162452

>  <SCORE.INTRA.SOLV.lig_0>
-64.3214

>  <SCORE.INTRA.VDW>
-2.06561

>  <SCORE.INTRA.VDW.0>
-1.67301

>  <SCORE.INTRA.norm>
-0.114672

>  <SCORE.RESTR>
0

>  <SCORE.RESTR.CAVITY>
0

>  <SCORE.RESTR.norm>
0

>  <SCORE.SYSTEM>
0

>  <SCORE.SYSTEM.CONST>
0

>  <SCORE.SYSTEM.DIHEDRAL>
0

>  <SCORE.SYSTEM.SOLV>
0

>  <SCORE.SYSTEM.norm>
0

>  <SCORE.heavy>
34

>  <SCORE.norm>
-0.513822

>  <RMSD>
4.143

$$$$
ligand
 OpenBabel11021811483D
libRbt.so/2013.1/901 2013/11/27
 34 36  0  0  0  0  0  0  0  0999 V2000
    5.3170   41.2655   75.2310 N   0  0  0  0  0  0  0  0  0  0  0  0
    4.8693   40.7062   76.5277 C   0  0  1  0  0  0  0  0  0  0  0  0
    6.3449   40.7794   74.5231 C   0  0  0  0  0  0  0  0  0  0  0  0
    7.0338   39.8159   74.8700 O   0  0  0  0  0  0  0  0  0  0  0  0
   13.0654   40.6867   72.8667 N   0  0  0  0  0  0  0  0  0  0  0  0
    3.5109   41.3144   76.9153 C   0  0  0  0  0  0  0  0  0  0  0  0
    3.6087   42.8326   77.1173 C   0  0  0  0  0  0  0  0  0  0  0  0
    3.9087   43.5518   75.7933 C   0  0  0  0  0  0  0  0  0  0  0  0
    2.9728   43.6375   74.9640 O   0  0  0  0  0  0  0  0  0  0  0  0
    5.0673   44.0025   75.6407 O   0  0  0  0  0  0  0  0  0  0  0  0
   12.3760   41.9513   71.0546 N   0  0  0  0  0  0  0  0  0  0  0  0
    4.3538   38.6419   75.4228 O   0  0  0  0  0  0  0  0  0  0  0  0
   12.1833   40.9231   71.8990 C   0  0  0  0  0  0  0  0  0  0  0  0
    5.0863   38.5517   77.5309 O   0  0  0  0  0  0  0  0  0  0  0  0
   11.0611   40.0946   71.7727 N   0  0  0  0  0  0  0  0  0  0  0  0
   10.1449   40.3539   70.7624 C   0  0  0  0  0  0  0  0  0  0  0  0
   10.3572   41.4430   69.9274 C   0  0  0  0  0  0  0  0  0  0  0  0
    9.1476   39.6475   70.6378 O   0  0  0  0  0  0  0  0  0  0  0  0
    8.9217   40.6811   68.2358 C   0  0  0  0  0  0  0  0  0  0  0  0
    9.5039   41.7005   68.8601 N   0  0  0  0  0  0  0  0  0  0  0  0
    7.7261   40.7228   67.9547 O   0  0  0  0  0  0  0  0  0  0  0  0
    9.4151   43.0596   68.3152 C   0  0  2  0  0  0  0  0  0  0  0  0
   10.8320   43.5813   68.0625 C   0  0  0  0  0  0  0  0  0  0  0  0
   11.5009   42.2164   70.0727 C   0  0  0  0  0  0  0  0  0  0  0  0
   11.7352   43.2865   69.2021 N   0  0  0  0  0  0  0  0  0  0  0  0
    8.6780   43.9824   69.2918 C   0  0  0  0  0  0  0  0  0  0  0  0
    7.3590   43.4186   69.6044 N   0  0  0  0  0  0  0  0  0  0  0  0
    6.5925   41.4908   73.1806 C   0  0  0  0  0  0  0  0  0  0  0  0
    6.5729   42.8812   73.1022 C   0  0  0  0  0  0  0  0  0  0  0  0
    6.8521   43.5249   71.8983 C   0  0  0  0  0  0  0  0  0  0  0  0
    7.1095   42.7843   70.7494 C   0  0  0  0  0  0  0  0  0  0  0  0
    7.1206   41.3956   70.8239 C   0  0  0  0  0  0  0  0  0  0  0  0
    6.8764   40.7512   72.0359 C   0  0  0  0  0  0  0  0  0  0  0  0
    4.7606   39.1679   76.4870 C   0  0  0  0  0  0  0  0  0  0  0  0
  1  3  1  0  0  0  0
  2  1  1  6  0  0  0
  2  6  1  0  0  0  0
  2 34  1  0  0  0  0
  3  4  2  0  0  0  0
  3 28  1  0  0  0  0
  5 13  1  0  0  0  0
  6  7  1  0  0  0  0
  7  8  1  0  0  0  0
  8  9  1  0  0  0  0
  8 10  1  0  0  0  0
 11 13  2  0  0  0  0
 11 24  1  0  0  0  0
 12 34  1  0  0  0  0
 13 15  1  0  0  0  0
 14 34  1  0  0  0  0
 15 16  1  0  0  0  0
 16 17  1  0  0  0  0
 16 18  2  0  0  0  0
 17 20  1  0  0  0  0
 17 24  2  0  0  0  0
 19 21  1  0  0  0  0
 19 20  1  0  0  0  0
 20 22  1  0  0  0  0
 22 23  1  0  0  0  0
 22 26  1  1  0  0  0
 23 25  1  0  0  0  0
 24 25  1  0  0  0  0
 26 27  1  0  0  0  0
 27 31  1  0  0  0  0
 28 29  2  0  0  0  0
 28 33  1  0  0  0  0
 29 30  1  0  0  0  0
 30 31  2  0  0  0  0
 31 32  1  0  0  0  0
 32 33  2  0  0  0  0
M  END
>  <CHROM.1>
-168.65851644,-62.65121069,-36.60370049,67.05854732,73.73484986,134.95711631
-55.59242018,102.42573822,80.26585735,44.85592404,7.65236460,41.58379897
72.43554636,-2.45506210,0.51821185,-0.91872050

>  <Name>
ligand

>  <RI>
0

>  <Rbt.Current_Directory>
/home/itssahil/PROJECTS/Mol_Feturizer/New_Systems/rnas/3SUH

>  <Rbt.Executable>
rbdock ($Id: //depot/dev/client3/rdock/2013.1/src/exe/rbdock.cxx#4 $)

>  <Rbt.Library>
libRbt.so (2013.1, Build901 2013/11/27)

>  <Rbt.Parameter_File>
/export/apps/rDock/src/rDock_2013.1_src/data/scripts/dock_solv.prm

>  <Rbt.Receptor>
prm/pocket_docking_3.prm

>  <SCORE>
-13.0967

>  <SCORE.INTER>
-7.89609

>  <SCORE.INTER.CONST>
1

>  <SCORE.INTER.POLAR>
0

>  <SCORE.INTER.ROT>
10

>  <SCORE.INTER.SOLV>
14.8009

>  <SCORE.INTER.VDW>
-20.4644

>  <SCORE.INTER.norm>
-0.232238

>  <SCORE.INTRA>
-5.20062

>  <SCORE.INTRA.DIHEDRAL>
-4.70657

>  <SCORE.INTRA.DIHEDRAL.0>
12.2703

>  <SCORE.INTRA.POLAR>
0

>  <SCORE.INTRA.POLAR.0>
0

>  <SCORE.INTRA.REPUL>
0

>  <SCORE.INTRA.REPUL.0>
0

>  <SCORE.INTRA.SOLV>
1.45055

>  <SCORE.INTRA.SOLV.lig_0>
-64.3214

>  <SCORE.INTRA.VDW>
-3.57261

>  <SCORE.INTRA.VDW.0>
-1.67301

>  <SCORE.INTRA.norm>
-0.152959

>  <SCORE.RESTR>
0

>  <SCORE.RESTR.CAVITY>
0

>  <SCORE.RESTR.norm>
0

>  <SCORE.SYSTEM>
0

>  <SCORE.SYSTEM.CONST>
0

>  <SCORE.SYSTEM.DIHEDRAL>
0

>  <SCORE.SYSTEM.SOLV>
0

>  <SCORE.SYSTEM.norm>
0

>  <SCORE.heavy>
34

>  <SCORE.norm>
-0.385197

>  <RMSD>
4.148

$$$$
ligand
 OpenBabel11021811483D
libRbt.so/2013.1/901 2013/11/27
 34 36  0  0  0  0  0  0  0  0999 V2000
    5.8724   43.4047   73.8237 N   0  0  0  0  0  0  0  0  0  0  0  0
    5.2698   43.7338   75.1364 C   0  0  1  0  0  0  0  0  0  0  0  0
    6.2380   42.1690   73.4585 C   0  0  0  0  0  0  0  0  0  0  0  0
    6.1165   41.1690   74.1716 O   0  0  0  0  0  0  0  0  0  0  0  0
   13.1286   46.2494   71.3331 N   0  0  0  0  0  0  0  0  0  0  0  0
    5.9057   45.0185   75.6934 C   0  0  0  0  0  0  0  0  0  0  0  0
    7.3946   44.8210   76.0090 C   0  0  0  0  0  0  0  0  0  0  0  0
    8.0005   46.0815   76.6446 C   0  0  0  0  0  0  0  0  0  0  0  0
    8.3943   46.9819   75.8665 O   0  0  0  0  0  0  0  0  0  0  0  0
    8.0543   46.1183   77.8954 O   0  0  0  0  0  0  0  0  0  0  0  0
   12.5172   45.1642   69.3820 N   0  0  0  0  0  0  0  0  0  0  0  0
    3.0340   43.3031   75.8874 O   0  0  0  0  0  0  0  0  0  0  0  0
   12.6320   45.1772   70.7214 C   0  0  0  0  0  0  0  0  0  0  0  0
    3.3101   44.6400   74.1195 O   0  0  0  0  0  0  0  0  0  0  0  0
   12.2335   44.0722   71.4842 N   0  0  0  0  0  0  0  0  0  0  0  0
   11.7122   42.9609   70.8354 C   0  0  0  0  0  0  0  0  0  0  0  0
   11.5774   42.9925   69.4537 C   0  0  0  0  0  0  0  0  0  0  0  0
   11.3463   41.9836   71.4836 O   0  0  0  0  0  0  0  0  0  0  0  0
   11.4138   40.6647   69.2154 C   0  0  0  0  0  0  0  0  0  0  0  0
   11.1249   41.8784   68.7556 N   0  0  0  0  0  0  0  0  0  0  0  0
   12.5827   40.3205   69.3757 O   0  0  0  0  0  0  0  0  0  0  0  0
   10.5164   42.0508   67.4319 C   0  0  2  0  0  0  0  0  0  0  0  0
   11.4324   42.9344   66.5813 C   0  0  0  0  0  0  0  0  0  0  0  0
   12.0157   44.0989   68.7387 C   0  0  0  0  0  0  0  0  0  0  0  0
   11.9198   44.1107   67.3428 N   0  0  0  0  0  0  0  0  0  0  0  0
    9.1303   42.6924   67.5579 C   0  0  0  0  0  0  0  0  0  0  0  0
    8.1926   41.7307   68.1505 N   0  0  0  0  0  0  0  0  0  0  0  0
    6.7938   42.0613   72.0270 C   0  0  0  0  0  0  0  0  0  0  0  0
    7.2796   40.8479   71.5458 C   0  0  0  0  0  0  0  0  0  0  0  0
    7.7307   40.7386   70.2320 C   0  0  0  0  0  0  0  0  0  0  0  0
    7.7429   41.8523   69.3990 C   0  0  0  0  0  0  0  0  0  0  0  0
    7.2664   43.0670   69.8806 C   0  0  0  0  0  0  0  0  0  0  0  0
    6.7817   43.1688   71.1838 C   0  0  0  0  0  0  0  0  0  0  0  0
    3.7396   43.9062   75.0429 C   0  0  0  0  0  0  0  0  0  0  0  0
  1  3  1  0  0  0  0
  2  1  1  6  0  0  0
  2  6  1  0  0  0  0
  2 34  1  0  0  0  0
  3  4  2  0  0  0  0
  3 28  1  0  0  0  0
  5 13  1  0  0  0  0
  6  7  1  0  0  0  0
  7  8  1  0  0  0  0
  8  9  1  0  0  0  0
  8 10  1  0  0  0  0
 11 13  2  0  0  0  0
 11 24  1  0  0  0  0
 12 34  1  0  0  0  0
 13 15  1  0  0  0  0
 14 34  1  0  0  0  0
 15 16  1  0  0  0  0
 16 17  1  0  0  0  0
 16 18  2  0  0  0  0
 17 20  1  0  0  0  0
 17 24  2  0  0  0  0
 19 21  1  0  0  0  0
 19 20  1  0  0  0  0
 20 22  1  0  0  0  0
 22 23  1  0  0  0  0
 22 26  1  1  0  0  0
 23 25  1  0  0  0  0
 24 25  1  0  0  0  0
 26 27  1  0  0  0  0
 27 31  1  0  0  0  0
 28 29  2  0  0  0  0
 28 33  1  0  0  0  0
 29 30  1  0  0  0  0
 30 31  2  0  0  0  0
 31 32  1  0  0  0  0
 32 33  2  0  0  0  0
M  END
>  <CHROM.1>
136.64148573,-65.31031651,131.52623103,-176.51551511,-84.42073963,-58.09732067
-70.52101519,107.59908218,-133.78830633,176.42794823,8.76305672,43.32305759
71.72838535,2.35487600,0.40873868,0.96700167

>  <Name>
ligand

>  <RI>
0

>  <Rbt.Current_Directory>
/home/itssahil/PROJECTS/Mol_Feturizer/New_Systems/rnas/3SUH

>  <Rbt.Executable>
rbdock ($Id: //depot/dev/client3/rdock/2013.1/src/exe/rbdock.cxx#4 $)

>  <Rbt.Library>
libRbt.so (2013.1, Build901 2013/11/27)

>  <Rbt.Parameter_File>
/export/apps/rDock/src/rDock_2013.1_src/data/scripts/dock_solv.prm

>  <Rbt.Receptor>
prm/pocket_docking_8.prm

>  <SCORE>
-18.4431

>  <SCORE.INTER>
-14.172

>  <SCORE.INTER.CONST>
1

>  <SCORE.INTER.POLAR>
0

>  <SCORE.INTER.ROT>
10

>  <SCORE.INTER.SOLV>
20.5403

>  <SCORE.INTER.VDW>
-26.5615

>  <SCORE.INTER.norm>
-0.416825

>  <SCORE.INTRA>
-4.27111

>  <SCORE.INTRA.DIHEDRAL>
-3.31172

>  <SCORE.INTRA.DIHEDRAL.0>
12.2703

>  <SCORE.INTRA.POLAR>
0

>  <SCORE.INTRA.POLAR.0>
0

>  <SCORE.INTRA.REPUL>
0

>  <SCORE.INTRA.REPUL.0>
0

>  <SCORE.INTRA.SOLV>
-0.573122

>  <SCORE.INTRA.SOLV.lig_0>
-64.3214

>  <SCORE.INTRA.VDW>
-2.32868

>  <SCORE.INTRA.VDW.0>
-1.67301

>  <SCORE.INTRA.norm>
-0.125621

>  <SCORE.RESTR>
0

>  <SCORE.RESTR.CAVITY>
0

>  <SCORE.RESTR.norm>
0

>  <SCORE.SYSTEM>
0

>  <SCORE.SYSTEM.CONST>
0

>  <SCORE.SYSTEM.DIHEDRAL>
0

>  <SCORE.SYSTEM.SOLV>
0

>  <SCORE.SYSTEM.norm>
0

>  <SCORE.heavy>
34

>  <SCORE.norm>
-0.542446

>  <RMSD>
4.153

$$$$
ligand
 OpenBabel11021811483D
libRbt.so/2013.1/901 2013/11/27
 34 36  0  0  0  0  0  0  0  0999 V2000
    6.0355   42.2932   74.3345 N   0  0  0  0  0  0  0  0  0  0  0  0
    5.6183   42.5019   75.7406 C   0  0  1  0  0  0  0  0  0  0  0  0
    6.1931   43.2843   73.4474 C   0  0  0  0  0  0  0  0  0  0  0  0
    6.0079   44.4783   73.6990 O   0  0  0  0  0  0  0  0  0  0  0  0
   12.8243   46.4729   71.0684 N   0  0  0  0  0  0  0  0  0  0  0  0
    4.0835   42.5498   75.8261 C   0  0  0  0  0  0  0  0  0  0  0  0
    3.5180   43.7992   75.1373 C   0  0  0  0  0  0  0  0  0  0  0  0
    1.9849   43.8382   75.2272 C   0  0  0  0  0  0  0  0  0  0  0  0
    1.3468   43.0925   74.4476 O   0  0  0  0  0  0  0  0  0  0  0  0
    1.4844   44.6115   76.0759 O   0  0  0  0  0  0  0  0  0  0  0  0
   12.2563   45.2326   69.1982 N   0  0  0  0  0  0  0  0  0  0  0  0
    6.3264   40.2551   76.1858 O   0  0  0  0  0  0  0  0  0  0  0  0
   12.3661   45.3440   70.5335 C   0  0  0  0  0  0  0  0  0  0  0  0
    6.3914   41.7296   77.8622 O   0  0  0  0  0  0  0  0  0  0  0  0
   12.0026   44.2827   71.3720 N   0  0  0  0  0  0  0  0  0  0  0  0
   11.5212   43.1114   70.8028 C   0  0  0  0  0  0  0  0  0  0  0  0
   11.3900   43.0409   69.4222 C   0  0  0  0  0  0  0  0  0  0  0  0
   11.1863   42.1704   71.5180 O   0  0  0  0  0  0  0  0  0  0  0  0
   11.3057   40.6979   69.3486 C   0  0  0  0  0  0  0  0  0  0  0  0
   10.9776   41.8656   68.8040 N   0  0  0  0  0  0  0  0  0  0  0  0
   10.4396   39.9640   69.8193 O   0  0  0  0  0  0  0  0  0  0  0  0
   10.3680   41.9236   67.4710 C   0  0  2  0  0  0  0  0  0  0  0  0
   11.2565   42.7754   66.5609 C   0  0  0  0  0  0  0  0  0  0  0  0
   11.7931   44.1083   68.6313 C   0  0  0  0  0  0  0  0  0  0  0  0
   11.7015   44.0184   67.2380 N   0  0  0  0  0  0  0  0  0  0  0  0
    8.9607   42.5251   67.5500 C   0  0  0  0  0  0  0  0  0  0  0  0
    8.0961   41.6553   68.3569 N   0  0  0  0  0  0  0  0  0  0  0  0
    6.6832   42.8315   72.0601 C   0  0  0  0  0  0  0  0  0  0  0  0
    6.7591   43.7382   71.0056 C   0  0  0  0  0  0  0  0  0  0  0  0
    7.2553   43.3400   69.7659 C   0  0  0  0  0  0  0  0  0  0  0  0
    7.6386   42.0199   69.5543 C   0  0  0  0  0  0  0  0  0  0  0  0
    7.5551   41.1110   70.6037 C   0  0  0  0  0  0  0  0  0  0  0  0
    7.0922   41.5169   71.8545 C   0  0  0  0  0  0  0  0  0  0  0  0
    6.1595   41.3991   76.6737 C   0  0  0  0  0  0  0  0  0  0  0  0
  1  3  1  0  0  0  0
  2  1  1  6  0  0  0
  2  6  1  0  0  0  0
  2 34  1  0  0  0  0
  3  4  2  0  0  0  0
  3 28  1  0  0  0  0
  5 13  1  0  0  0  0
  6  7  1  0  0  0  0
  7  8  1  0  0  0  0
  8  9  1  0  0  0  0
  8 10  1  0  0  0  0
 11 13  2  0  0  0  0
 11 24  1  0  0  0  0
 12 34  1  0  0  0  0
 13 15  1  0  0  0  0
 14 34  1  0  0  0  0
 15 16  1  0  0  0  0
 16 17  1  0  0  0  0
 16 18  2  0  0  0  0
 17 20  1  0  0  0  0
 17 24  2  0  0  0  0
 19 21  1  0  0  0  0
 19 20  1  0  0  0  0
 20 22  1  0  0  0  0
 22 23  1  0  0  0  0
 22 26  1  1  0  0  0
 23 25  1  0  0  0  0
 24 25  1  0  0  0  0
 26 27  1  0  0  0  0
 27 31  1  0  0  0  0
 28 29  2  0  0  0  0
 28 33  1  0  0  0  0
 29 30  1  0  0  0  0
 30 31  2  0  0  0  0
 31 32  1  0  0  0  0
 32 33  2  0  0  0  0
M  END
>  <CHROM.1>
85.79214910,-67.69585268,-30.44483791,179.97862730,-77.25881507,113.18594839
-63.32269554,111.30073337,38.24125994,173.44399475,8.08177379,42.85041516
71.76914726,-2.41775802,-0.18371315,-1.73533834

>  <Name>
ligand

>  <RI>
0

>  <Rbt.Current_Directory>
/home/itssahil/PROJECTS/Mol_Feturizer/New_Systems/rnas/3SUH

>  <Rbt.Executable>
rbdock ($Id: //depot/dev/client3/rdock/2013.1/src/exe/rbdock.cxx#4 $)

>  <Rbt.Library>
libRbt.so (2013.1, Build901 2013/11/27)

>  <Rbt.Parameter_File>
/export/apps/rDock/src/rDock_2013.1_src/data/scripts/dock_solv.prm

>  <Rbt.Receptor>
prm/pocket_docking_4.prm

>  <SCORE>
-17.5617

>  <SCORE.INTER>
-13.7188

>  <SCORE.INTER.CONST>
1

>  <SCORE.INTER.POLAR>
0

>  <SCORE.INTER.ROT>
10

>  <SCORE.INTER.SOLV>
19.1179

>  <SCORE.INTER.VDW>
-25.7852

>  <SCORE.INTER.norm>
-0.403494

>  <SCORE.INTRA>
-3.84287

>  <SCORE.INTRA.DIHEDRAL>
-3.84753

>  <SCORE.INTRA.DIHEDRAL.0>
12.2703

>  <SCORE.INTRA.POLAR>
0

>  <SCORE.INTRA.POLAR.0>
0

>  <SCORE.INTRA.REPUL>
0

>  <SCORE.INTRA.REPUL.0>
0

>  <SCORE.INTRA.SOLV>
0.578938

>  <SCORE.INTRA.SOLV.lig_0>
-64.3214

>  <SCORE.INTRA.VDW>
-2.20858

>  <SCORE.INTRA.VDW.0>
-1.67301

>  <SCORE.INTRA.norm>
-0.113026

>  <SCORE.RESTR>
0

>  <SCORE.RESTR.CAVITY>
0

>  <SCORE.RESTR.norm>
0

>  <SCORE.SYSTEM>
0

>  <SCORE.SYSTEM.CONST>
0

>  <SCORE.SYSTEM.DIHEDRAL>
0

>  <SCORE.SYSTEM.SOLV>
0

>  <SCORE.SYSTEM.norm>
0

>  <SCORE.heavy>
34

>  <SCORE.norm>
-0.516519

>  <RMSD>
4.154

$$$$
ligand
 OpenBabel11021811483D
libRbt.so/2013.1/901 2013/11/27
 34 36  0  0  0  0  0  0  0  0999 V2000
    6.1246   43.4406   73.8799 N   0  0  0  0  0  0  0  0  0  0  0  0
    5.6065   43.8158   75.2162 C   0  0  1  0  0  0  0  0  0  0  0  0
    6.2987   42.1759   73.4746 C   0  0  0  0  0  0  0  0  0  0  0  0
    6.0502   41.1841   74.1657 O   0  0  0  0  0  0  0  0  0  0  0  0
   13.0601   46.4515   71.2419 N   0  0  0  0  0  0  0  0  0  0  0  0
    4.2604   43.1159   75.4674 C   0  0  0  0  0  0  0  0  0  0  0  0
    3.6299   43.5630   76.7933 C   0  0  0  0  0  0  0  0  0  0  0  0
    3.3207   45.0678   76.7827 C   0  0  0  0  0  0  0  0  0  0  0  0
    4.1942   45.8348   77.2514 O   0  0  0  0  0  0  0  0  0  0  0  0
    2.2179   45.4185   76.3034 O   0  0  0  0  0  0  0  0  0  0  0  0
   12.4691   45.2995   69.3231 N   0  0  0  0  0  0  0  0  0  0  0  0
    7.2278   42.3776   76.2413 O   0  0  0  0  0  0  0  0  0  0  0  0
   12.5945   45.3489   70.6607 C   0  0  0  0  0  0  0  0  0  0  0  0
    6.7027   44.2817   77.2842 O   0  0  0  0  0  0  0  0  0  0  0  0
   12.2395   44.2501   71.4534 N   0  0  0  0  0  0  0  0  0  0  0  0
   11.7501   43.1068   70.8363 C   0  0  0  0  0  0  0  0  0  0  0  0
   11.6029   43.1003   69.4554 C   0  0  0  0  0  0  0  0  0  0  0  0
   11.4225   42.1338   71.5109 O   0  0  0  0  0  0  0  0  0  0  0  0
   11.5151   40.7632   69.2745 C   0  0  0  0  0  0  0  0  0  0  0  0
   11.1821   41.9551   68.7884 N   0  0  0  0  0  0  0  0  0  0  0  0
   10.6490   39.9898   69.6770 O   0  0  0  0  0  0  0  0  0  0  0  0
   10.5571   42.0751   67.4666 C   0  0  2  0  0  0  0  0  0  0  0  0
   11.4360   42.9676   66.5867 C   0  0  0  0  0  0  0  0  0  0  0  0
   11.9980   44.2029   68.7102 C   0  0  0  0  0  0  0  0  0  0  0  0
   11.8902   44.1777   67.3153 N   0  0  0  0  0  0  0  0  0  0  0  0
    9.1515   42.6732   67.5898 C   0  0  0  0  0  0  0  0  0  0  0  0
    8.2396   41.6778   68.1667 N   0  0  0  0  0  0  0  0  0  0  0  0
    6.7997   42.0298   72.0263 C   0  0  0  0  0  0  0  0  0  0  0  0
    6.8136   43.1267   71.1681 C   0  0  0  0  0  0  0  0  0  0  0  0
    7.3191   43.0059   69.8752 C   0  0  0  0  0  0  0  0  0  0  0  0
    7.7743   41.7762   69.4116 C   0  0  0  0  0  0  0  0  0  0  0  0
    7.7528   40.6776   70.2643 C   0  0  0  0  0  0  0  0  0  0  0  0
    7.2803   40.8058   71.5696 C   0  0  0  0  0  0  0  0  0  0  0  0
    6.5992   43.4589   76.3418 C   0  0  0  0  0  0  0  0  0  0  0  0
  1  3  1  0  0  0  0
  2  1  1  6  0  0  0
  2  6  1  0  0  0  0
  2 34  1  0  0  0  0
  3  4  2  0  0  0  0
  3 28  1  0  0  0  0
  5 13  1  0  0  0  0
  6  7  1  0  0  0  0
  7  8  1  0  0  0  0
  8  9  1  0  0  0  0
  8 10  1  0  0  0  0
 11 13  2  0  0  0  0
 11 24  1  0  0  0  0
 12 34  1  0  0  0  0
 13 15  1  0  0  0  0
 14 34  1  0  0  0  0
 15 16  1  0  0  0  0
 16 17  1  0  0  0  0
 16 18  2  0  0  0  0
 17 20  1  0  0  0  0
 17 24  2  0  0  0  0
 19 21  1  0  0  0  0
 19 20  1  0  0  0  0
 20 22  1  0  0  0  0
 22 23  1  0  0  0  0
 22 26  1  1  0  0  0
 23 25  1  0  0  0  0
 24 25  1  0  0  0  0
 26 27  1  0  0  0  0
 27 31  1  0  0  0  0
 28 29  2  0  0  0  0
 28 33  1  0  0  0  0
 29 30  1  0  0  0  0
 30 31  2  0  0  0  0
 31 32  1  0  0  0  0
 32 33  2  0  0  0  0
M  END
>  <CHROM.1>
-54.38102184,-175.40881977,-38.93721049,62.21710256,-93.44330516,115.78639440
-72.66329143,107.87674042,44.28147437,-11.36421826,8.42684278,43.10679618
71.91082170,2.44060210,0.50014963,0.92157713

>  <Name>
ligand

>  <RI>
0

>  <Rbt.Current_Directory>
/home/itssahil/PROJECTS/Mol_Feturizer/New_Systems/rnas/3SUH

>  <Rbt.Executable>
rbdock ($Id: //depot/dev/client3/rdock/2013.1/src/exe/rbdock.cxx#4 $)

>  <Rbt.Library>
libRbt.so (2013.1, Build901 2013/11/27)

>  <Rbt.Parameter_File>
/export/apps/rDock/src/rDock_2013.1_src/data/scripts/dock_solv.prm

>  <Rbt.Receptor>
prm/pocket_docking_6.prm

>  <SCORE>
-17.2056

>  <SCORE.INTER>
-13.5422

>  <SCORE.INTER.CONST>
1

>  <SCORE.INTER.POLAR>
0

>  <SCORE.INTER.ROT>
10

>  <SCORE.INTER.SOLV>
19.5224

>  <SCORE.INTER.VDW>
-25.8022

>  <SCORE.INTER.norm>
-0.398299

>  <SCORE.INTRA>
-3.66346

>  <SCORE.INTRA.DIHEDRAL>
-3.9214

>  <SCORE.INTRA.DIHEDRAL.0>
12.2703

>  <SCORE.INTRA.POLAR>
0

>  <SCORE.INTRA.POLAR.0>
0

>  <SCORE.INTRA.REPUL>
0

>  <SCORE.INTRA.REPUL.0>
0

>  <SCORE.INTRA.SOLV>
0.462697

>  <SCORE.INTRA.SOLV.lig_0>
-64.3214

>  <SCORE.INTRA.VDW>
-1.93411

>  <SCORE.INTRA.VDW.0>
-1.67301

>  <SCORE.INTRA.norm>
-0.107749

>  <SCORE.RESTR>
0

>  <SCORE.RESTR.CAVITY>
0

>  <SCORE.RESTR.norm>
0

>  <SCORE.SYSTEM>
0

>  <SCORE.SYSTEM.CONST>
0

>  <SCORE.SYSTEM.DIHEDRAL>
0

>  <SCORE.SYSTEM.SOLV>
0

>  <SCORE.SYSTEM.norm>
0

>  <SCORE.heavy>
34

>  <SCORE.norm>
-0.506048

>  <RMSD>
4.165

$$$$
ligand
 OpenBabel11021811483D
libRbt.so/2013.1/901 2013/11/27
 34 36  0  0  0  0  0  0  0  0999 V2000
    5.6149   42.9834   73.7806 N   0  0  0  0  0  0  0  0  0  0  0  0
    4.9962   43.2195   75.1059 C   0  0  1  0  0  0  0  0  0  0  0  0
    6.4998   42.0091   73.5325 C   0  0  0  0  0  0  0  0  0  0  0  0
    6.8998   41.2021   74.3763 O   0  0  0  0  0  0  0  0  0  0  0  0
   12.8242   46.2671   71.3970 N   0  0  0  0  0  0  0  0  0  0  0  0
    5.9472   44.0510   75.9831 C   0  0  0  0  0  0  0  0  0  0  0  0
    6.2784   45.4017   75.3342 C   0  0  0  0  0  0  0  0  0  0  0  0
    7.2811   46.1965   76.1846 C   0  0  0  0  0  0  0  0  0  0  0  0
    8.4608   46.2618   75.7662 O   0  0  0  0  0  0  0  0  0  0  0  0
    6.8449   46.7237   77.2337 O   0  0  0  0  0  0  0  0  0  0  0  0
   12.3178   45.1537   69.4318 N   0  0  0  0  0  0  0  0  0  0  0  0
    3.5000   44.7833   74.0746 O   0  0  0  0  0  0  0  0  0  0  0  0
   12.3738   45.1807   70.7747 C   0  0  0  0  0  0  0  0  0  0  0  0
    2.7551   43.6134   75.8254 O   0  0  0  0  0  0  0  0  0  0  0  0
   11.9623   44.0754   71.5301 N   0  0  0  0  0  0  0  0  0  0  0  0
   11.4895   42.9491   70.8701 C   0  0  0  0  0  0  0  0  0  0  0  0
   11.4145   42.9660   69.4835 C   0  0  0  0  0  0  0  0  0  0  0  0
   11.1132   41.9710   71.5111 O   0  0  0  0  0  0  0  0  0  0  0  0
   11.3029   40.6336   69.2607 C   0  0  0  0  0  0  0  0  0  0  0  0
   11.0128   41.8377   68.7772 N   0  0  0  0  0  0  0  0  0  0  0  0
   12.4724   40.2844   69.4040 O   0  0  0  0  0  0  0  0  0  0  0  0
   10.4595   41.9873   67.4268 C   0  0  2  0  0  0  0  0  0  0  0  0
   11.3958   42.8799   66.6082 C   0  0  0  0  0  0  0  0  0  0  0  0
   11.8637   44.0739   68.7777 C   0  0  0  0  0  0  0  0  0  0  0  0
   11.8286   44.0716   67.3789 N   0  0  0  0  0  0  0  0  0  0  0  0
    9.0581   42.6047   67.4863 C   0  0  0  0  0  0  0  0  0  0  0  0
    8.1262   41.6562   68.1086 N   0  0  0  0  0  0  0  0  0  0  0  0
    6.9669   41.9245   72.0681 C   0  0  0  0  0  0  0  0  0  0  0  0
    7.4287   40.7210   71.5409 C   0  0  0  0  0  0  0  0  0  0  0  0
    7.7986   40.6326   70.2003 C   0  0  0  0  0  0  0  0  0  0  0  0
    7.7535   41.7578   69.3840 C   0  0  0  0  0  0  0  0  0  0  0  0
    7.3012   42.9627   69.9112 C   0  0  0  0  0  0  0  0  0  0  0  0
    6.8971   43.0435   71.2431 C   0  0  0  0  0  0  0  0  0  0  0  0
    3.6341   43.9342   74.9887 C   0  0  0  0  0  0  0  0  0  0  0  0
  1  3  1  0  0  0  0
  2  1  1  6  0  0  0
  2  6  1  0  0  0  0
  2 34  1  0  0  0  0
  3  4  2  0  0  0  0
  3 28  1  0  0  0  0
  5 13  1  0  0  0  0
  6  7  1  0  0  0  0
  7  8  1  0  0  0  0
  8  9  1  0  0  0  0
  8 10  1  0  0  0  0
 11 13  2  0  0  0  0
 11 24  1  0  0  0  0
 12 34  1  0  0  0  0
 13 15  1  0  0  0  0
 14 34  1  0  0  0  0
 15 16  1  0  0  0  0
 16 17  1  0  0  0  0
 16 18  2  0  0  0  0
 17 20  1  0  0  0  0
 17 24  2  0  0  0  0
 19 21  1  0  0  0  0
 19 20  1  0  0  0  0
 20 22  1  0  0  0  0
 22 23  1  0  0  0  0
 22 26  1  1  0  0  0
 23 25  1  0  0  0  0
 24 25  1  0  0  0  0
 26 27  1  0  0  0  0
 27 31  1  0  0  0  0
 28 29  2  0  0  0  0
 28 33  1  0  0  0  0
 29 30  1  0  0  0  0
 30 31  2  0  0  0  0
 31 32  1  0  0  0  0
 32 33  2  0  0  0  0
M  END
>  <CHROM.1>
82.78533734,58.84770532,-35.04691952,-177.27085776,105.73420610,-62.22151931
-67.70585899,100.41159366,-131.57042609,-154.39581232,8.62663556,43.26385085
71.69337434,2.39626879,0.45476734,0.88450672

>  <Name>
ligand

>  <RI>
0

>  <Rbt.Current_Directory>
/home/itssahil/PROJECTS/Mol_Feturizer/New_Systems/rnas/3SUH

>  <Rbt.Executable>
rbdock ($Id: //depot/dev/client3/rdock/2013.1/src/exe/rbdock.cxx#4 $)

>  <Rbt.Library>
libRbt.so (2013.1, Build901 2013/11/27)

>  <Rbt.Parameter_File>
/export/apps/rDock/src/rDock_2013.1_src/data/scripts/dock_solv.prm

>  <Rbt.Receptor>
prm/pocket_docking_5.prm

>  <SCORE>
-18.1872

>  <SCORE.INTER>
-13.3905

>  <SCORE.INTER.CONST>
1

>  <SCORE.INTER.POLAR>
0

>  <SCORE.INTER.ROT>
10

>  <SCORE.INTER.SOLV>
18.7724

>  <SCORE.INTER.VDW>
-25.4512

>  <SCORE.INTER.norm>
-0.393839

>  <SCORE.INTRA>
-4.79671

>  <SCORE.INTRA.DIHEDRAL>
-4.35546

>  <SCORE.INTRA.DIHEDRAL.0>
12.2703

>  <SCORE.INTRA.POLAR>
0

>  <SCORE.INTRA.POLAR.0>
0

>  <SCORE.INTRA.REPUL>
0

>  <SCORE.INTRA.REPUL.0>
0

>  <SCORE.INTRA.SOLV>
-0.424888

>  <SCORE.INTRA.SOLV.lig_0>
-64.3214

>  <SCORE.INTRA.VDW>
-2.40654

>  <SCORE.INTRA.VDW.0>
-1.67301

>  <SCORE.INTRA.norm>
-0.14108

>  <SCORE.RESTR>
0

>  <SCORE.RESTR.CAVITY>
0

>  <SCORE.RESTR.norm>
0

>  <SCORE.SYSTEM>
0

>  <SCORE.SYSTEM.CONST>
0

>  <SCORE.SYSTEM.DIHEDRAL>
0

>  <SCORE.SYSTEM.SOLV>
0

>  <SCORE.SYSTEM.norm>
0

>  <SCORE.heavy>
34

>  <SCORE.norm>
-0.534918

>  <RMSD>
4.180

$$$$
ligand
 OpenBabel11021811483D
libRbt.so/2013.1/901 2013/11/27
 34 36  0  0  0  0  0  0  0  0999 V2000
    5.8562   42.0273   74.2130 N   0  0  0  0  0  0  0  0  0  0  0  0
    5.4241   42.1366   75.6258 C   0  0  1  0  0  0  0  0  0  0  0  0
    6.4926   43.0013   73.5493 C   0  0  0  0  0  0  0  0  0  0  0  0
    6.7883   44.0959   74.0365 O   0  0  0  0  0  0  0  0  0  0  0  0
   12.7774   46.5348   71.0540 N   0  0  0  0  0  0  0  0  0  0  0  0
    4.0083   42.7336   75.6920 C   0  0  0  0  0  0  0  0  0  0  0  0
    3.9710   44.1623   75.1328 C   0  0  0  0  0  0  0  0  0  0  0  0
    2.5284   44.6786   75.0213 C   0  0  0  0  0  0  0  0  0  0  0  0
    1.9676   44.5730   73.9053 O   0  0  0  0  0  0  0  0  0  0  0  0
    2.0169   45.1654   76.0558 O   0  0  0  0  0  0  0  0  0  0  0  0
   12.2551   45.2582   69.1950 N   0  0  0  0  0  0  0  0  0  0  0  0
    5.8575   40.7484   77.5319 O   0  0  0  0  0  0  0  0  0  0  0  0
   12.3183   45.4010   70.5303 C   0  0  0  0  0  0  0  0  0  0  0  0
    5.0618   39.7784   75.6839 O   0  0  0  0  0  0  0  0  0  0  0  0
   11.9052   44.3675   71.3805 N   0  0  0  0  0  0  0  0  0  0  0  0
   11.4234   43.1909   70.8227 C   0  0  0  0  0  0  0  0  0  0  0  0
   11.3412   43.0881   69.4403 C   0  0  0  0  0  0  0  0  0  0  0  0
   11.0456   42.2740   71.5478 O   0  0  0  0  0  0  0  0  0  0  0  0
   11.2168   40.7458   69.4208 C   0  0  0  0  0  0  0  0  0  0  0  0
   10.9302   41.9051   68.8362 N   0  0  0  0  0  0  0  0  0  0  0  0
   12.3649   40.3075   69.4068 O   0  0  0  0  0  0  0  0  0  0  0  0
   10.3706   41.9403   67.4806 C   0  0  2  0  0  0  0  0  0  0  0  0
   11.3071   42.7535   66.5833 C   0  0  0  0  0  0  0  0  0  0  0  0
   11.7923   44.1283   68.6390 C   0  0  0  0  0  0  0  0  0  0  0  0
   11.7499   44.0051   67.2458 N   0  0  0  0  0  0  0  0  0  0  0  0
    8.9726   42.5680   67.4931 C   0  0  0  0  0  0  0  0  0  0  0  0
    8.0524   41.7100   68.2495 N   0  0  0  0  0  0  0  0  0  0  0  0
    6.8890   42.6408   72.1061 C   0  0  0  0  0  0  0  0  0  0  0  0
    6.9141   43.6180   71.1140 C   0  0  0  0  0  0  0  0  0  0  0  0
    7.3266   43.3017   69.8211 C   0  0  0  0  0  0  0  0  0  0  0  0
    7.6753   41.9953   69.4954 C   0  0  0  0  0  0  0  0  0  0  0  0
    7.6423   41.0163   70.4828 C   0  0  0  0  0  0  0  0  0  0  0  0
    7.2638   41.3392   71.7852 C   0  0  0  0  0  0  0  0  0  0  0  0
    5.4500   40.7722   76.3453 C   0  0  0  0  0  0  0  0  0  0  0  0
  1  3  1  0  0  0  0
  2  1  1  6  0  0  0
  2  6  1  0  0  0  0
  2 34  1  0  0  0  0
  3  4  2  0  0  0  0
  3 28  1  0  0  0  0
  5 13  1  0  0  0  0
  6  7  1  0  0  0  0
  7  8  1  0  0  0  0
  8  9  1  0  0  0  0
  8 10  1  0  0  0  0
 11 13  2  0  0  0  0
 11 24  1  0  0  0  0
 12 34  1  0  0  0  0
 13 15  1  0  0  0  0
 14 34  1  0  0  0  0
 15 16  1  0  0  0  0
 16 17  1  0  0  0  0
 16 18  2  0  0  0  0
 17 20  1  0  0  0  0
 17 24  2  0  0  0  0
 19 21  1  0  0  0  0
 19 20  1  0  0  0  0
 20 22  1  0  0  0  0
 22 23  1  0  0  0  0
 22 26  1  1  0  0  0
 23 25  1  0  0  0  0
 24 25  1  0  0  0  0
 26 27  1  0  0  0  0
 27 31  1  0  0  0  0
 28 29  2  0  0  0  0
 28 33  1  0  0  0  0
 29 30  1  0  0  0  0
 30 31  2  0  0  0  0
 31 32  1  0  0  0  0
 32 33  2  0  0  0  0
M  END
>  <CHROM.1>
89.10650998,-63.07510750,140.29277946,172.11529262,-96.33954613,-73.41060183
-65.27633057,102.59866454,43.61459017,147.45436169,8.15962743,42.86779169
71.69613737,-3.11117262,0.73431085,-0.01425853

>  <Name>
ligand

>  <RI>
0

>  <Rbt.Current_Directory>
/home/itssahil/PROJECTS/Mol_Feturizer/New_Systems/rnas/3SUH

>  <Rbt.Executable>
rbdock ($Id: //depot/dev/client3/rdock/2013.1/src/exe/rbdock.cxx#4 $)

>  <Rbt.Library>
libRbt.so (2013.1, Build901 2013/11/27)

>  <Rbt.Parameter_File>
/export/apps/rDock/src/rDock_2013.1_src/data/scripts/dock_solv.prm

>  <Rbt.Receptor>
prm/pocket_docking_5.prm

>  <SCORE>
-18.0379

>  <SCORE.INTER>
-13.3358

>  <SCORE.INTER.CONST>
1

>  <SCORE.INTER.POLAR>
0

>  <SCORE.INTER.ROT>
10

>  <SCORE.INTER.SOLV>
19.2929

>  <SCORE.INTER.VDW>
-25.5882

>  <SCORE.INTER.norm>
-0.39223

>  <SCORE.INTRA>
-4.70209

>  <SCORE.INTRA.DIHEDRAL>
-4.22137

>  <SCORE.INTRA.DIHEDRAL.0>
12.2703

>  <SCORE.INTRA.POLAR>
0

>  <SCORE.INTRA.POLAR.0>
0

>  <SCORE.INTRA.REPUL>
0

>  <SCORE.INTRA.REPUL.0>
0

>  <SCORE.INTRA.SOLV>
-0.189936

>  <SCORE.INTRA.SOLV.lig_0>
-64.3214

>  <SCORE.INTRA.VDW>
-2.49644

>  <SCORE.INTRA.VDW.0>
-1.67301

>  <SCORE.INTRA.norm>
-0.138297

>  <SCORE.RESTR>
0

>  <SCORE.RESTR.CAVITY>
0

>  <SCORE.RESTR.norm>
0

>  <SCORE.SYSTEM>
0

>  <SCORE.SYSTEM.CONST>
0

>  <SCORE.SYSTEM.DIHEDRAL>
0

>  <SCORE.SYSTEM.SOLV>
0

>  <SCORE.SYSTEM.norm>
0

>  <SCORE.heavy>
34

>  <SCORE.norm>
-0.530526

>  <RMSD>
4.180

$$$$
ligand
 OpenBabel11021811483D
libRbt.so/2013.1/901 2013/11/27
 34 36  0  0  0  0  0  0  0  0999 V2000
    7.3258   43.4588   74.3024 N   0  0  0  0  0  0  0  0  0  0  0  0
    7.0503   43.8792   75.6960 C   0  0  1  0  0  0  0  0  0  0  0  0
    6.5797   42.5740   73.6281 C   0  0  0  0  0  0  0  0  0  0  0  0
    5.5838   42.0099   74.0895 O   0  0  0  0  0  0  0  0  0  0  0  0
   12.7661   46.4905   71.1681 N   0  0  0  0  0  0  0  0  0  0  0  0
    5.7466   44.6936   75.7456 C   0  0  0  0  0  0  0  0  0  0  0  0
    5.5354   45.3385   77.1221 C   0  0  0  0  0  0  0  0  0  0  0  0
    4.2524   46.1832   77.1497 C   0  0  0  0  0  0  0  0  0  0  0  0
    3.1753   45.5962   76.8919 O   0  0  0  0  0  0  0  0  0  0  0  0
    4.3767   47.3974   77.4307 O   0  0  0  0  0  0  0  0  0  0  0  0
   12.2547   45.2691   69.2694 N   0  0  0  0  0  0  0  0  0  0  0  0
    5.8668   42.0424   76.6826 O   0  0  0  0  0  0  0  0  0  0  0  0
   12.3289   45.3654   70.6083 C   0  0  0  0  0  0  0  0  0  0  0  0
    7.9679   42.4153   77.3424 O   0  0  0  0  0  0  0  0  0  0  0  0
   11.9500   44.2921   71.4246 N   0  0  0  0  0  0  0  0  0  0  0  0
   11.4907   43.1249   70.8294 C   0  0  0  0  0  0  0  0  0  0  0  0
   11.3960   43.0699   69.4451 C   0  0  0  0  0  0  0  0  0  0  0  0
   11.1429   42.1736   71.5246 O   0  0  0  0  0  0  0  0  0  0  0  0
   11.3279   40.7275   69.3421 C   0  0  0  0  0  0  0  0  0  0  0  0
   11.0071   41.8997   68.8027 N   0  0  0  0  0  0  0  0  0  0  0  0
   10.4523   39.9711   69.7562 O   0  0  0  0  0  0  0  0  0  0  0  0
   10.4322   41.9698   67.4549 C   0  0  2  0  0  0  0  0  0  0  0  0
   11.3390   42.8375   66.5784 C   0  0  0  0  0  0  0  0  0  0  0  0
   11.8132   44.1489   68.6775 C   0  0  0  0  0  0  0  0  0  0  0  0
   11.7587   44.0749   67.2813 N   0  0  0  0  0  0  0  0  0  0  0  0
    9.0197   42.5624   67.5040 C   0  0  0  0  0  0  0  0  0  0  0  0
    8.1312   41.6609   68.2478 N   0  0  0  0  0  0  0  0  0  0  0  0
    7.0283   42.3320   72.1755 C   0  0  0  0  0  0  0  0  0  0  0  0
    7.2252   41.0371   71.7020 C   0  0  0  0  0  0  0  0  0  0  0  0
    7.5772   40.8171   70.3718 C   0  0  0  0  0  0  0  0  0  0  0  0
    7.7799   41.8917   69.5124 C   0  0  0  0  0  0  0  0  0  0  0  0
    7.5924   43.1859   69.9859 C   0  0  0  0  0  0  0  0  0  0  0  0
    7.2056   43.4055   71.3072 C   0  0  0  0  0  0  0  0  0  0  0  0
    6.9506   42.6743   76.6542 C   0  0  0  0  0  0  0  0  0  0  0  0
  1  3  1  0  0  0  0
  2  1  1  6  0  0  0
  2  6  1  0  0  0  0
  2 34  1  0  0  0  0
  3  4  2  0  0  0  0
  3 28  1  0  0  0  0
  5 13  1  0  0  0  0
  6  7  1  0  0  0  0
  7  8  1  0  0  0  0
  8  9  1  0  0  0  0
  8 10  1  0  0  0  0
 11 13  2  0  0  0  0
 11 24  1  0  0  0  0
 12 34  1  0  0  0  0
 13 15  1  0  0  0  0
 14 34  1  0  0  0  0
 15 16  1  0  0  0  0
 16 17  1  0  0  0  0
 16 18  2  0  0  0  0
 17 20  1  0  0  0  0
 17 24  2  0  0  0  0
 19 21  1  0  0  0  0
 19 20  1  0  0  0  0
 20 22  1  0  0  0  0
 22 23  1  0  0  0  0
 22 26  1  1  0  0  0
 23 25  1  0  0  0  0
 24 25  1  0  0  0  0
 26 27  1  0  0  0  0
 27 31  1  0  0  0  0
 28 29  2  0  0  0  0
 28 33  1  0  0  0  0
 29 30  1  0  0  0  0
 30 31  2  0  0  0  0
 31 32  1  0  0  0  0
 32 33  2  0  0  0  0
M  END
>  <CHROM.1>
-67.84044016,-170.93951574,-80.57802122,178.33555417,58.91033752,114.69985029
-64.79842997,101.63984784,-146.40516110,129.19744724,8.59160670,43.25911898
72.03416844,2.39062269,0.65570780,0.78739044

>  <Name>
ligand

>  <RI>
0

>  <Rbt.Current_Directory>
/home/itssahil/PROJECTS/Mol_Feturizer/New_Systems/rnas/3SUH

>  <Rbt.Executable>
rbdock ($Id: //depot/dev/client3/rdock/2013.1/src/exe/rbdock.cxx#4 $)

>  <Rbt.Library>
libRbt.so (2013.1, Build901 2013/11/27)

>  <Rbt.Parameter_File>
/export/apps/rDock/src/rDock_2013.1_src/data/scripts/dock_solv.prm

>  <Rbt.Receptor>
prm/pocket_docking_6.prm

>  <SCORE>
-14.1801

>  <SCORE.INTER>
-10.0764

>  <SCORE.INTER.CONST>
1

>  <SCORE.INTER.POLAR>
0

>  <SCORE.INTER.ROT>
10

>  <SCORE.INTER.SOLV>
16.6761

>  <SCORE.INTER.VDW>
-22.5429

>  <SCORE.INTER.norm>
-0.296364

>  <SCORE.INTRA>
-4.10377

>  <SCORE.INTRA.DIHEDRAL>
-4.35653

>  <SCORE.INTRA.DIHEDRAL.0>
12.2703

>  <SCORE.INTRA.POLAR>
0

>  <SCORE.INTRA.POLAR.0>
0

>  <SCORE.INTRA.REPUL>
0

>  <SCORE.INTRA.REPUL.0>
0

>  <SCORE.INTRA.SOLV>
0.577993

>  <SCORE.INTRA.SOLV.lig_0>
-64.3214

>  <SCORE.INTRA.VDW>
-2.2145

>  <SCORE.INTRA.VDW.0>
-1.67301

>  <SCORE.INTRA.norm>
-0.120699

>  <SCORE.RESTR>
0

>  <SCORE.RESTR.CAVITY>
0

>  <SCORE.RESTR.norm>
0

>  <SCORE.SYSTEM>
0

>  <SCORE.SYSTEM.CONST>
0

>  <SCORE.SYSTEM.DIHEDRAL>
0

>  <SCORE.SYSTEM.SOLV>
0

>  <SCORE.SYSTEM.norm>
0

>  <SCORE.heavy>
34

>  <SCORE.norm>
-0.417063

>  <RMSD>
4.185

$$$$
ligand
 OpenBabel11021811483D
libRbt.so/2013.1/901 2013/11/27
 34 36  0  0  0  0  0  0  0  0999 V2000
    5.9060   43.2686   73.8142 N   0  0  0  0  0  0  0  0  0  0  0  0
    5.3395   43.5999   75.1424 C   0  0  1  0  0  0  0  0  0  0  0  0
    6.2677   42.0333   73.4436 C   0  0  0  0  0  0  0  0  0  0  0  0
    6.1721   41.0356   74.1638 O   0  0  0  0  0  0  0  0  0  0  0  0
   13.1678   46.3924   71.2216 N   0  0  0  0  0  0  0  0  0  0  0  0
    5.9539   44.9124   75.6572 C   0  0  0  0  0  0  0  0  0  0  0  0
    7.4551   44.7615   75.9382 C   0  0  0  0  0  0  0  0  0  0  0  0
    8.2393   44.4957   74.6441 C   0  0  0  0  0  0  0  0  0  0  0  0
    8.3490   45.4475   73.8359 O   0  0  0  0  0  0  0  0  0  0  0  0
    8.7143   43.3467   74.4926 O   0  0  0  0  0  0  0  0  0  0  0  0
   12.5349   45.2671   69.3002 N   0  0  0  0  0  0  0  0  0  0  0  0
    3.3048   44.5037   74.2532 O   0  0  0  0  0  0  0  0  0  0  0  0
   12.6867   45.2989   70.6356 C   0  0  0  0  0  0  0  0  0  0  0  0
    3.1583   43.0312   75.9262 O   0  0  0  0  0  0  0  0  0  0  0  0
   12.3432   44.1913   71.4211 N   0  0  0  0  0  0  0  0  0  0  0  0
   11.8376   43.0576   70.7993 C   0  0  0  0  0  0  0  0  0  0  0  0
   11.6633   43.0693   69.4216 C   0  0  0  0  0  0  0  0  0  0  0  0
   11.5196   42.0773   71.4678 O   0  0  0  0  0  0  0  0  0  0  0  0
   11.5633   40.7351   69.2128 C   0  0  0  0  0  0  0  0  0  0  0  0
   11.2252   41.9343   68.7485 N   0  0  0  0  0  0  0  0  0  0  0  0
   10.7244   40.0151   69.7496 O   0  0  0  0  0  0  0  0  0  0  0  0
   10.5749   42.0733   67.4409 C   0  0  2  0  0  0  0  0  0  0  0  0
   11.4397   42.9740   66.5552 C   0  0  0  0  0  0  0  0  0  0  0  0
   12.0478   44.1801   68.6828 C   0  0  0  0  0  0  0  0  0  0  0  0
   11.9126   44.1730   67.2902 N   0  0  0  0  0  0  0  0  0  0  0  0
    9.1742   42.6747   67.5993 C   0  0  0  0  0  0  0  0  0  0  0  0
    8.2608   41.6631   68.1447 N   0  0  0  0  0  0  0  0  0  0  0  0
    6.7827   41.9226   71.9971 C   0  0  0  0  0  0  0  0  0  0  0  0
    6.8247   43.0445   71.1730 C   0  0  0  0  0  0  0  0  0  0  0  0
    7.3429   42.9543   69.8826 C   0  0  0  0  0  0  0  0  0  0  0  0
    7.7829   41.7316   69.3868 C   0  0  0  0  0  0  0  0  0  0  0  0
    7.7334   40.6083   70.2053 C   0  0  0  0  0  0  0  0  0  0  0  0
    7.2482   40.7050   71.5087 C   0  0  0  0  0  0  0  0  0  0  0  0
    3.8024   43.7234   75.1005 C   0  0  0  0  0  0  0  0  0  0  0  0
  1  3  1  0  0  0  0
  2  1  1  6  0  0  0
  2  6  1  0  0  0  0
  2 34  1  0  0  0  0
  3  4  2  0  0  0  0
  3 28  1  0  0  0  0
  5 13  1  0  0  0  0
  6  7  1  0  0  0  0
  7  8  1  0  0  0  0
  8  9  1  0  0  0  0
  8 10  1  0  0  0  0
 11 13  2  0  0  0  0
 11 24  1  0  0  0  0
 12 34  1  0  0  0  0
 13 15  1  0  0  0  0
 14 34  1  0  0  0  0
 15 16  1  0  0  0  0
 16 17  1  0  0  0  0
 16 18  2  0  0  0  0
 17 20  1  0  0  0  0
 17 24  2  0  0  0  0
 19 21  1  0  0  0  0
 19 20  1  0  0  0  0
 20 22  1  0  0  0  0
 22 23  1  0  0  0  0
 22 26  1  1  0  0  0
 23 25  1  0  0  0  0
 24 25  1  0  0  0  0
 26 27  1  0  0  0  0
 27 31  1  0  0  0  0
 28 29  2  0  0  0  0
 28 33  1  0  0  0  0
 29 30  1  0  0  0  0
 30 31  2  0  0  0  0
 31 32  1  0  0  0  0
 32 33  2  0  0  0  0
M  END
>  <CHROM.1>
138.29956170,-65.96507166,-53.54421537,65.52976942,70.82709778,108.17071702
-74.30879280,109.40376791,43.01005085,-1.15119571,8.77546843,43.09140620
71.48668484,2.51470886,0.47450023,0.93456913

>  <Name>
ligand

>  <RI>
0

>  <Rbt.Current_Directory>
/home/itssahil/PROJECTS/Mol_Feturizer/New_Systems/rnas/3SUH

>  <Rbt.Executable>
rbdock ($Id: //depot/dev/client3/rdock/2013.1/src/exe/rbdock.cxx#4 $)

>  <Rbt.Library>
libRbt.so (2013.1, Build901 2013/11/27)

>  <Rbt.Parameter_File>
/export/apps/rDock/src/rDock_2013.1_src/data/scripts/dock_solv.prm

>  <Rbt.Receptor>
prm/pocket_docking_5.prm

>  <SCORE>
-18.7285

>  <SCORE.INTER>
-14.6282

>  <SCORE.INTER.CONST>
1

>  <SCORE.INTER.POLAR>
0

>  <SCORE.INTER.ROT>
10

>  <SCORE.INTER.SOLV>
20.4961

>  <SCORE.INTER.VDW>
-26.8509

>  <SCORE.INTER.norm>
-0.430243

>  <SCORE.INTRA>
-4.10027

>  <SCORE.INTRA.DIHEDRAL>
-2.58486

>  <SCORE.INTRA.DIHEDRAL.0>
12.2703

>  <SCORE.INTRA.POLAR>
0

>  <SCORE.INTRA.POLAR.0>
0

>  <SCORE.INTRA.REPUL>
0

>  <SCORE.INTRA.REPUL.0>
0

>  <SCORE.INTRA.SOLV>
0.652592

>  <SCORE.INTRA.SOLV.lig_0>
-64.3214

>  <SCORE.INTRA.VDW>
-3.13413

>  <SCORE.INTRA.VDW.0>
-1.67301

>  <SCORE.INTRA.norm>
-0.120596

>  <SCORE.RESTR>
0

>  <SCORE.RESTR.CAVITY>
0

>  <SCORE.RESTR.norm>
0

>  <SCORE.SYSTEM>
0

>  <SCORE.SYSTEM.CONST>
0

>  <SCORE.SYSTEM.DIHEDRAL>
0

>  <SCORE.SYSTEM.SOLV>
0

>  <SCORE.SYSTEM.norm>
0

>  <SCORE.heavy>
34

>  <SCORE.norm>
-0.550839

>  <RMSD>
4.204

$$$$
ligand
 OpenBabel11021811483D
libRbt.so/2013.1/901 2013/11/27
 34 36  0  0  0  0  0  0  0  0999 V2000
    5.6968   42.6099   75.4949 N   0  0  0  0  0  0  0  0  0  0  0  0
    5.3189   42.4163   76.9142 C   0  0  1  0  0  0  0  0  0  0  0  0
    5.4130   43.7133   74.7905 C   0  0  0  0  0  0  0  0  0  0  0  0
    4.8058   44.6886   75.2412 O   0  0  0  0  0  0  0  0  0  0  0  0
   12.9598   40.5126   72.8708 N   0  0  0  0  0  0  0  0  0  0  0  0
    3.9745   41.6742   76.9979 C   0  0  0  0  0  0  0  0  0  0  0  0
    2.8176   42.5413   76.4833 C   0  0  0  0  0  0  0  0  0  0  0  0
    1.4807   41.7885   76.5612 C   0  0  0  0  0  0  0  0  0  0  0  0
    0.9618   41.6597   77.6949 O   0  0  0  0  0  0  0  0  0  0  0  0
    1.0054   41.3603   75.4844 O   0  0  0  0  0  0  0  0  0  0  0  0
   12.3803   41.7892   71.0288 N   0  0  0  0  0  0  0  0  0  0  0  0
    7.2481   40.9980   77.0350 O   0  0  0  0  0  0  0  0  0  0  0  0
   12.0963   40.8076   71.9024 C   0  0  0  0  0  0  0  0  0  0  0  0
    6.3363   41.6982   78.9500 O   0  0  0  0  0  0  0  0  0  0  0  0
   10.8980   40.0888   71.8059 N   0  0  0  0  0  0  0  0  0  0  0  0
   10.0025   40.4087   70.7944 C   0  0  0  0  0  0  0  0  0  0  0  0
   10.3119   41.4493   69.9284 C   0  0  0  0  0  0  0  0  0  0  0  0
    8.9404   39.7993   70.6954 O   0  0  0  0  0  0  0  0  0  0  0  0
    8.7947   40.7853   68.2673 C   0  0  0  0  0  0  0  0  0  0  0  0
    9.4783   41.7597   68.8598 N   0  0  0  0  0  0  0  0  0  0  0  0
    7.5994   40.9247   68.0177 O   0  0  0  0  0  0  0  0  0  0  0  0
    9.5169   43.1059   68.2782 C   0  0  2  0  0  0  0  0  0  0  0  0
   10.9753   43.4806   68.0026 C   0  0  0  0  0  0  0  0  0  0  0  0
   11.5265   42.1115   70.0454 C   0  0  0  0  0  0  0  0  0  0  0  0
   11.8557   43.1301   69.1443 N   0  0  0  0  0  0  0  0  0  0  0  0
    8.8812   44.1217   69.2335 C   0  0  0  0  0  0  0  0  0  0  0  0
    7.4922   43.7363   69.5118 N   0  0  0  0  0  0  0  0  0  0  0  0
    5.9516   43.7097   73.3483 C   0  0  0  0  0  0  0  0  0  0  0  0
    5.9963   44.8877   72.6066 C   0  0  0  0  0  0  0  0  0  0  0  0
    6.5354   44.8935   71.3217 C   0  0  0  0  0  0  0  0  0  0  0  0
    6.9943   43.7127   70.7477 C   0  0  0  0  0  0  0  0  0  0  0  0
    6.9422   42.5337   71.4836 C   0  0  0  0  0  0  0  0  0  0  0  0
    6.4357   42.5336   72.7825 C   0  0  0  0  0  0  0  0  0  0  0  0
    6.3956   41.6372   77.6977 C   0  0  0  0  0  0  0  0  0  0  0  0
  1  3  1  0  0  0  0
  2  1  1  6  0  0  0
  2  6  1  0  0  0  0
  2 34  1  0  0  0  0
  3  4  2  0  0  0  0
  3 28  1  0  0  0  0
  5 13  1  0  0  0  0
  6  7  1  0  0  0  0
  7  8  1  0  0  0  0
  8  9  1  0  0  0  0
  8 10  1  0  0  0  0
 11 13  2  0  0  0  0
 11 24  1  0  0  0  0
 12 34  1  0  0  0  0
 13 15  1  0  0  0  0
 14 34  1  0  0  0  0
 15 16  1  0  0  0  0
 16 17  1  0  0  0  0
 16 18  2  0  0  0  0
 17 20  1  0  0  0  0
 17 24  2  0  0  0  0
 19 21  1  0  0  0  0
 19 20  1  0  0  0  0
 20 22  1  0  0  0  0
 22 23  1  0  0  0  0
 22 26  1  1  0  0  0
 23 25  1  0  0  0  0
 24 25  1  0  0  0  0
 26 27  1  0  0  0  0
 27 31  1  0  0  0  0
 28 29  2  0  0  0  0
 28 33  1  0  0  0  0
 29 30  1  0  0  0  0
 30 31  2  0  0  0  0
 31 32  1  0  0  0  0
 32 33  2  0  0  0  0
M  END
>  <CHROM.1>
93.84030373,-68.02934214,-16.92290746,179.58664261,75.00721587,133.43065003
-58.65328986,132.86176817,82.61897689,-165.57125092,7.40941620,42.22383541
72.71239017,-2.37930040,0.31172328,-1.29450320

>  <Name>
ligand

>  <RI>
0

>  <Rbt.Current_Directory>
/home/itssahil/PROJECTS/Mol_Feturizer/New_Systems/rnas/3SUH

>  <Rbt.Executable>
rbdock ($Id: //depot/dev/client3/rdock/2013.1/src/exe/rbdock.cxx#4 $)

>  <Rbt.Library>
libRbt.so (2013.1, Build901 2013/11/27)

>  <Rbt.Parameter_File>
/export/apps/rDock/src/rDock_2013.1_src/data/scripts/dock_solv.prm

>  <Rbt.Receptor>
prm/pocket_docking_3.prm

>  <SCORE>
-10.1504

>  <SCORE.INTER>
-6.03067

>  <SCORE.INTER.CONST>
1

>  <SCORE.INTER.POLAR>
0

>  <SCORE.INTER.ROT>
10

>  <SCORE.INTER.SOLV>
13.7

>  <SCORE.INTER.VDW>
-18.8538

>  <SCORE.INTER.norm>
-0.177373

>  <SCORE.INTRA>
-4.11969

>  <SCORE.INTRA.DIHEDRAL>
-3.89265

>  <SCORE.INTRA.DIHEDRAL.0>
12.2703

>  <SCORE.INTRA.POLAR>
0

>  <SCORE.INTRA.POLAR.0>
0

>  <SCORE.INTRA.REPUL>
0

>  <SCORE.INTRA.REPUL.0>
0

>  <SCORE.INTRA.SOLV>
0.491103

>  <SCORE.INTRA.SOLV.lig_0>
-64.3214

>  <SCORE.INTRA.VDW>
-2.41891

>  <SCORE.INTRA.VDW.0>
-1.67301

>  <SCORE.INTRA.norm>
-0.121167

>  <SCORE.RESTR>
0

>  <SCORE.RESTR.CAVITY>
0

>  <SCORE.RESTR.norm>
0

>  <SCORE.SYSTEM>
0

>  <SCORE.SYSTEM.CONST>
0

>  <SCORE.SYSTEM.DIHEDRAL>
0

>  <SCORE.SYSTEM.SOLV>
0

>  <SCORE.SYSTEM.norm>
0

>  <SCORE.heavy>
34

>  <SCORE.norm>
-0.29854

>  <RMSD>
4.214

$$$$
ligand
 OpenBabel11021811483D
libRbt.so/2013.1/901 2013/11/27
 34 36  0  0  0  0  0  0  0  0999 V2000
    5.6336   44.0316   73.5241 N   0  0  0  0  0  0  0  0  0  0  0  0
    5.0091   44.5338   74.7702 C   0  0  1  0  0  0  0  0  0  0  0  0
    6.1148   42.7902   73.3777 C   0  0  0  0  0  0  0  0  0  0  0  0
    6.0943   41.9282   74.2608 O   0  0  0  0  0  0  0  0  0  0  0  0
   13.0145   46.4310   71.2275 N   0  0  0  0  0  0  0  0  0  0  0  0
    4.9365   46.0695   74.7332 C   0  0  0  0  0  0  0  0  0  0  0  0
    4.4274   46.6431   76.0626 C   0  0  0  0  0  0  0  0  0  0  0  0
    5.3966   46.3277   77.2121 C   0  0  0  0  0  0  0  0  0  0  0  0
    5.2714   45.2159   77.7772 O   0  0  0  0  0  0  0  0  0  0  0  0
    6.2437   47.2046   77.4988 O   0  0  0  0  0  0  0  0  0  0  0  0
   12.4371   45.2755   69.3066 N   0  0  0  0  0  0  0  0  0  0  0  0
    2.6754   44.3689   74.2464 O   0  0  0  0  0  0  0  0  0  0  0  0
   12.5570   45.3258   70.6447 C   0  0  0  0  0  0  0  0  0  0  0  0
    3.4758   43.0917   75.8947 O   0  0  0  0  0  0  0  0  0  0  0  0
   12.2046   44.2254   71.4362 N   0  0  0  0  0  0  0  0  0  0  0  0
   11.7237   43.0793   70.8174 C   0  0  0  0  0  0  0  0  0  0  0  0
   11.5820   43.0718   69.4360 C   0  0  0  0  0  0  0  0  0  0  0  0
   11.3985   42.1048   71.4910 O   0  0  0  0  0  0  0  0  0  0  0  0
   11.5072   40.7343   69.2552 C   0  0  0  0  0  0  0  0  0  0  0  0
   11.1698   41.9243   68.7676 N   0  0  0  0  0  0  0  0  0  0  0  0
   10.6570   40.0020   69.7566 O   0  0  0  0  0  0  0  0  0  0  0  0
   10.5495   42.0407   67.4433 C   0  0  2  0  0  0  0  0  0  0  0  0
   11.4271   42.9377   66.5666 C   0  0  0  0  0  0  0  0  0  0  0  0
   11.9743   44.1764   68.6921 C   0  0  0  0  0  0  0  0  0  0  0  0
   11.8721   44.1502   67.2968 N   0  0  0  0  0  0  0  0  0  0  0  0
    9.1403   42.6315   67.5608 C   0  0  0  0  0  0  0  0  0  0  0  0
    8.2595   41.6766   68.2447 N   0  0  0  0  0  0  0  0  0  0  0  0
    6.6705   42.4789   71.9763 C   0  0  0  0  0  0  0  0  0  0  0  0
    6.8321   43.4947   71.0373 C   0  0  0  0  0  0  0  0  0  0  0  0
    7.3871   43.2209   69.7888 C   0  0  0  0  0  0  0  0  0  0  0  0
    7.7447   41.9204   69.4494 C   0  0  0  0  0  0  0  0  0  0  0  0
    7.5757   40.9032   70.3827 C   0  0  0  0  0  0  0  0  0  0  0  0
    7.0536   41.1823   71.6449 C   0  0  0  0  0  0  0  0  0  0  0  0
    3.5981   43.9488   74.9859 C   0  0  0  0  0  0  0  0  0  0  0  0
  1  3  1  0  0  0  0
  2  1  1  6  0  0  0
  2  6  1  0  0  0  0
  2 34  1  0  0  0  0
  3  4  2  0  0  0  0
  3 28  1  0  0  0  0
  5 13  1  0  0  0  0
  6  7  1  0  0  0  0
  7  8  1  0  0  0  0
  8  9  1  0  0  0  0
  8 10  1  0  0  0  0
 11 13  2  0  0  0  0
 11 24  1  0  0  0  0
 12 34  1  0  0  0  0
 13 15  1  0  0  0  0
 14 34  1  0  0  0  0
 15 16  1  0  0  0  0
 16 17  1  0  0  0  0
 16 18  2  0  0  0  0
 17 20  1  0  0  0  0
 17 24  2  0  0  0  0
 19 21  1  0  0  0  0
 19 20  1  0  0  0  0
 20 22  1  0  0  0  0
 22 23  1  0  0  0  0
 22 26  1  1  0  0  0
 23 25  1  0  0  0  0
 24 25  1  0  0  0  0
 26 27  1  0  0  0  0
 27 31  1  0  0  0  0
 28 29  2  0  0  0  0
 28 33  1  0  0  0  0
 29 30  1  0  0  0  0
 30 31  2  0  0  0  0
 31 32  1  0  0  0  0
 32 33  2  0  0  0  0
M  END
>  <CHROM.1>
164.08657749,-174.22405331,-72.59578578,63.54236715,-84.94501574,109.68850091
-67.58279418,113.33083895,35.12945890,9.44840912,8.29941815,43.51820979,71.75843091
2.41974696,0.44935576,0.82776104

>  <Name>
ligand

>  <RI>
0

>  <Rbt.Current_Directory>
/home/itssahil/PROJECTS/Mol_Feturizer/New_Systems/rnas/3SUH

>  <Rbt.Executable>
rbdock ($Id: //depot/dev/client3/rdock/2013.1/src/exe/rbdock.cxx#4 $)

>  <Rbt.Library>
libRbt.so (2013.1, Build901 2013/11/27)

>  <Rbt.Parameter_File>
/export/apps/rDock/src/rDock_2013.1_src/data/scripts/dock_solv.prm

>  <Rbt.Receptor>
prm/pocket_docking_7.prm

>  <SCORE>
-18.531

>  <SCORE.INTER>
-14.441

>  <SCORE.INTER.CONST>
1

>  <SCORE.INTER.POLAR>
0

>  <SCORE.INTER.ROT>
10

>  <SCORE.INTER.SOLV>
19.6249

>  <SCORE.INTER.VDW>
-26.4356

>  <SCORE.INTER.norm>
-0.424734

>  <SCORE.INTRA>
-4.09

>  <SCORE.INTRA.DIHEDRAL>
-3.93986

>  <SCORE.INTRA.DIHEDRAL.0>
12.2703

>  <SCORE.INTRA.POLAR>
0

>  <SCORE.INTRA.POLAR.0>
0

>  <SCORE.INTRA.REPUL>
0

>  <SCORE.INTRA.REPUL.0>
0

>  <SCORE.INTRA.SOLV>
0.0188123

>  <SCORE.INTRA.SOLV.lig_0>
-64.3214

>  <SCORE.INTRA.VDW>
-2.12948

>  <SCORE.INTRA.VDW.0>
-1.67301

>  <SCORE.INTRA.norm>
-0.120294

>  <SCORE.RESTR>
0

>  <SCORE.RESTR.CAVITY>
0

>  <SCORE.RESTR.norm>
0

>  <SCORE.SYSTEM>
0

>  <SCORE.SYSTEM.CONST>
0

>  <SCORE.SYSTEM.DIHEDRAL>
0

>  <SCORE.SYSTEM.SOLV>
0

>  <SCORE.SYSTEM.norm>
0

>  <SCORE.heavy>
34

>  <SCORE.norm>
-0.545028

>  <RMSD>
4.219

$$$$
ligand
 OpenBabel11021811483D
libRbt.so/2013.1/901 2013/11/27
 34 36  0  0  0  0  0  0  0  0999 V2000
    6.1858   41.7225   74.0063 N   0  0  0  0  0  0  0  0  0  0  0  0
    5.7629   41.6899   75.4258 C   0  0  1  0  0  0  0  0  0  0  0  0
    7.2993   41.1380   73.5453 C   0  0  0  0  0  0  0  0  0  0  0  0
    8.0967   40.5102   74.2476 O   0  0  0  0  0  0  0  0  0  0  0  0
   12.7831   46.4603   71.2338 N   0  0  0  0  0  0  0  0  0  0  0  0
    4.5673   42.6345   75.6342 C   0  0  0  0  0  0  0  0  0  0  0  0
    4.9986   44.1070   75.6029 C   0  0  0  0  0  0  0  0  0  0  0  0
    5.3860   44.5431   74.1816 C   0  0  0  0  0  0  0  0  0  0  0  0
    6.5516   44.2830   73.8011 O   0  0  0  0  0  0  0  0  0  0  0  0
    4.5067   45.1250   73.5056 O   0  0  0  0  0  0  0  0  0  0  0  0
   12.2974   45.2906   69.2962 N   0  0  0  0  0  0  0  0  0  0  0  0
    5.2183   39.3947   74.9975 O   0  0  0  0  0  0  0  0  0  0  0  0
   12.3522   45.3513   70.6381 C   0  0  0  0  0  0  0  0  0  0  0  0
    5.2804   40.0818   77.1219 O   0  0  0  0  0  0  0  0  0  0  0  0
   11.9598   44.2577   71.4202 N   0  0  0  0  0  0  0  0  0  0  0  0
   11.5073   43.1075   70.7878 C   0  0  0  0  0  0  0  0  0  0  0  0
   11.4327   43.0893   69.4012 C   0  0  0  0  0  0  0  0  0  0  0  0
   11.1479   42.1389   71.4524 O   0  0  0  0  0  0  0  0  0  0  0  0
   11.3623   40.7505   69.2353 C   0  0  0  0  0  0  0  0  0  0  0  0
   11.0513   41.9372   68.7226 N   0  0  0  0  0  0  0  0  0  0  0  0
   12.5375   40.4325   69.4035 O   0  0  0  0  0  0  0  0  0  0  0  0
   10.4962   42.0440   67.3689 C   0  0  2  0  0  0  0  0  0  0  0  0
   11.4170   42.9327   66.5288 C   0  0  0  0  0  0  0  0  0  0  0  0
   11.8628   44.1873   68.6686 C   0  0  0  0  0  0  0  0  0  0  0  0
   11.8284   44.1503   67.2703 N   0  0  0  0  0  0  0  0  0  0  0  0
    9.0841   42.6379   67.4132 C   0  0  0  0  0  0  0  0  0  0  0  0
    8.1482   41.6471   67.9588 N   0  0  0  0  0  0  0  0  0  0  0  0
    7.5055   41.2606   72.0247 C   0  0  0  0  0  0  0  0  0  0  0  0
    7.1211   42.4164   71.3492 C   0  0  0  0  0  0  0  0  0  0  0  0
    7.3591   42.5482   69.9826 C   0  0  0  0  0  0  0  0  0  0  0  0
    7.9431   41.5075   69.2681 C   0  0  0  0  0  0  0  0  0  0  0  0
    8.3194   40.3491   69.9394 C   0  0  0  0  0  0  0  0  0  0  0  0
    8.1141   40.2305   71.3133 C   0  0  0  0  0  0  0  0  0  0  0  0
    5.3896   40.2652   75.8849 C   0  0  0  0  0  0  0  0  0  0  0  0
  1  3  1  0  0  0  0
  2  1  1  6  0  0  0
  2  6  1  0  0  0  0
  2 34  1  0  0  0  0
  3  4  2  0  0  0  0
  3 28  1  0  0  0  0
  5 13  1  0  0  0  0
  6  7  1  0  0  0  0
  7  8  1  0  0  0  0
  8  9  1  0  0  0  0
  8 10  1  0  0  0  0
 11 13  2  0  0  0  0
 11 24  1  0  0  0  0
 12 34  1  0  0  0  0
 13 15  1  0  0  0  0
 14 34  1  0  0  0  0
 15 16  1  0  0  0  0
 16 17  1  0  0  0  0
 16 18  2  0  0  0  0
 17 20  1  0  0  0  0
 17 24  2  0  0  0  0
 19 21  1  0  0  0  0
 19 20  1  0  0  0  0
 20 22  1  0  0  0  0
 22 23  1  0  0  0  0
 22 26  1  1  0  0  0
 23 25  1  0  0  0  0
 24 25  1  0  0  0  0
 26 27  1  0  0  0  0
 27 31  1  0  0  0  0
 28 29  2  0  0  0  0
 28 33  1  0  0  0  0
 29 30  1  0  0  0  0
 30 31  2  0  0  0  0
 31 32  1  0  0  0  0
 32 33  2  0  0  0  0
M  END
>  <CHROM.1>
171.36464440,-73.71188971,-14.12867263,71.12824390,-83.29360617,-61.25974951
-72.25718404,86.39251591,65.23570266,35.63779259,8.70879801,42.46614206,71.49989408
2.93811402,0.80386626,0.48450546

>  <Name>
ligand

>  <RI>
0

>  <Rbt.Current_Directory>
/home/itssahil/PROJECTS/Mol_Feturizer/New_Systems/rnas/3SUH

>  <Rbt.Executable>
rbdock ($Id: //depot/dev/client3/rdock/2013.1/src/exe/rbdock.cxx#4 $)

>  <Rbt.Library>
libRbt.so (2013.1, Build901 2013/11/27)

>  <Rbt.Parameter_File>
/export/apps/rDock/src/rDock_2013.1_src/data/scripts/dock_solv.prm

>  <Rbt.Receptor>
prm/pocket_docking_4.prm

>  <SCORE>
-18.1787

>  <SCORE.INTER>
-12.5146

>  <SCORE.INTER.CONST>
1

>  <SCORE.INTER.POLAR>
0

>  <SCORE.INTER.ROT>
10

>  <SCORE.INTER.SOLV>
18.7196

>  <SCORE.INTER.VDW>
-24.8496

>  <SCORE.INTER.norm>
-0.368075

>  <SCORE.INTRA>
-5.66417

>  <SCORE.INTRA.DIHEDRAL>
-3.72094

>  <SCORE.INTRA.DIHEDRAL.0>
12.2703

>  <SCORE.INTRA.POLAR>
0

>  <SCORE.INTRA.POLAR.0>
0

>  <SCORE.INTRA.REPUL>
0

>  <SCORE.INTRA.REPUL.0>
0

>  <SCORE.INTRA.SOLV>
0.124363

>  <SCORE.INTRA.SOLV.lig_0>
-64.3214

>  <SCORE.INTRA.VDW>
-3.86589

>  <SCORE.INTRA.VDW.0>
-1.67301

>  <SCORE.INTRA.norm>
-0.166593

>  <SCORE.RESTR>
0

>  <SCORE.RESTR.CAVITY>
0

>  <SCORE.RESTR.norm>
0

>  <SCORE.SYSTEM>
0

>  <SCORE.SYSTEM.CONST>
0

>  <SCORE.SYSTEM.DIHEDRAL>
0

>  <SCORE.SYSTEM.SOLV>
0

>  <SCORE.SYSTEM.norm>
0

>  <SCORE.heavy>
34

>  <SCORE.norm>
-0.534669

>  <RMSD>
4.246

$$$$
ligand
 OpenBabel11021811483D
libRbt.so/2013.1/901 2013/11/27
 34 36  0  0  0  0  0  0  0  0999 V2000
    6.1213   43.3711   73.9061 N   0  0  0  0  0  0  0  0  0  0  0  0
    5.5554   43.7066   75.2335 C   0  0  1  0  0  0  0  0  0  0  0  0
    6.2923   42.1191   73.4620 C   0  0  0  0  0  0  0  0  0  0  0  0
    6.0008   41.1074   74.1058 O   0  0  0  0  0  0  0  0  0  0  0  0
   13.0565   46.4219   71.2574 N   0  0  0  0  0  0  0  0  0  0  0  0
    6.0046   45.1176   75.6489 C   0  0  0  0  0  0  0  0  0  0  0  0
    7.5180   45.1788   75.8962 C   0  0  0  0  0  0  0  0  0  0  0  0
    8.3041   44.9158   74.6027 C   0  0  0  0  0  0  0  0  0  0  0  0
    8.3082   45.8258   73.7407 O   0  0  0  0  0  0  0  0  0  0  0  0
    8.8861   43.8111   74.5055 O   0  0  0  0  0  0  0  0  0  0  0  0
   12.4700   45.2924   69.3238 N   0  0  0  0  0  0  0  0  0  0  0  0
    3.4797   42.8328   76.0554 O   0  0  0  0  0  0  0  0  0  0  0  0
   12.5917   45.3263   70.6623 C   0  0  0  0  0  0  0  0  0  0  0  0
    3.4064   44.3596   74.4268 O   0  0  0  0  0  0  0  0  0  0  0  0
   12.2337   44.2188   71.4413 N   0  0  0  0  0  0  0  0  0  0  0  0
   11.7453   43.0829   70.8098 C   0  0  0  0  0  0  0  0  0  0  0  0
   11.6019   43.0924   69.4285 C   0  0  0  0  0  0  0  0  0  0  0  0
   11.4151   42.1026   71.4723 O   0  0  0  0  0  0  0  0  0  0  0  0
   11.5130   40.7576   69.2206 C   0  0  0  0  0  0  0  0  0  0  0  0
   11.1822   41.9553   68.7473 N   0  0  0  0  0  0  0  0  0  0  0  0
   10.6618   40.0307   69.7279 O   0  0  0  0  0  0  0  0  0  0  0  0
   10.5610   42.0908   67.4252 C   0  0  2  0  0  0  0  0  0  0  0  0
   11.4429   42.9928   66.5580 C   0  0  0  0  0  0  0  0  0  0  0  0
   11.9999   44.2032   68.6971 C   0  0  0  0  0  0  0  0  0  0  0  0
   11.8960   44.1940   67.3018 N   0  0  0  0  0  0  0  0  0  0  0  0
    9.1555   42.6885   67.5513 C   0  0  0  0  0  0  0  0  0  0  0  0
    8.2509   41.7015   68.1537 N   0  0  0  0  0  0  0  0  0  0  0  0
    6.8492   42.0168   72.0305 C   0  0  0  0  0  0  0  0  0  0  0  0
    7.3297   40.8039   71.5430 C   0  0  0  0  0  0  0  0  0  0  0  0
    7.7818   40.6999   70.2290 C   0  0  0  0  0  0  0  0  0  0  0  0
    7.8003   41.8182   69.4024 C   0  0  0  0  0  0  0  0  0  0  0  0
    7.3292   43.0324   69.8904 C   0  0  0  0  0  0  0  0  0  0  0  0
    6.8435   43.1292   71.1936 C   0  0  0  0  0  0  0  0  0  0  0  0
    4.0150   43.6247   75.2424 C   0  0  0  0  0  0  0  0  0  0  0  0
  1  3  1  0  0  0  0
  2  1  1  6  0  0  0
  2  6  1  0  0  0  0
  2 34  1  0  0  0  0
  3  4  2  0  0  0  0
  3 28  1  0  0  0  0
  5 13  1  0  0  0  0
  6  7  1  0  0  0  0
  7  8  1  0  0  0  0
  8  9  1  0  0  0  0
  8 10  1  0  0  0  0
 11 13  2  0  0  0  0
 11 24  1  0  0  0  0
 12 34  1  0  0  0  0
 13 15  1  0  0  0  0
 14 34  1  0  0  0  0
 15 16  1  0  0  0  0
 16 17  1  0  0  0  0
 16 18  2  0  0  0  0
 17 20  1  0  0  0  0
 17 24  2  0  0  0  0
 19 21  1  0  0  0  0
 19 20  1  0  0  0  0
 20 22  1  0  0  0  0
 22 23  1  0  0  0  0
 22 26  1  1  0  0  0
 23 25  1  0  0  0  0
 24 25  1  0  0  0  0
 26 27  1  0  0  0  0
 27 31  1  0  0  0  0
 28 29  2  0  0  0  0
 28 33  1  0  0  0  0
 29 30  1  0  0  0  0
 30 31  2  0  0  0  0
 31 32  1  0  0  0  0
 32 33  2  0  0  0  0
M  END
>  <CHROM.1>
157.41529901,-66.58096841,121.31075189,64.85198082,72.89518768,108.86798582
-70.87770204,107.66867737,-136.07771692,166.86217337,8.79165494,43.17172540
71.50508698,2.50025718,0.50509446,0.90617607

>  <Name>
ligand

>  <RI>
0

>  <Rbt.Current_Directory>
/home/itssahil/PROJECTS/Mol_Feturizer/New_Systems/rnas/3SUH

>  <Rbt.Executable>
rbdock ($Id: //depot/dev/client3/rdock/2013.1/src/exe/rbdock.cxx#4 $)

>  <Rbt.Library>
libRbt.so (2013.1, Build901 2013/11/27)

>  <Rbt.Parameter_File>
/export/apps/rDock/src/rDock_2013.1_src/data/scripts/dock_solv.prm

>  <Rbt.Receptor>
prm/pocket_docking_7.prm

>  <SCORE>
-18.8542

>  <SCORE.INTER>
-14.0829

>  <SCORE.INTER.CONST>
1

>  <SCORE.INTER.POLAR>
0

>  <SCORE.INTER.ROT>
10

>  <SCORE.INTER.SOLV>
19.546

>  <SCORE.INTER.VDW>
-26.1706

>  <SCORE.INTER.norm>
-0.414203

>  <SCORE.INTRA>
-4.77126

>  <SCORE.INTRA.DIHEDRAL>
-3.56522

>  <SCORE.INTRA.DIHEDRAL.0>
12.2703

>  <SCORE.INTRA.POLAR>
0

>  <SCORE.INTRA.POLAR.0>
0

>  <SCORE.INTRA.REPUL>
0

>  <SCORE.INTRA.REPUL.0>
0

>  <SCORE.INTRA.SOLV>
0.672207

>  <SCORE.INTRA.SOLV.lig_0>
-64.3214

>  <SCORE.INTRA.VDW>
-3.32475

>  <SCORE.INTRA.VDW.0>
-1.67301

>  <SCORE.INTRA.norm>
-0.140331

>  <SCORE.RESTR>
0

>  <SCORE.RESTR.CAVITY>
0

>  <SCORE.RESTR.norm>
0

>  <SCORE.SYSTEM>
0

>  <SCORE.SYSTEM.CONST>
0

>  <SCORE.SYSTEM.DIHEDRAL>
0

>  <SCORE.SYSTEM.SOLV>
0

>  <SCORE.SYSTEM.norm>
0

>  <SCORE.heavy>
34

>  <SCORE.norm>
-0.554535

>  <RMSD>
4.258

$$$$
ligand
 OpenBabel11021811483D
libRbt.so/2013.1/901 2013/11/27
 34 36  0  0  0  0  0  0  0  0999 V2000
    5.4555   42.4768   74.3369 N   0  0  0  0  0  0  0  0  0  0  0  0
    4.9281   42.6300   75.7129 C   0  0  1  0  0  0  0  0  0  0  0  0
    6.0180   43.4712   73.6378 C   0  0  0  0  0  0  0  0  0  0  0  0
    6.1586   44.6231   74.0577 O   0  0  0  0  0  0  0  0  0  0  0  0
    9.5214   46.7433   70.8903 N   0  0  0  0  0  0  0  0  0  0  0  0
    3.4599   43.0848   75.6596 C   0  0  0  0  0  0  0  0  0  0  0  0
    3.3196   44.4654   75.0040 C   0  0  0  0  0  0  0  0  0  0  0  0
    1.8441   44.8744   74.8788 C   0  0  0  0  0  0  0  0  0  0  0  0
    1.1580   44.2830   74.0123 O   0  0  0  0  0  0  0  0  0  0  0  0
    1.4338   45.7681   75.6544 O   0  0  0  0  0  0  0  0  0  0  0  0
    9.8473   45.1085   69.2841 N   0  0  0  0  0  0  0  0  0  0  0  0
    5.0819   41.4163   77.7747 O   0  0  0  0  0  0  0  0  0  0  0  0
    9.8227   45.4864   70.5741 C   0  0  0  0  0  0  0  0  0  0  0  0
    5.0878   40.2539   75.8674 O   0  0  0  0  0  0  0  0  0  0  0  0
   10.1110   44.5702   71.5934 N   0  0  0  0  0  0  0  0  0  0  0  0
   10.4191   43.2602   71.2519 C   0  0  0  0  0  0  0  0  0  0  0  0
   10.4043   42.8949   69.9122 C   0  0  0  0  0  0  0  0  0  0  0  0
   10.6655   42.4358   72.1286 O   0  0  0  0  0  0  0  0  0  0  0  0
   11.6967   40.9614   70.2177 C   0  0  0  0  0  0  0  0  0  0  0  0
   10.7728   41.6134   69.5183 N   0  0  0  0  0  0  0  0  0  0  0  0
   11.5530   39.7698   70.4821 O   0  0  0  0  0  0  0  0  0  0  0  0
   10.2924   41.0828   68.2377 C   0  0  2  0  0  0  0  0  0  0  0  0
   10.5555   42.1224   67.1453 C   0  0  0  0  0  0  0  0  0  0  0  0
   10.1429   43.8469   68.9361 C   0  0  0  0  0  0  0  0  0  0  0  0
   10.1721   43.4869   67.5843 N   0  0  0  0  0  0  0  0  0  0  0  0
    8.7952   40.7652   68.3162 C   0  0  0  0  0  0  0  0  0  0  0  0
    8.0387   42.0026   68.5438 N   0  0  0  0  0  0  0  0  0  0  0  0
    6.5399   43.0628   72.2483 C   0  0  0  0  0  0  0  0  0  0  0  0
    6.6722   44.0098   71.2356 C   0  0  0  0  0  0  0  0  0  0  0  0
    7.1971   43.6498   69.9960 C   0  0  0  0  0  0  0  0  0  0  0  0
    7.5531   42.3297   69.7409 C   0  0  0  0  0  0  0  0  0  0  0  0
    7.4132   41.3809   70.7482 C   0  0  0  0  0  0  0  0  0  0  0  0
    6.9216   41.7473   72.0003 C   0  0  0  0  0  0  0  0  0  0  0  0
    5.0411   41.3227   76.5240 C   0  0  0  0  0  0  0  0  0  0  0  0
  1  3  1  0  0  0  0
  2  1  1  6  0  0  0
  2  6  1  0  0  0  0
  2 34  1  0  0  0  0
  3  4  2  0  0  0  0
  3 28  1  0  0  0  0
  5 13  1  0  0  0  0
  6  7  1  0  0  0  0
  7  8  1  0  0  0  0
  8  9  1  0  0  0  0
  8 10  1  0  0  0  0
 11 13  2  0  0  0  0
 11 24  1  0  0  0  0
 12 34  1  0  0  0  0
 13 15  1  0  0  0  0
 14 34  1  0  0  0  0
 15 16  1  0  0  0  0
 16 17  1  0  0  0  0
 16 18  2  0  0  0  0
 17 20  1  0  0  0  0
 17 24  2  0  0  0  0
 19 21  1  0  0  0  0
 19 20  1  0  0  0  0
 20 22  1  0  0  0  0
 22 23  1  0  0  0  0
 22 26  1  1  0  0  0
 23 25  1  0  0  0  0
 24 25  1  0  0  0  0
 26 27  1  0  0  0  0
 27 31  1  0  0  0  0
 28 29  2  0  0  0  0
 28 33  1  0  0  0  0
 29 30  1  0  0  0  0
 30 31  2  0  0  0  0
 31 32  1  0  0  0  0
 32 33  2  0  0  0  0
M  END
>  <CHROM.1>
88.14465226,-63.11755071,155.59692948,176.59822856,-72.86576093,137.46724763
63.80594669,-102.43305338,161.41608290,155.50952640,7.42965140,42.95380601
71.95736466,-2.80602313,0.68136601,-0.65696096

>  <Name>
ligand

>  <RI>
0

>  <Rbt.Current_Directory>
/home/itssahil/PROJECTS/Mol_Feturizer/New_Systems/rnas/3SUH

>  <Rbt.Executable>
rbdock ($Id: //depot/dev/client3/rdock/2013.1/src/exe/rbdock.cxx#4 $)

>  <Rbt.Library>
libRbt.so (2013.1, Build901 2013/11/27)

>  <Rbt.Parameter_File>
/export/apps/rDock/src/rDock_2013.1_src/data/scripts/dock_solv.prm

>  <Rbt.Receptor>
prm/pocket_docking_6.prm

>  <SCORE>
-14.0278

>  <SCORE.INTER>
-9.94644

>  <SCORE.INTER.CONST>
1

>  <SCORE.INTER.POLAR>
0

>  <SCORE.INTER.ROT>
10

>  <SCORE.INTER.SOLV>
15.6205

>  <SCORE.INTER.VDW>
-22.1044

>  <SCORE.INTER.norm>
-0.292542

>  <SCORE.INTRA>
-4.08136

>  <SCORE.INTRA.DIHEDRAL>
-4.45661

>  <SCORE.INTRA.DIHEDRAL.0>
12.2703

>  <SCORE.INTRA.POLAR>
0

>  <SCORE.INTRA.POLAR.0>
0

>  <SCORE.INTRA.REPUL>
0

>  <SCORE.INTRA.REPUL.0>
0

>  <SCORE.INTRA.SOLV>
2.52992

>  <SCORE.INTRA.SOLV.lig_0>
-64.3214

>  <SCORE.INTRA.VDW>
-3.11801

>  <SCORE.INTRA.VDW.0>
-1.67301

>  <SCORE.INTRA.norm>
-0.12004

>  <SCORE.RESTR>
0

>  <SCORE.RESTR.CAVITY>
0

>  <SCORE.RESTR.norm>
0

>  <SCORE.SYSTEM>
0

>  <SCORE.SYSTEM.CONST>
0

>  <SCORE.SYSTEM.DIHEDRAL>
0

>  <SCORE.SYSTEM.SOLV>
0

>  <SCORE.SYSTEM.norm>
0

>  <SCORE.heavy>
34

>  <SCORE.norm>
-0.412582

>  <RMSD>
4.275

$$$$
ligand
 OpenBabel11021811483D
libRbt.so/2013.1/901 2013/11/27
 34 36  0  0  0  0  0  0  0  0999 V2000
    4.2976   42.3831   76.0354 N   0  0  0  0  0  0  0  0  0  0  0  0
    3.6369   42.3714   77.3614 C   0  0  1  0  0  0  0  0  0  0  0  0
    5.3706   43.1293   75.7423 C   0  0  0  0  0  0  0  0  0  0  0  0
    5.9271   43.8897   76.5394 O   0  0  0  0  0  0  0  0  0  0  0  0
   11.7517   39.7048   72.4679 N   0  0  0  0  0  0  0  0  0  0  0  0
    2.3961   41.4640   77.3162 C   0  0  0  0  0  0  0  0  0  0  0  0
    1.3730   41.9569   76.2839 C   0  0  0  0  0  0  0  0  0  0  0  0
    0.1791   40.9955   76.1810 C   0  0  0  0  0  0  0  0  0  0  0  0
    0.4139   39.8331   75.7750 O   0  0  0  0  0  0  0  0  0  0  0  0
   -0.9423   41.4436   76.5133 O   0  0  0  0  0  0  0  0  0  0  0  0
   10.8259   41.7208   71.8072 N   0  0  0  0  0  0  0  0  0  0  0  0
    5.4282   41.0097   78.1889 O   0  0  0  0  0  0  0  0  0  0  0  0
   11.2088   40.4645   71.5201 C   0  0  0  0  0  0  0  0  0  0  0  0
    4.4536   42.4380   79.6028 O   0  0  0  0  0  0  0  0  0  0  0  0
   11.0427   39.9432   70.2308 N   0  0  0  0  0  0  0  0  0  0  0  0
   10.4705   40.7435   69.2512 C   0  0  0  0  0  0  0  0  0  0  0  0
   10.0566   42.0252   69.5891 C   0  0  0  0  0  0  0  0  0  0  0  0
   10.3050   40.3051   68.1155 O   0  0  0  0  0  0  0  0  0  0  0  0
    9.9929   42.8044   67.3775 C   0  0  0  0  0  0  0  0  0  0  0  0
    9.5420   42.8857   68.6257 N   0  0  0  0  0  0  0  0  0  0  0  0
   11.1043   43.2405   67.0863 O   0  0  0  0  0  0  0  0  0  0  0  0
    8.6682   43.9910   69.0341 C   0  0  2  0  0  0  0  0  0  0  0  0
    9.3360   44.7453   70.1867 C   0  0  0  0  0  0  0  0  0  0  0  0
   10.2713   42.5080   70.8729 C   0  0  0  0  0  0  0  0  0  0  0  0
    9.8939   43.8152   71.1993 N   0  0  0  0  0  0  0  0  0  0  0  0
    7.2994   43.4592   69.4726 C   0  0  0  0  0  0  0  0  0  0  0  0
    7.4755   42.4442   70.5185 N   0  0  0  0  0  0  0  0  0  0  0  0
    5.9150   42.9372   74.3153 C   0  0  0  0  0  0  0  0  0  0  0  0
    6.1588   44.0373   73.4967 C   0  0  0  0  0  0  0  0  0  0  0  0
    6.7038   43.8654   72.2258 C   0  0  0  0  0  0  0  0  0  0  0  0
    6.9688   42.5884   71.7426 C   0  0  0  0  0  0  0  0  0  0  0  0
    6.7176   41.4881   72.5553 C   0  0  0  0  0  0  0  0  0  0  0  0
    6.2056   41.6614   73.8404 C   0  0  0  0  0  0  0  0  0  0  0  0
    4.5903   41.8979   78.4780 C   0  0  0  0  0  0  0  0  0  0  0  0
  1  3  1  0  0  0  0
  2  1  1  6  0  0  0
  2  6  1  0  0  0  0
  2 34  1  0  0  0  0
  3  4  2  0  0  0  0
  3 28  1  0  0  0  0
  5 13  1  0  0  0  0
  6  7  1  0  0  0  0
  7  8  1  0  0  0  0
  8  9  1  0  0  0  0
  8 10  1  0  0  0  0
 11 13  2  0  0  0  0
 11 24  1  0  0  0  0
 12 34  1  0  0  0  0
 13 15  1  0  0  0  0
 14 34  1  0  0  0  0
 15 16  1  0  0  0  0
 16 17  1  0  0  0  0
 16 18  2  0  0  0  0
 17 20  1  0  0  0  0
 17 24  2  0  0  0  0
 19 21  1  0  0  0  0
 19 20  1  0  0  0  0
 20 22  1  0  0  0  0
 22 23  1  0  0  0  0
 22 26  1  1  0  0  0
 23 25  1  0  0  0  0
 24 25  1  0  0  0  0
 26 27  1  0  0  0  0
 27 31  1  0  0  0  0
 28 29  2  0  0  0  0
 28 33  1  0  0  0  0
 29 30  1  0  0  0  0
 30 31  2  0  0  0  0
 31 32  1  0  0  0  0
 32 33  2  0  0  0  0
M  END
>  <CHROM.1>
176.87461595,-60.43570928,-35.14156955,176.34085794,-63.49436650,-74.73422197
54.52106079,118.92973753,-24.12447169,129.42318241,6.86143873,42.16464144
72.96786130,-2.35592814,0.10488167,-1.41114201

>  <Name>
ligand

>  <RI>
0

>  <Rbt.Current_Directory>
/home/itssahil/PROJECTS/Mol_Feturizer/New_Systems/rnas/3SUH

>  <Rbt.Executable>
rbdock ($Id: //depot/dev/client3/rdock/2013.1/src/exe/rbdock.cxx#4 $)

>  <Rbt.Library>
libRbt.so (2013.1, Build901 2013/11/27)

>  <Rbt.Parameter_File>
/export/apps/rDock/src/rDock_2013.1_src/data/scripts/dock_solv.prm

>  <Rbt.Receptor>
prm/pocket_docking_4.prm

>  <SCORE>
-6.7599

>  <SCORE.INTER>
-3.8012

>  <SCORE.INTER.CONST>
1

>  <SCORE.INTER.POLAR>
0

>  <SCORE.INTER.ROT>
10

>  <SCORE.INTER.SOLV>
10.9939

>  <SCORE.INTER.VDW>
-16.4654

>  <SCORE.INTER.norm>
-0.1118

>  <SCORE.INTRA>
-2.9587

>  <SCORE.INTRA.DIHEDRAL>
-4.77387

>  <SCORE.INTRA.DIHEDRAL.0>
12.2703

>  <SCORE.INTRA.POLAR>
0

>  <SCORE.INTRA.POLAR.0>
0

>  <SCORE.INTRA.REPUL>
0

>  <SCORE.INTRA.REPUL.0>
0

>  <SCORE.INTRA.SOLV>
2.40872

>  <SCORE.INTRA.SOLV.lig_0>
-64.3214

>  <SCORE.INTRA.VDW>
-1.77613

>  <SCORE.INTRA.VDW.0>
-1.67301

>  <SCORE.INTRA.norm>
-0.0870207

>  <SCORE.RESTR>
0

>  <SCORE.RESTR.CAVITY>
0

>  <SCORE.RESTR.norm>
0

>  <SCORE.SYSTEM>
0

>  <SCORE.SYSTEM.CONST>
0

>  <SCORE.SYSTEM.DIHEDRAL>
0

>  <SCORE.SYSTEM.SOLV>
0

>  <SCORE.SYSTEM.norm>
0

>  <SCORE.heavy>
34

>  <SCORE.norm>
-0.198821

>  <RMSD>
4.279

$$$$
ligand
 OpenBabel11021811483D
libRbt.so/2013.1/901 2013/11/27
 34 36  0  0  0  0  0  0  0  0999 V2000
    5.4830   43.3535   73.8704 N   0  0  0  0  0  0  0  0  0  0  0  0
    4.8992   43.6706   75.1945 C   0  0  1  0  0  0  0  0  0  0  0  0
    6.7990   43.2697   73.6352 C   0  0  0  0  0  0  0  0  0  0  0  0
    7.6707   43.4481   74.4905 O   0  0  0  0  0  0  0  0  0  0  0  0
   12.7844   46.4637   71.0746 N   0  0  0  0  0  0  0  0  0  0  0  0
    3.4095   44.0183   75.0364 C   0  0  0  0  0  0  0  0  0  0  0  0
    2.8056   44.5280   76.3520 C   0  0  0  0  0  0  0  0  0  0  0  0
    1.3110   44.8457   76.1918 C   0  0  0  0  0  0  0  0  0  0  0  0
    1.0126   45.9460   75.6709 O   0  0  0  0  0  0  0  0  0  0  0  0
    0.4994   43.9795   76.5915 O   0  0  0  0  0  0  0  0  0  0  0  0
   12.2488   45.2321   69.1892 N   0  0  0  0  0  0  0  0  0  0  0  0
    4.9476   41.3376   75.7445 O   0  0  0  0  0  0  0  0  0  0  0  0
   12.3168   45.3447   70.5272 C   0  0  0  0  0  0  0  0  0  0  0  0
    5.2917   42.8122   77.3864 O   0  0  0  0  0  0  0  0  0  0  0  0
   11.8997   44.2951   71.3554 N   0  0  0  0  0  0  0  0  0  0  0  0
   11.4089   43.1343   70.7731 C   0  0  0  0  0  0  0  0  0  0  0  0
   11.3221   43.0628   69.3890 C   0  0  0  0  0  0  0  0  0  0  0  0
   11.0275   42.2038   71.4788 O   0  0  0  0  0  0  0  0  0  0  0  0
   11.1830   40.7223   69.3178 C   0  0  0  0  0  0  0  0  0  0  0  0
   10.9019   41.8961   68.7601 N   0  0  0  0  0  0  0  0  0  0  0  0
   10.2836   40.0093   69.7572 O   0  0  0  0  0  0  0  0  0  0  0  0
   10.3385   41.9648   67.4073 C   0  0  2  0  0  0  0  0  0  0  0  0
   11.2774   42.7921   66.5254 C   0  0  0  0  0  0  0  0  0  0  0  0
   11.7773   44.1177   68.6097 C   0  0  0  0  0  0  0  0  0  0  0  0
   11.7299   44.0258   67.2143 N   0  0  0  0  0  0  0  0  0  0  0  0
    8.9445   42.6008   67.4381 C   0  0  0  0  0  0  0  0  0  0  0  0
    8.0587   41.8084   68.2998 N   0  0  0  0  0  0  0  0  0  0  0  0
    7.1691   42.8762   72.1937 C   0  0  0  0  0  0  0  0  0  0  0  0
    7.2011   41.5372   71.8116 C   0  0  0  0  0  0  0  0  0  0  0  0
    7.4817   41.1854   70.4928 C   0  0  0  0  0  0  0  0  0  0  0  0
    7.7778   42.1663   69.5523 C   0  0  0  0  0  0  0  0  0  0  0  0
    7.7550   43.5035   69.9343 C   0  0  0  0  0  0  0  0  0  0  0  0
    7.4394   43.8584   71.2450 C   0  0  0  0  0  0  0  0  0  0  0  0
    5.0607   42.5046   76.1916 C   0  0  0  0  0  0  0  0  0  0  0  0
  1  3  1  0  0  0  0
  2  1  1  6  0  0  0
  2  6  1  0  0  0  0
  2 34  1  0  0  0  0
  3  4  2  0  0  0  0
  3 28  1  0  0  0  0
  5 13  1  0  0  0  0
  6  7  1  0  0  0  0
  7  8  1  0  0  0  0
  8  9  1  0  0  0  0
  8 10  1  0  0  0  0
 11 13  2  0  0  0  0
 11 24  1  0  0  0  0
 12 34  1  0  0  0  0
 13 15  1  0  0  0  0
 14 34  1  0  0  0  0
 15 16  1  0  0  0  0
 16 17  1  0  0  0  0
 16 18  2  0  0  0  0
 17 20  1  0  0  0  0
 17 24  2  0  0  0  0
 19 21  1  0  0  0  0
 19 20  1  0  0  0  0
 20 22  1  0  0  0  0
 22 23  1  0  0  0  0
 22 26  1  1  0  0  0
 23 25  1  0  0  0  0
 24 25  1  0  0  0  0
 26 27  1  0  0  0  0
 27 31  1  0  0  0  0
 28 29  2  0  0  0  0
 28 33  1  0  0  0  0
 29 30  1  0  0  0  0
 30 31  2  0  0  0  0
 31 32  1  0  0  0  0
 32 33  2  0  0  0  0
M  END
>  <CHROM.1>
166.36049404,-172.68319357,-37.08199513,-178.84765212,-80.54669429,113.41898255
-59.11005203,100.30325543,-150.94799159,-84.07317885,7.91754875,43.18228515
71.81841892,2.54093674,0.43106038,0.91260764

>  <Name>
ligand

>  <RI>
0

>  <Rbt.Current_Directory>
/home/itssahil/PROJECTS/Mol_Feturizer/New_Systems/rnas/3SUH

>  <Rbt.Executable>
rbdock ($Id: //depot/dev/client3/rdock/2013.1/src/exe/rbdock.cxx#4 $)

>  <Rbt.Library>
libRbt.so (2013.1, Build901 2013/11/27)

>  <Rbt.Parameter_File>
/export/apps/rDock/src/rDock_2013.1_src/data/scripts/dock_solv.prm

>  <Rbt.Receptor>
prm/pocket_docking_6.prm

>  <SCORE>
-15.8413

>  <SCORE.INTER>
-10.2219

>  <SCORE.INTER.CONST>
1

>  <SCORE.INTER.POLAR>
0

>  <SCORE.INTER.ROT>
10

>  <SCORE.INTER.SOLV>
17.7217

>  <SCORE.INTER.VDW>
-22.9885

>  <SCORE.INTER.norm>
-0.300645

>  <SCORE.INTRA>
-5.61941

>  <SCORE.INTRA.DIHEDRAL>
-4.54091

>  <SCORE.INTRA.DIHEDRAL.0>
12.2703

>  <SCORE.INTRA.POLAR>
0

>  <SCORE.INTRA.POLAR.0>
0

>  <SCORE.INTRA.REPUL>
0

>  <SCORE.INTRA.REPUL.0>
0

>  <SCORE.INTRA.SOLV>
0.280079

>  <SCORE.INTRA.SOLV.lig_0>
-64.3214

>  <SCORE.INTRA.VDW>
-3.489

>  <SCORE.INTRA.VDW.0>
-1.67301

>  <SCORE.INTRA.norm>
-0.165277

>  <SCORE.RESTR>
0

>  <SCORE.RESTR.CAVITY>
0

>  <SCORE.RESTR.norm>
0

>  <SCORE.SYSTEM>
0

>  <SCORE.SYSTEM.CONST>
0

>  <SCORE.SYSTEM.DIHEDRAL>
0

>  <SCORE.SYSTEM.SOLV>
0

>  <SCORE.SYSTEM.norm>
0

>  <SCORE.heavy>
34

>  <SCORE.norm>
-0.465922

>  <RMSD>
4.289

$$$$
ligand
 OpenBabel11021811483D
libRbt.so/2013.1/901 2013/11/27
 34 36  0  0  0  0  0  0  0  0999 V2000
    5.9646   43.5019   73.7970 N   0  0  0  0  0  0  0  0  0  0  0  0
    5.3627   43.8615   75.1021 C   0  0  1  0  0  0  0  0  0  0  0  0
    6.2626   42.2481   73.4322 C   0  0  0  0  0  0  0  0  0  0  0  0
    6.0722   41.2546   74.1393 O   0  0  0  0  0  0  0  0  0  0  0  0
   13.0728   46.4627   71.2075 N   0  0  0  0  0  0  0  0  0  0  0  0
    5.8923   45.2310   75.5594 C   0  0  0  0  0  0  0  0  0  0  0  0
    7.4000   45.1877   75.8428 C   0  0  0  0  0  0  0  0  0  0  0  0
    8.2004   44.9292   74.5572 C   0  0  0  0  0  0  0  0  0  0  0  0
    8.2942   45.8763   73.7414 O   0  0  0  0  0  0  0  0  0  0  0  0
    8.7033   43.7904   74.4195 O   0  0  0  0  0  0  0  0  0  0  0  0
   12.4989   45.2968   69.2918 N   0  0  0  0  0  0  0  0  0  0  0  0
    3.2881   44.7000   74.2413 O   0  0  0  0  0  0  0  0  0  0  0  0
   12.6068   45.3580   70.6305 C   0  0  0  0  0  0  0  0  0  0  0  0
    3.2106   43.1013   75.7992 O   0  0  0  0  0  0  0  0  0  0  0  0
   12.2332   44.2694   71.4286 N   0  0  0  0  0  0  0  0  0  0  0  0
   11.7438   43.1238   70.8158 C   0  0  0  0  0  0  0  0  0  0  0  0
   11.6149   43.1052   69.4332 C   0  0  0  0  0  0  0  0  0  0  0  0
   11.4000   42.1597   71.4951 O   0  0  0  0  0  0  0  0  0  0  0  0
   11.5124   40.7672   69.2731 C   0  0  0  0  0  0  0  0  0  0  0  0
   11.1946   41.9568   68.7714 N   0  0  0  0  0  0  0  0  0  0  0  0
   10.6367   40.0112   69.6877 O   0  0  0  0  0  0  0  0  0  0  0  0
   10.5882   42.0687   67.4403 C   0  0  2  0  0  0  0  0  0  0  0  0
   11.4853   42.9465   66.5638 C   0  0  0  0  0  0  0  0  0  0  0  0
   12.0280   44.1979   68.6830 C   0  0  0  0  0  0  0  0  0  0  0  0
   11.9386   44.1601   67.2871 N   0  0  0  0  0  0  0  0  0  0  0  0
    9.1855   42.6782   67.5390 C   0  0  0  0  0  0  0  0  0  0  0  0
    8.2681   41.7100   68.1524 N   0  0  0  0  0  0  0  0  0  0  0  0
    6.8324   42.1126   72.0085 C   0  0  0  0  0  0  0  0  0  0  0  0
    7.2881   40.8816   71.5428 C   0  0  0  0  0  0  0  0  0  0  0  0
    7.7517   40.7486   70.2355 C   0  0  0  0  0  0  0  0  0  0  0  0
    7.8069   41.8548   69.3942 C   0  0  0  0  0  0  0  0  0  0  0  0
    7.3606   43.0867   69.8606 C   0  0  0  0  0  0  0  0  0  0  0  0
    6.8633   43.2132   71.1569 C   0  0  0  0  0  0  0  0  0  0  0  0
    3.8216   43.8916   75.0391 C   0  0  0  0  0  0  0  0  0  0  0  0
  1  3  1  0  0  0  0
  2  1  1  6  0  0  0
  2  6  1  0  0  0  0
  2 34  1  0  0  0  0
  3  4  2  0  0  0  0
  3 28  1  0  0  0  0
  5 13  1  0  0  0  0
  6  7  1  0  0  0  0
  7  8  1  0  0  0  0
  8  9  1  0  0  0  0
  8 10  1  0  0  0  0
 11 13  2  0  0  0  0
 11 24  1  0  0  0  0
 12 34  1  0  0  0  0
 13 15  1  0  0  0  0
 14 34  1  0  0  0  0
 15 16  1  0  0  0  0
 16 17  1  0  0  0  0
 16 18  2  0  0  0  0
 17 20  1  0  0  0  0
 17 24  2  0  0  0  0
 19 21  1  0  0  0  0
 19 20  1  0  0  0  0
 20 22  1  0  0  0  0
 22 23  1  0  0  0  0
 22 26  1  1  0  0  0
 23 25  1  0  0  0  0
 24 25  1  0  0  0  0
 26 27  1  0  0  0  0
 27 31  1  0  0  0  0
 28 29  2  0  0  0  0
 28 33  1  0  0  0  0
 29 30  1  0  0  0  0
 30 31  2  0  0  0  0
 31 32  1  0  0  0  0
 32 33  2  0  0  0  0
M  END
>  <CHROM.1>
146.22776792,-65.14216007,-60.50873121,65.99500090,73.67129937,114.80390424
-70.87359571,107.56299458,-137.13240829,174.62974249,8.75398035,43.23542359
71.46476303,2.51236484,0.48155244,0.88322735

>  <Name>
ligand

>  <RI>
0

>  <Rbt.Current_Directory>
/home/itssahil/PROJECTS/Mol_Feturizer/New_Systems/rnas/3SUH

>  <Rbt.Executable>
rbdock ($Id: //depot/dev/client3/rdock/2013.1/src/exe/rbdock.cxx#4 $)

>  <Rbt.Library>
libRbt.so (2013.1, Build901 2013/11/27)

>  <Rbt.Parameter_File>
/export/apps/rDock/src/rDock_2013.1_src/data/scripts/dock_solv.prm

>  <Rbt.Receptor>
prm/pocket_docking_8.prm

>  <SCORE>
-18.909

>  <SCORE.INTER>
-14.3075

>  <SCORE.INTER.CONST>
1

>  <SCORE.INTER.POLAR>
0

>  <SCORE.INTER.ROT>
10

>  <SCORE.INTER.SOLV>
19.8337

>  <SCORE.INTER.VDW>
-26.4162

>  <SCORE.INTER.norm>
-0.420808

>  <SCORE.INTRA>
-4.60155

>  <SCORE.INTRA.DIHEDRAL>
-3.28507

>  <SCORE.INTRA.DIHEDRAL.0>
12.2703

>  <SCORE.INTRA.POLAR>
0

>  <SCORE.INTRA.POLAR.0>
0

>  <SCORE.INTRA.REPUL>
0

>  <SCORE.INTRA.REPUL.0>
0

>  <SCORE.INTRA.SOLV>
0.702082

>  <SCORE.INTRA.SOLV.lig_0>
-64.3214

>  <SCORE.INTRA.VDW>
-3.31005

>  <SCORE.INTRA.VDW.0>
-1.67301

>  <SCORE.INTRA.norm>
-0.13534

>  <SCORE.RESTR>
0

>  <SCORE.RESTR.CAVITY>
0

>  <SCORE.RESTR.norm>
0

>  <SCORE.SYSTEM>
0

>  <SCORE.SYSTEM.CONST>
0

>  <SCORE.SYSTEM.DIHEDRAL>
0

>  <SCORE.SYSTEM.SOLV>
0

>  <SCORE.SYSTEM.norm>
0

>  <SCORE.heavy>
34

>  <SCORE.norm>
-0.556148

>  <RMSD>
4.296

$$$$
ligand
 OpenBabel11021811483D
libRbt.so/2013.1/901 2013/11/27
 34 36  0  0  0  0  0  0  0  0999 V2000
    5.2861   43.3744   74.1923 N   0  0  0  0  0  0  0  0  0  0  0  0
    4.7690   43.7614   75.5256 C   0  0  1  0  0  0  0  0  0  0  0  0
    6.4015   43.8788   73.6487 C   0  0  0  0  0  0  0  0  0  0  0  0
    7.1209   44.7207   74.1936 O   0  0  0  0  0  0  0  0  0  0  0  0
   12.6127   46.3440   71.2746 N   0  0  0  0  0  0  0  0  0  0  0  0
    3.4144   43.0779   75.7766 C   0  0  0  0  0  0  0  0  0  0  0  0
    2.2896   43.7392   74.9686 C   0  0  0  0  0  0  0  0  0  0  0  0
    0.9180   43.1602   75.3474 C   0  0  0  0  0  0  0  0  0  0  0  0
    0.6604   41.9972   74.9574 O   0  0  0  0  0  0  0  0  0  0  0  0
    0.1577   43.8928   76.0213 O   0  0  0  0  0  0  0  0  0  0  0  0
   12.0673   45.0922   69.4054 N   0  0  0  0  0  0  0  0  0  0  0  0
    6.4583   42.3704   76.5050 O   0  0  0  0  0  0  0  0  0  0  0  0
   12.1339   45.2227   70.7417 C   0  0  0  0  0  0  0  0  0  0  0  0
    5.7776   44.1627   77.6509 O   0  0  0  0  0  0  0  0  0  0  0  0
   11.7038   44.1893   71.5836 N   0  0  0  0  0  0  0  0  0  0  0  0
   11.2015   43.0259   71.0164 C   0  0  0  0  0  0  0  0  0  0  0  0
   11.1166   42.9361   69.6332 C   0  0  0  0  0  0  0  0  0  0  0  0
   10.8086   42.1095   71.7341 O   0  0  0  0  0  0  0  0  0  0  0  0
   10.9521   40.5965   69.5942 C   0  0  0  0  0  0  0  0  0  0  0  0
   10.6849   41.7654   69.0197 N   0  0  0  0  0  0  0  0  0  0  0  0
   10.0400   39.8538   69.9503 O   0  0  0  0  0  0  0  0  0  0  0  0
   10.1250   41.8215   67.6649 C   0  0  2  0  0  0  0  0  0  0  0  0
   11.0746   42.6261   66.7736 C   0  0  0  0  0  0  0  0  0  0  0  0
   11.5848   43.9751   68.8403 C   0  0  0  0  0  0  0  0  0  0  0  0
   11.5393   43.8644   67.4462 N   0  0  0  0  0  0  0  0  0  0  0  0
    8.7380   42.4730   67.6839 C   0  0  0  0  0  0  0  0  0  0  0  0
    7.8590   41.7374   68.6012 N   0  0  0  0  0  0  0  0  0  0  0  0
    6.7698   43.2878   72.2758 C   0  0  0  0  0  0  0  0  0  0  0  0
    6.8123   44.0990   71.1445 C   0  0  0  0  0  0  0  0  0  0  0  0
    7.1998   43.5743   69.9131 C   0  0  0  0  0  0  0  0  0  0  0  0
    7.5055   42.2231   69.7907 C   0  0  0  0  0  0  0  0  0  0  0  0
    7.4550   41.4096   70.9177 C   0  0  0  0  0  0  0  0  0  0  0  0
    7.1018   41.9412   72.1572 C   0  0  0  0  0  0  0  0  0  0  0  0
    5.7548   43.3985   76.6554 C   0  0  0  0  0  0  0  0  0  0  0  0
  1  3  1  0  0  0  0
  2  1  1  6  0  0  0
  2  6  1  0  0  0  0
  2 34  1  0  0  0  0
  3  4  2  0  0  0  0
  3 28  1  0  0  0  0
  5 13  1  0  0  0  0
  6  7  1  0  0  0  0
  7  8  1  0  0  0  0
  8  9  1  0  0  0  0
  8 10  1  0  0  0  0
 11 13  2  0  0  0  0
 11 24  1  0  0  0  0
 12 34  1  0  0  0  0
 13 15  1  0  0  0  0
 14 34  1  0  0  0  0
 15 16  1  0  0  0  0
 16 17  1  0  0  0  0
 16 18  2  0  0  0  0
 17 20  1  0  0  0  0
 17 24  2  0  0  0  0
 19 21  1  0  0  0  0
 19 20  1  0  0  0  0
 20 22  1  0  0  0  0
 22 23  1  0  0  0  0
 22 26  1  1  0  0  0
 23 25  1  0  0  0  0
 24 25  1  0  0  0  0
 26 27  1  0  0  0  0
 27 31  1  0  0  0  0
 28 29  2  0  0  0  0
 28 33  1  0  0  0  0
 29 30  1  0  0  0  0
 30 31  2  0  0  0  0
 31 32  1  0  0  0  0
 32 33  2  0  0  0  0
M  END
>  <CHROM.1>
175.23925047,-74.76326521,-32.74354536,-173.36180873,-72.40866233,118.94886504
-56.59554676,106.51705845,40.22382199,117.59601619,7.76758492,43.09126558
71.92831568,-2.51212272,-0.31027682,-2.01490683

>  <Name>
ligand

>  <RI>
0

>  <Rbt.Current_Directory>
/home/itssahil/PROJECTS/Mol_Feturizer/New_Systems/rnas/3SUH

>  <Rbt.Executable>
rbdock ($Id: //depot/dev/client3/rdock/2013.1/src/exe/rbdock.cxx#4 $)

>  <Rbt.Library>
libRbt.so (2013.1, Build901 2013/11/27)

>  <Rbt.Parameter_File>
/export/apps/rDock/src/rDock_2013.1_src/data/scripts/dock_solv.prm

>  <Rbt.Receptor>
prm/pocket_docking_4.prm

>  <SCORE>
-15.3635

>  <SCORE.INTER>
-10.4918

>  <SCORE.INTER.CONST>
1

>  <SCORE.INTER.POLAR>
0

>  <SCORE.INTER.ROT>
10

>  <SCORE.INTER.SOLV>
16.3458

>  <SCORE.INTER.VDW>
-22.7098

>  <SCORE.INTER.norm>
-0.308583

>  <SCORE.INTRA>
-4.87171

>  <SCORE.INTRA.DIHEDRAL>
-3.60973

>  <SCORE.INTRA.DIHEDRAL.0>
12.2703

>  <SCORE.INTRA.POLAR>
0

>  <SCORE.INTRA.POLAR.0>
0

>  <SCORE.INTRA.REPUL>
0

>  <SCORE.INTRA.REPUL.0>
0

>  <SCORE.INTRA.SOLV>
0.572653

>  <SCORE.INTRA.SOLV.lig_0>
-64.3214

>  <SCORE.INTRA.VDW>
-3.35317

>  <SCORE.INTRA.VDW.0>
-1.67301

>  <SCORE.INTRA.norm>
-0.143286

>  <SCORE.RESTR>
0

>  <SCORE.RESTR.CAVITY>
0

>  <SCORE.RESTR.norm>
0

>  <SCORE.SYSTEM>
0

>  <SCORE.SYSTEM.CONST>
0

>  <SCORE.SYSTEM.DIHEDRAL>
0

>  <SCORE.SYSTEM.SOLV>
0

>  <SCORE.SYSTEM.norm>
0

>  <SCORE.heavy>
34

>  <SCORE.norm>
-0.451868

>  <RMSD>
4.303

$$$$
ligand
 OpenBabel11021811483D
libRbt.so/2013.1/901 2013/11/27
 34 36  0  0  0  0  0  0  0  0999 V2000
    5.6391   42.9067   73.7961 N   0  0  0  0  0  0  0  0  0  0  0  0
    5.0467   43.1299   75.1356 C   0  0  1  0  0  0  0  0  0  0  0  0
    6.4576   41.8881   73.5020 C   0  0  0  0  0  0  0  0  0  0  0  0
    6.8111   41.0248   74.3100 O   0  0  0  0  0  0  0  0  0  0  0  0
   13.1489   46.4244   71.2044 N   0  0  0  0  0  0  0  0  0  0  0  0
    6.0857   43.7846   76.0613 C   0  0  0  0  0  0  0  0  0  0  0  0
    6.5298   45.1550   75.5320 C   0  0  0  0  0  0  0  0  0  0  0  0
    7.2417   45.0240   74.1770 C   0  0  0  0  0  0  0  0  0  0  0  0
    8.3082   44.3659   74.1522 O   0  0  0  0  0  0  0  0  0  0  0  0
    6.7020   45.5829   73.1945 O   0  0  0  0  0  0  0  0  0  0  0  0
   12.5263   45.2808   69.2905 N   0  0  0  0  0  0  0  0  0  0  0  0
    3.6696   44.7957   74.0979 O   0  0  0  0  0  0  0  0  0  0  0  0
   12.6597   45.3298   70.6274 C   0  0  0  0  0  0  0  0  0  0  0  0
    2.9483   43.8700   75.9984 O   0  0  0  0  0  0  0  0  0  0  0  0
   12.2884   44.2391   71.4237 N   0  0  0  0  0  0  0  0  0  0  0  0
   11.7745   43.1041   70.8110 C   0  0  0  0  0  0  0  0  0  0  0  0
   11.6198   43.0983   69.4310 C   0  0  0  0  0  0  0  0  0  0  0  0
   11.4323   42.1385   71.4890 O   0  0  0  0  0  0  0  0  0  0  0  0
   11.4874   40.7630   69.2543 C   0  0  0  0  0  0  0  0  0  0  0  0
   11.1741   41.9602   68.7681 N   0  0  0  0  0  0  0  0  0  0  0  0
   10.6101   40.0108   69.6724 O   0  0  0  0  0  0  0  0  0  0  0  0
   10.5445   42.0899   67.4494 C   0  0  2  0  0  0  0  0  0  0  0  0
   11.4352   42.9645   66.5634 C   0  0  0  0  0  0  0  0  0  0  0  0
   12.0315   44.1923   68.6819 C   0  0  0  0  0  0  0  0  0  0  0  0
   11.9159   44.1669   67.2877 N   0  0  0  0  0  0  0  0  0  0  0  0
    9.1510   42.7144   67.5790 C   0  0  0  0  0  0  0  0  0  0  0  0
    8.2108   41.7191   68.1088 N   0  0  0  0  0  0  0  0  0  0  0  0
    6.9075   41.8312   72.0309 C   0  0  0  0  0  0  0  0  0  0  0  0
    6.8685   42.9729   71.2341 C   0  0  0  0  0  0  0  0  0  0  0  0
    7.3282   42.9329   69.9193 C   0  0  0  0  0  0  0  0  0  0  0  0
    7.7898   41.7401   69.3730 C   0  0  0  0  0  0  0  0  0  0  0  0
    7.8212   40.5969   70.1645 C   0  0  0  0  0  0  0  0  0  0  0  0
    7.3947   40.6443   71.4910 C   0  0  0  0  0  0  0  0  0  0  0  0
    3.7799   44.0077   75.0683 C   0  0  0  0  0  0  0  0  0  0  0  0
  1  3  1  0  0  0  0
  2  1  1  6  0  0  0
  2  6  1  0  0  0  0
  2 34  1  0  0  0  0
  3  4  2  0  0  0  0
  3 28  1  0  0  0  0
  5 13  1  0  0  0  0
  6  7  1  0  0  0  0
  7  8  1  0  0  0  0
  8  9  1  0  0  0  0
  8 10  1  0  0  0  0
 11 13  2  0  0  0  0
 11 24  1  0  0  0  0
 12 34  1  0  0  0  0
 13 15  1  0  0  0  0
 14 34  1  0  0  0  0
 15 16  1  0  0  0  0
 16 17  1  0  0  0  0
 16 18  2  0  0  0  0
 17 20  1  0  0  0  0
 17 24  2  0  0  0  0
 19 21  1  0  0  0  0
 19 20  1  0  0  0  0
 20 22  1  0  0  0  0
 22 23  1  0  0  0  0
 22 26  1  1  0  0  0
 23 25  1  0  0  0  0
 24 25  1  0  0  0  0
 26 27  1  0  0  0  0
 27 31  1  0  0  0  0
 28 29  2  0  0  0  0
 28 33  1  0  0  0  0
 29 30  1  0  0  0  0
 30 31  2  0  0  0  0
 31 32  1  0  0  0  0
 32 33  2  0  0  0  0
M  END
>  <CHROM.1>
79.27182378,61.50124029,-25.29537371,-63.44274654,-62.64832252,115.20426732
-75.06691900,104.11260768,48.37802542,21.87851632,8.65986077,43.14695134
71.44238514,2.55884808,0.51620997,0.82054729

>  <Name>
ligand

>  <RI>
0

>  <Rbt.Current_Directory>
/home/itssahil/PROJECTS/Mol_Feturizer/New_Systems/rnas/3SUH

>  <Rbt.Executable>
rbdock ($Id: //depot/dev/client3/rdock/2013.1/src/exe/rbdock.cxx#4 $)

>  <Rbt.Library>
libRbt.so (2013.1, Build901 2013/11/27)

>  <Rbt.Parameter_File>
/export/apps/rDock/src/rDock_2013.1_src/data/scripts/dock_solv.prm

>  <Rbt.Receptor>
prm/pocket_docking_7.prm

>  <SCORE>
-18.7715

>  <SCORE.INTER>
-14.1804

>  <SCORE.INTER.CONST>
1

>  <SCORE.INTER.POLAR>
0

>  <SCORE.INTER.ROT>
10

>  <SCORE.INTER.SOLV>
20.0358

>  <SCORE.INTER.VDW>
-26.3989

>  <SCORE.INTER.norm>
-0.417071

>  <SCORE.INTRA>
-4.59114

>  <SCORE.INTRA.DIHEDRAL>
-3.6758

>  <SCORE.INTRA.DIHEDRAL.0>
12.2703

>  <SCORE.INTRA.POLAR>
0

>  <SCORE.INTRA.POLAR.0>
0

>  <SCORE.INTRA.REPUL>
0

>  <SCORE.INTRA.REPUL.0>
0

>  <SCORE.INTRA.SOLV>
0.829265

>  <SCORE.INTRA.SOLV.lig_0>
-64.3214

>  <SCORE.INTRA.VDW>
-3.16787

>  <SCORE.INTRA.VDW.0>
-1.67301

>  <SCORE.INTRA.norm>
-0.135033

>  <SCORE.RESTR>
0

>  <SCORE.RESTR.CAVITY>
0

>  <SCORE.RESTR.norm>
0

>  <SCORE.SYSTEM>
0

>  <SCORE.SYSTEM.CONST>
0

>  <SCORE.SYSTEM.DIHEDRAL>
0

>  <SCORE.SYSTEM.SOLV>
0

>  <SCORE.SYSTEM.norm>
0

>  <SCORE.heavy>
34

>  <SCORE.norm>
-0.552104

>  <RMSD>
4.309

$$$$
ligand
 OpenBabel11021811483D
libRbt.so/2013.1/901 2013/11/27
 34 36  0  0  0  0  0  0  0  0999 V2000
    6.7001   42.8208   74.0795 N   0  0  0  0  0  0  0  0  0  0  0  0
    6.2668   43.0370   75.4796 C   0  0  1  0  0  0  0  0  0  0  0  0
    6.5520   41.6631   73.4223 C   0  0  0  0  0  0  0  0  0  0  0  0
    6.0417   40.6492   73.9068 O   0  0  0  0  0  0  0  0  0  0  0  0
   13.1125   46.2607   71.2992 N   0  0  0  0  0  0  0  0  0  0  0  0
    4.7310   43.0785   75.5482 C   0  0  0  0  0  0  0  0  0  0  0  0
    4.1593   44.2332   74.7144 C   0  0  0  0  0  0  0  0  0  0  0  0
    4.7142   45.5866   75.1841 C   0  0  0  0  0  0  0  0  0  0  0  0
    5.7271   46.0265   74.5912 O   0  0  0  0  0  0  0  0  0  0  0  0
    4.1113   46.1530   76.1246 O   0  0  0  0  0  0  0  0  0  0  0  0
   12.5359   45.1685   69.3414 N   0  0  0  0  0  0  0  0  0  0  0  0
    7.8578   41.3512   76.0919 O   0  0  0  0  0  0  0  0  0  0  0  0
   12.6265   45.1864   70.6826 C   0  0  0  0  0  0  0  0  0  0  0  0
    6.1367   41.7215   77.4665 O   0  0  0  0  0  0  0  0  0  0  0  0
   12.2141   44.0843   71.4421 N   0  0  0  0  0  0  0  0  0  0  0  0
   11.7040   42.9709   70.7881 C   0  0  0  0  0  0  0  0  0  0  0  0
   11.5941   42.9974   69.4040 C   0  0  0  0  0  0  0  0  0  0  0  0
   11.3262   41.9960   71.4331 O   0  0  0  0  0  0  0  0  0  0  0  0
   11.4340   40.6688   69.1712 C   0  0  0  0  0  0  0  0  0  0  0  0
   11.1538   41.8809   68.7020 N   0  0  0  0  0  0  0  0  0  0  0  0
   12.5863   40.3688   69.4751 O   0  0  0  0  0  0  0  0  0  0  0  0
   10.5692   42.0487   67.3670 C   0  0  2  0  0  0  0  0  0  0  0  0
   11.5006   42.9289   66.5297 C   0  0  0  0  0  0  0  0  0  0  0  0
   12.0455   44.1011   68.6931 C   0  0  0  0  0  0  0  0  0  0  0  0
   11.9748   44.1079   67.2957 N   0  0  0  0  0  0  0  0  0  0  0  0
    9.1813   42.6912   67.4657 C   0  0  0  0  0  0  0  0  0  0  0  0
    8.2225   41.7166   68.0006 N   0  0  0  0  0  0  0  0  0  0  0  0
    7.0301   41.6904   71.9593 C   0  0  0  0  0  0  0  0  0  0  0  0
    7.5855   40.5547   71.3748 C   0  0  0  0  0  0  0  0  0  0  0  0
    7.9665   40.5643   70.0345 C   0  0  0  0  0  0  0  0  0  0  0  0
    7.8380   41.7233   69.2765 C   0  0  0  0  0  0  0  0  0  0  0  0
    7.2919   42.8611   69.8610 C   0  0  0  0  0  0  0  0  0  0  0  0
    6.8775   42.8418   71.1920 C   0  0  0  0  0  0  0  0  0  0  0  0
    6.8028   41.9429   76.4259 C   0  0  0  0  0  0  0  0  0  0  0  0
  1  3  1  0  0  0  0
  2  1  1  6  0  0  0
  2  6  1  0  0  0  0
  2 34  1  0  0  0  0
  3  4  2  0  0  0  0
  3 28  1  0  0  0  0
  5 13  1  0  0  0  0
  6  7  1  0  0  0  0
  7  8  1  0  0  0  0
  8  9  1  0  0  0  0
  8 10  1  0  0  0  0
 11 13  2  0  0  0  0
 11 24  1  0  0  0  0
 12 34  1  0  0  0  0
 13 15  1  0  0  0  0
 14 34  1  0  0  0  0
 15 16  1  0  0  0  0
 16 17  1  0  0  0  0
 16 18  2  0  0  0  0
 17 20  1  0  0  0  0
 17 24  2  0  0  0  0
 19 21  1  0  0  0  0
 19 20  1  0  0  0  0
 20 22  1  0  0  0  0
 22 23  1  0  0  0  0
 22 26  1  1  0  0  0
 23 25  1  0  0  0  0
 24 25  1  0  0  0  0
 26 27  1  0  0  0  0
 27 31  1  0  0  0  0
 28 29  2  0  0  0  0
 28 33  1  0  0  0  0
 29 30  1  0  0  0  0
 30 31  2  0  0  0  0
 31 32  1  0  0  0  0
 32 33  2  0  0  0  0
M  END
>  <CHROM.1>
-71.04973776,-61.37392006,25.79527844,-58.21229096,93.78268907,-51.07307833
-72.50802553,100.51974256,-125.64920916,146.76536577,8.75295370,42.87775464
71.67100789,2.57710931,0.66567696,0.73247017

>  <Name>
ligand

>  <RI>
0

>  <Rbt.Current_Directory>
/home/itssahil/PROJECTS/Mol_Feturizer/New_Systems/rnas/3SUH

>  <Rbt.Executable>
rbdock ($Id: //depot/dev/client3/rdock/2013.1/src/exe/rbdock.cxx#4 $)

>  <Rbt.Library>
libRbt.so (2013.1, Build901 2013/11/27)

>  <Rbt.Parameter_File>
/export/apps/rDock/src/rDock_2013.1_src/data/scripts/dock_solv.prm

>  <Rbt.Receptor>
prm/pocket_docking_5.prm

>  <SCORE>
-17.0599

>  <SCORE.INTER>
-13.0641

>  <SCORE.INTER.CONST>
1

>  <SCORE.INTER.POLAR>
0

>  <SCORE.INTER.ROT>
10

>  <SCORE.INTER.SOLV>
20.2053

>  <SCORE.INTER.VDW>
-25.7112

>  <SCORE.INTER.norm>
-0.38424

>  <SCORE.INTRA>
-3.99573

>  <SCORE.INTRA.DIHEDRAL>
-4.28055

>  <SCORE.INTRA.DIHEDRAL.0>
12.2703

>  <SCORE.INTRA.POLAR>
0

>  <SCORE.INTRA.POLAR.0>
0

>  <SCORE.INTRA.REPUL>
0

>  <SCORE.INTRA.REPUL.0>
0

>  <SCORE.INTRA.SOLV>
0.183498

>  <SCORE.INTRA.SOLV.lig_0>
-64.3214

>  <SCORE.INTRA.VDW>
-1.9472

>  <SCORE.INTRA.VDW.0>
-1.67301

>  <SCORE.INTRA.norm>
-0.117521

>  <SCORE.RESTR>
0

>  <SCORE.RESTR.CAVITY>
0

>  <SCORE.RESTR.norm>
0

>  <SCORE.SYSTEM>
0

>  <SCORE.SYSTEM.CONST>
0

>  <SCORE.SYSTEM.DIHEDRAL>
0

>  <SCORE.SYSTEM.SOLV>
0

>  <SCORE.SYSTEM.norm>
0

>  <SCORE.heavy>
34

>  <SCORE.norm>
-0.501761

>  <RMSD>
4.310

$$$$
ligand
 OpenBabel11021811483D
libRbt.so/2013.1/901 2013/11/27
 34 36  0  0  0  0  0  0  0  0999 V2000
    5.9111   43.2560   73.9990 N   0  0  0  0  0  0  0  0  0  0  0  0
    4.9247   42.9922   75.0724 C   0  0  1  0  0  0  0  0  0  0  0  0
    5.8645   44.3205   73.1873 C   0  0  0  0  0  0  0  0  0  0  0  0
    4.9977   45.1975   73.2401 O   0  0  0  0  0  0  0  0  0  0  0  0
    7.2922   39.4837   71.9418 N   0  0  0  0  0  0  0  0  0  0  0  0
    5.5168   42.0043   76.0916 C   0  0  0  0  0  0  0  0  0  0  0  0
    5.7848   40.6322   75.4584 C   0  0  0  0  0  0  0  0  0  0  0  0
    6.1359   39.5856   76.5268 C   0  0  0  0  0  0  0  0  0  0  0  0
    7.1008   39.8427   77.2844 O   0  0  0  0  0  0  0  0  0  0  0  0
    5.4295   38.5519   76.5642 O   0  0  0  0  0  0  0  0  0  0  0  0
    9.3864   40.2799   71.3595 N   0  0  0  0  0  0  0  0  0  0  0  0
    5.3932   45.0859   76.1422 O   0  0  0  0  0  0  0  0  0  0  0  0
    8.0733   40.1551   71.0994 C   0  0  0  0  0  0  0  0  0  0  0  0
    3.2601   44.4452   75.9743 O   0  0  0  0  0  0  0  0  0  0  0  0
    7.5148   40.7253   69.9485 N   0  0  0  0  0  0  0  0  0  0  0  0
    8.3386   41.4278   69.0793 C   0  0  0  0  0  0  0  0  0  0  0  0
    9.6841   41.5652   69.3938 C   0  0  0  0  0  0  0  0  0  0  0  0
    7.8702   41.9456   68.0685 O   0  0  0  0  0  0  0  0  0  0  0  0
   10.3450   42.1130   67.2108 C   0  0  0  0  0  0  0  0  0  0  0  0
   10.5596   42.2005   68.5201 N   0  0  0  0  0  0  0  0  0  0  0  0
   10.5810   43.0686   66.4750 O   0  0  0  0  0  0  0  0  0  0  0  0
   11.8038   42.7815   69.0363 C   0  0  2  0  0  0  0  0  0  0  0  0
   12.5096   41.7381   69.9061 C   0  0  0  0  0  0  0  0  0  0  0  0
   10.1969   40.9551   70.5306 C   0  0  0  0  0  0  0  0  0  0  0  0
   11.5616   41.0576   70.8225 N   0  0  0  0  0  0  0  0  0  0  0  0
   11.5078   44.0415   69.8569 C   0  0  0  0  0  0  0  0  0  0  0  0
   10.1777   44.5566   69.5092 N   0  0  0  0  0  0  0  0  0  0  0  0
    7.0263   44.4112   72.1813 C   0  0  0  0  0  0  0  0  0  0  0  0
    8.3079   44.7495   72.6088 C   0  0  0  0  0  0  0  0  0  0  0  0
    9.3694   44.7768   71.7065 C   0  0  0  0  0  0  0  0  0  0  0  0
    9.1522   44.5102   70.3588 C   0  0  0  0  0  0  0  0  0  0  0  0
    7.8712   44.1810   69.9286 C   0  0  0  0  0  0  0  0  0  0  0  0
    6.8154   44.1186   70.8369 C   0  0  0  0  0  0  0  0  0  0  0  0
    4.4917   44.2871   75.7905 C   0  0  0  0  0  0  0  0  0  0  0  0
  1  3  1  0  0  0  0
  2  1  1  6  0  0  0
  2  6  1  0  0  0  0
  2 34  1  0  0  0  0
  3  4  2  0  0  0  0
  3 28  1  0  0  0  0
  5 13  1  0  0  0  0
  6  7  1  0  0  0  0
  7  8  1  0  0  0  0
  8  9  1  0  0  0  0
  8 10  1  0  0  0  0
 11 13  2  0  0  0  0
 11 24  1  0  0  0  0
 12 34  1  0  0  0  0
 13 15  1  0  0  0  0
 14 34  1  0  0  0  0
 15 16  1  0  0  0  0
 16 17  1  0  0  0  0
 16 18  2  0  0  0  0
 17 20  1  0  0  0  0
 17 24  2  0  0  0  0
 19 21  1  0  0  0  0
 19 20  1  0  0  0  0
 20 22  1  0  0  0  0
 22 23  1  0  0  0  0
 22 26  1  1  0  0  0
 23 25  1  0  0  0  0
 24 25  1  0  0  0  0
 26 27  1  0  0  0  0
 27 31  1  0  0  0  0
 28 29  2  0  0  0  0
 28 33  1  0  0  0  0
 29 30  1  0  0  0  0
 30 31  2  0  0  0  0
 31 32  1  0  0  0  0
 32 33  2  0  0  0  0
M  END
>  <CHROM.1>
-160.59432458,-64.23081202,-46.83155974,-169.86569360,-56.01060599,143.53829033
-19.64398491,110.72002134,39.80019655,-72.40645123,7.92353412,42.47407759
71.98433728,2.74987468,-0.87417388,2.66727942

>  <Name>
ligand

>  <RI>
0

>  <Rbt.Current_Directory>
/home/itssahil/PROJECTS/Mol_Feturizer/New_Systems/rnas/3SUH

>  <Rbt.Executable>
rbdock ($Id: //depot/dev/client3/rdock/2013.1/src/exe/rbdock.cxx#4 $)

>  <Rbt.Library>
libRbt.so (2013.1, Build901 2013/11/27)

>  <Rbt.Parameter_File>
/export/apps/rDock/src/rDock_2013.1_src/data/scripts/dock_solv.prm

>  <Rbt.Receptor>
prm/pocket_docking_3.prm

>  <SCORE>
-7.40381

>  <SCORE.INTER>
-5.6782

>  <SCORE.INTER.CONST>
1

>  <SCORE.INTER.POLAR>
0

>  <SCORE.INTER.ROT>
10

>  <SCORE.INTER.SOLV>
15.6793

>  <SCORE.INTER.VDW>
-19.2786

>  <SCORE.INTER.norm>
-0.167006

>  <SCORE.INTRA>
-1.73218

>  <SCORE.INTRA.DIHEDRAL>
-0.232993

>  <SCORE.INTRA.DIHEDRAL.0>
12.2703

>  <SCORE.INTRA.POLAR>
0

>  <SCORE.INTRA.POLAR.0>
0

>  <SCORE.INTRA.REPUL>
0

>  <SCORE.INTRA.REPUL.0>
0

>  <SCORE.INTRA.SOLV>
2.64585

>  <SCORE.INTRA.SOLV.lig_0>
-64.3214

>  <SCORE.INTRA.VDW>
-2.93861

>  <SCORE.INTRA.VDW.0>
-1.67301

>  <SCORE.INTRA.norm>
-0.0509464

>  <SCORE.RESTR>
0.00656342

>  <SCORE.RESTR.CAVITY>
0.00656342

>  <SCORE.RESTR.norm>
0.000193042

>  <SCORE.SYSTEM>
0

>  <SCORE.SYSTEM.CONST>
0

>  <SCORE.SYSTEM.DIHEDRAL>
0

>  <SCORE.SYSTEM.SOLV>
0

>  <SCORE.SYSTEM.norm>
0

>  <SCORE.heavy>
34

>  <SCORE.norm>
-0.217759

>  <RMSD>
4.319

$$$$
ligand
 OpenBabel11021811483D
libRbt.so/2013.1/901 2013/11/27
 34 36  0  0  0  0  0  0  0  0999 V2000
    6.0617   42.0088   73.9210 N   0  0  0  0  0  0  0  0  0  0  0  0
    5.6066   42.0283   75.3308 C   0  0  1  0  0  0  0  0  0  0  0  0
    7.1664   41.3781   73.5017 C   0  0  0  0  0  0  0  0  0  0  0  0
    7.9280   40.7459   74.2389 O   0  0  0  0  0  0  0  0  0  0  0  0
   12.9071   46.2908   71.2956 N   0  0  0  0  0  0  0  0  0  0  0  0
    4.3343   42.8834   75.4547 C   0  0  0  0  0  0  0  0  0  0  0  0
    4.5726   44.3231   74.9795 C   0  0  0  0  0  0  0  0  0  0  0  0
    3.2809   45.1520   75.0464 C   0  0  0  0  0  0  0  0  0  0  0  0
    3.1995   46.0122   75.9544 O   0  0  0  0  0  0  0  0  0  0  0  0
    2.4037   44.9089   74.1860 O   0  0  0  0  0  0  0  0  0  0  0  0
   12.3952   45.1828   69.3287 N   0  0  0  0  0  0  0  0  0  0  0  0
    5.1164   40.4864   77.0999 O   0  0  0  0  0  0  0  0  0  0  0  0
   12.4468   45.2094   70.6718 C   0  0  0  0  0  0  0  0  0  0  0  0
    5.3615   39.6731   75.0341 O   0  0  0  0  0  0  0  0  0  0  0  0
   12.0202   44.1089   71.4259 N   0  0  0  0  0  0  0  0  0  0  0  0
   11.5372   42.9879   70.7644 C   0  0  0  0  0  0  0  0  0  0  0  0
   11.4673   43.0053   69.3776 C   0  0  0  0  0  0  0  0  0  0  0  0
   11.1477   42.0142   71.4042 O   0  0  0  0  0  0  0  0  0  0  0  0
   11.3305   40.6743   69.1548 C   0  0  0  0  0  0  0  0  0  0  0  0
   11.0555   41.8814   68.6700 N   0  0  0  0  0  0  0  0  0  0  0  0
   12.4950   40.3242   69.3328 O   0  0  0  0  0  0  0  0  0  0  0  0
   10.5087   42.0370   67.3176 C   0  0  2  0  0  0  0  0  0  0  0  0
   11.4579   42.9188   66.5022 C   0  0  0  0  0  0  0  0  0  0  0  0
   11.9314   44.1080   68.6732 C   0  0  0  0  0  0  0  0  0  0  0  0
   11.9012   44.1058   67.2743 N   0  0  0  0  0  0  0  0  0  0  0  0
    9.1141   42.6700   67.3721 C   0  0  0  0  0  0  0  0  0  0  0  0
    8.1549   41.7056   67.9246 N   0  0  0  0  0  0  0  0  0  0  0  0
    7.4100   41.4522   71.9835 C   0  0  0  0  0  0  0  0  0  0  0  0
    7.0848   42.6032   71.2698 C   0  0  0  0  0  0  0  0  0  0  0  0
    7.3572   42.6894   69.9060 C   0  0  0  0  0  0  0  0  0  0  0  0
    7.9163   41.6089   69.2321 C   0  0  0  0  0  0  0  0  0  0  0  0
    8.2336   40.4554   69.9415 C   0  0  0  0  0  0  0  0  0  0  0  0
    7.9942   40.3813   71.3129 C   0  0  0  0  0  0  0  0  0  0  0  0
    5.3368   40.6086   75.8706 C   0  0  0  0  0  0  0  0  0  0  0  0
  1  3  1  0  0  0  0
  2  1  1  6  0  0  0
  2  6  1  0  0  0  0
  2 34  1  0  0  0  0
  3  4  2  0  0  0  0
  3 28  1  0  0  0  0
  5 13  1  0  0  0  0
  6  7  1  0  0  0  0
  7  8  1  0  0  0  0
  8  9  1  0  0  0  0
  8 10  1  0  0  0  0
 11 13  2  0  0  0  0
 11 24  1  0  0  0  0
 12 34  1  0  0  0  0
 13 15  1  0  0  0  0
 14 34  1  0  0  0  0
 15 16  1  0  0  0  0
 16 17  1  0  0  0  0
 16 18  2  0  0  0  0
 17 20  1  0  0  0  0
 17 24  2  0  0  0  0
 19 21  1  0  0  0  0
 19 20  1  0  0  0  0
 20 22  1  0  0  0  0
 22 23  1  0  0  0  0
 22 26  1  1  0  0  0
 23 25  1  0  0  0  0
 24 25  1  0  0  0  0
 26 27  1  0  0  0  0
 27 31  1  0  0  0  0
 28 29  2  0  0  0  0
 28 33  1  0  0  0  0
 29 30  1  0  0  0  0
 30 31  2  0  0  0  0
 31 32  1  0  0  0  0
 32 33  2  0  0  0  0
M  END
>  <CHROM.1>
178.06764561,-58.70422612,170.87318620,177.40079572,107.11564070,-60.44465890
-70.73752262,89.13996478,63.60715506,36.04484810,8.43335358,42.60114722,71.57372572
3.06959028,0.74791453,0.13597375

>  <Name>
ligand

>  <RI>
0

>  <Rbt.Current_Directory>
/home/itssahil/PROJECTS/Mol_Feturizer/New_Systems/rnas/3SUH

>  <Rbt.Executable>
rbdock ($Id: //depot/dev/client3/rdock/2013.1/src/exe/rbdock.cxx#4 $)

>  <Rbt.Library>
libRbt.so (2013.1, Build901 2013/11/27)

>  <Rbt.Parameter_File>
/export/apps/rDock/src/rDock_2013.1_src/data/scripts/dock_solv.prm

>  <Rbt.Receptor>
prm/pocket_docking_7.prm

>  <SCORE>
-18.5487

>  <SCORE.INTER>
-12.9481

>  <SCORE.INTER.CONST>
1

>  <SCORE.INTER.POLAR>
0

>  <SCORE.INTER.ROT>
10

>  <SCORE.INTER.SOLV>
19.7863

>  <SCORE.INTER.VDW>
-25.4942

>  <SCORE.INTER.norm>
-0.380826

>  <SCORE.INTRA>
-5.60067

>  <SCORE.INTRA.DIHEDRAL>
-4.99188

>  <SCORE.INTRA.DIHEDRAL.0>
12.2703

>  <SCORE.INTRA.POLAR>
0

>  <SCORE.INTRA.POLAR.0>
0

>  <SCORE.INTRA.REPUL>
0

>  <SCORE.INTRA.REPUL.0>
0

>  <SCORE.INTRA.SOLV>
-0.184138

>  <SCORE.INTRA.SOLV.lig_0>
-64.3214

>  <SCORE.INTRA.VDW>
-3.01266

>  <SCORE.INTRA.VDW.0>
-1.67301

>  <SCORE.INTRA.norm>
-0.164726

>  <SCORE.RESTR>
0

>  <SCORE.RESTR.CAVITY>
0

>  <SCORE.RESTR.norm>
0

>  <SCORE.SYSTEM>
0

>  <SCORE.SYSTEM.CONST>
0

>  <SCORE.SYSTEM.DIHEDRAL>
0

>  <SCORE.SYSTEM.SOLV>
0

>  <SCORE.SYSTEM.norm>
0

>  <SCORE.heavy>
34

>  <SCORE.norm>
-0.545551

>  <RMSD>
4.329

$$$$
ligand
 OpenBabel11021811483D
libRbt.so/2013.1/901 2013/11/27
 34 36  0  0  0  0  0  0  0  0999 V2000
    6.1683   42.7445   73.1374 N   0  0  0  0  0  0  0  0  0  0  0  0
    5.4232   43.0287   74.3859 C   0  0  1  0  0  0  0  0  0  0  0  0
    6.4623   41.5104   72.7076 C   0  0  0  0  0  0  0  0  0  0  0  0
    6.1486   40.4747   73.3010 O   0  0  0  0  0  0  0  0  0  0  0  0
    9.5750   46.1999   72.7026 N   0  0  0  0  0  0  0  0  0  0  0  0
    6.3412   42.8113   75.6005 C   0  0  0  0  0  0  0  0  0  0  0  0
    5.5336   42.5665   76.8823 C   0  0  0  0  0  0  0  0  0  0  0  0
    4.6658   41.3046   76.7606 C   0  0  0  0  0  0  0  0  0  0  0  0
    5.2499   40.1985   76.8414 O   0  0  0  0  0  0  0  0  0  0  0  0
    3.4363   41.4739   76.5919 O   0  0  0  0  0  0  0  0  0  0  0  0
   10.5362   45.5347   70.7046 N   0  0  0  0  0  0  0  0  0  0  0  0
    5.5292   45.3613   73.8424 O   0  0  0  0  0  0  0  0  0  0  0  0
    9.9931   45.2281   71.8956 C   0  0  0  0  0  0  0  0  0  0  0  0
    3.7628   44.6301   74.9975 O   0  0  0  0  0  0  0  0  0  0  0  0
    9.8610   43.8934   72.2991 N   0  0  0  0  0  0  0  0  0  0  0  0
   10.2962   42.8877   71.4467 C   0  0  0  0  0  0  0  0  0  0  0  0
   10.8229   43.2373   70.2103 C   0  0  0  0  0  0  0  0  0  0  0  0
   10.1816   41.7092   71.7740 O   0  0  0  0  0  0  0  0  0  0  0  0
   11.9090   41.1866   69.8683 C   0  0  0  0  0  0  0  0  0  0  0  0
   11.3340   42.2691   69.3532 N   0  0  0  0  0  0  0  0  0  0  0  0
   11.7672   40.0901   69.3318 O   0  0  0  0  0  0  0  0  0  0  0  0
   11.4124   42.5438   67.9143 C   0  0  2  0  0  0  0  0  0  0  0  0
   12.0775   43.9074   67.7098 C   0  0  0  0  0  0  0  0  0  0  0  0
   10.9619   44.5757   69.8685 C   0  0  0  0  0  0  0  0  0  0  0  0
   11.5337   44.9268   68.6407 N   0  0  0  0  0  0  0  0  0  0  0  0
   10.0128   42.5390   67.2900 C   0  0  0  0  0  0  0  0  0  0  0  0
    9.2599   41.3753   67.7737 N   0  0  0  0  0  0  0  0  0  0  0  0
    7.1987   41.4602   71.3567 C   0  0  0  0  0  0  0  0  0  0  0  0
    7.2197   42.5736   70.5202 C   0  0  0  0  0  0  0  0  0  0  0  0
    7.9332   42.5448   69.3236 C   0  0  0  0  0  0  0  0  0  0  0  0
    8.5960   41.3875   68.9291 C   0  0  0  0  0  0  0  0  0  0  0  0
    8.5686   40.2718   69.7590 C   0  0  0  0  0  0  0  0  0  0  0  0
    7.8846   40.3112   70.9732 C   0  0  0  0  0  0  0  0  0  0  0  0
    4.8584   44.4641   74.4078 C   0  0  0  0  0  0  0  0  0  0  0  0
  1  3  1  0  0  0  0
  2  1  1  6  0  0  0
  2  6  1  0  0  0  0
  2 34  1  0  0  0  0
  3  4  2  0  0  0  0
  3 28  1  0  0  0  0
  5 13  1  0  0  0  0
  6  7  1  0  0  0  0
  7  8  1  0  0  0  0
  8  9  1  0  0  0  0
  8 10  1  0  0  0  0
 11 13  2  0  0  0  0
 11 24  1  0  0  0  0
 12 34  1  0  0  0  0
 13 15  1  0  0  0  0
 14 34  1  0  0  0  0
 15 16  1  0  0  0  0
 16 17  1  0  0  0  0
 16 18  2  0  0  0  0
 17 20  1  0  0  0  0
 17 24  2  0  0  0  0
 19 21  1  0  0  0  0
 19 20  1  0  0  0  0
 20 22  1  0  0  0  0
 22 23  1  0  0  0  0
 22 26  1  1  0  0  0
 23 25  1  0  0  0  0
 24 25  1  0  0  0  0
 26 27  1  0  0  0  0
 27 31  1  0  0  0  0
 28 29  2  0  0  0  0
 28 33  1  0  0  0  0
 29 30  1  0  0  0  0
 30 31  2  0  0  0  0
 31 32  1  0  0  0  0
 32 33  2  0  0  0  0
M  END
>  <CHROM.1>
75.44468222,-158.38778312,-33.52866082,61.24222998,74.91263612,142.97731897
-45.61306558,84.37754271,37.56115134,-16.10065895,8.26791928,42.67514405
71.82244809,-2.94803529,-0.81597718,-2.83455294

>  <Name>
ligand

>  <RI>
0

>  <Rbt.Current_Directory>
/home/itssahil/PROJECTS/Mol_Feturizer/New_Systems/rnas/3SUH

>  <Rbt.Executable>
rbdock ($Id: //depot/dev/client3/rdock/2013.1/src/exe/rbdock.cxx#4 $)

>  <Rbt.Library>
libRbt.so (2013.1, Build901 2013/11/27)

>  <Rbt.Parameter_File>
/export/apps/rDock/src/rDock_2013.1_src/data/scripts/dock_solv.prm

>  <Rbt.Receptor>
prm/pocket_docking_4.prm

>  <SCORE>
-14.9078

>  <SCORE.INTER>
-9.34764

>  <SCORE.INTER.CONST>
1

>  <SCORE.INTER.POLAR>
0

>  <SCORE.INTER.ROT>
10

>  <SCORE.INTER.SOLV>
16.1729

>  <SCORE.INTER.VDW>
-21.8894

>  <SCORE.INTER.norm>
-0.274931

>  <SCORE.INTRA>
-5.56021

>  <SCORE.INTRA.DIHEDRAL>
-3.05008

>  <SCORE.INTRA.DIHEDRAL.0>
12.2703

>  <SCORE.INTRA.POLAR>
0

>  <SCORE.INTRA.POLAR.0>
0

>  <SCORE.INTRA.REPUL>
0

>  <SCORE.INTRA.REPUL.0>
0

>  <SCORE.INTRA.SOLV>
1.4529

>  <SCORE.INTRA.SOLV.lig_0>
-64.3214

>  <SCORE.INTRA.VDW>
-4.76162

>  <SCORE.INTRA.VDW.0>
-1.67301

>  <SCORE.INTRA.norm>
-0.163536

>  <SCORE.RESTR>
0

>  <SCORE.RESTR.CAVITY>
0

>  <SCORE.RESTR.norm>
0

>  <SCORE.SYSTEM>
0

>  <SCORE.SYSTEM.CONST>
0

>  <SCORE.SYSTEM.DIHEDRAL>
0

>  <SCORE.SYSTEM.SOLV>
0

>  <SCORE.SYSTEM.norm>
0

>  <SCORE.heavy>
34

>  <SCORE.norm>
-0.438466

>  <RMSD>
4.335

$$$$
ligand
 OpenBabel11021811483D
libRbt.so/2013.1/901 2013/11/27
 34 36  0  0  0  0  0  0  0  0999 V2000
    5.3891   42.6822   74.3301 N   0  0  0  0  0  0  0  0  0  0  0  0
    4.8601   42.8400   75.7049 C   0  0  1  0  0  0  0  0  0  0  0  0
    6.0189   43.6535   73.6564 C   0  0  0  0  0  0  0  0  0  0  0  0
    6.2276   44.7855   74.1015 O   0  0  0  0  0  0  0  0  0  0  0  0
    9.8167   46.7074   71.0300 N   0  0  0  0  0  0  0  0  0  0  0  0
    3.3667   43.2034   75.6490 C   0  0  0  0  0  0  0  0  0  0  0  0
    3.1323   44.5134   74.8846 C   0  0  0  0  0  0  0  0  0  0  0  0
    1.6322   44.7927   74.7065 C   0  0  0  0  0  0  0  0  0  0  0  0
    1.1148   45.6451   75.4660 O   0  0  0  0  0  0  0  0  0  0  0  0
    1.0359   44.1492   73.8125 O   0  0  0  0  0  0  0  0  0  0  0  0
   10.0447   45.0853   69.3945 N   0  0  0  0  0  0  0  0  0  0  0  0
    5.2598   40.4876   75.9378 O   0  0  0  0  0  0  0  0  0  0  0  0
   10.0132   45.4356   70.6920 C   0  0  0  0  0  0  0  0  0  0  0  0
    4.9935   41.6979   77.7961 O   0  0  0  0  0  0  0  0  0  0  0  0
   10.1850   44.4748   71.6966 N   0  0  0  0  0  0  0  0  0  0  0  0
   10.3845   43.1501   71.3321 C   0  0  0  0  0  0  0  0  0  0  0  0
   10.3795   42.8170   69.9839 C   0  0  0  0  0  0  0  0  0  0  0  0
   10.5275   42.2877   72.1952 O   0  0  0  0  0  0  0  0  0  0  0  0
   11.4818   40.7678   70.2800 C   0  0  0  0  0  0  0  0  0  0  0  0
   10.6433   41.5162   69.5697 N   0  0  0  0  0  0  0  0  0  0  0  0
   12.6966   40.8823   70.1338 O   0  0  0  0  0  0  0  0  0  0  0  0
   10.1579   41.0597   68.2627 C   0  0  2  0  0  0  0  0  0  0  0  0
   10.5484   42.0947   67.2046 C   0  0  0  0  0  0  0  0  0  0  0  0
   10.2363   43.8100   69.0243 C   0  0  0  0  0  0  0  0  0  0  0  0
   10.2759   43.4785   67.6655 N   0  0  0  0  0  0  0  0  0  0  0  0
    8.6365   40.8779   68.2888 C   0  0  0  0  0  0  0  0  0  0  0  0
    7.9887   42.1698   68.5469 N   0  0  0  0  0  0  0  0  0  0  0  0
    6.5268   43.2418   72.2627 C   0  0  0  0  0  0  0  0  0  0  0  0
    6.6826   44.1926   71.2568 C   0  0  0  0  0  0  0  0  0  0  0  0
    7.1949   43.8280   70.0133 C   0  0  0  0  0  0  0  0  0  0  0  0
    7.5146   42.5007   69.7475 C   0  0  0  0  0  0  0  0  0  0  0  0
    7.3512   41.5485   70.7479 C   0  0  0  0  0  0  0  0  0  0  0  0
    6.8722   41.9184   72.0038 C   0  0  0  0  0  0  0  0  0  0  0  0
    5.0562   41.5641   76.5496 C   0  0  0  0  0  0  0  0  0  0  0  0
  1  3  1  0  0  0  0
  2  1  1  6  0  0  0
  2  6  1  0  0  0  0
  2 34  1  0  0  0  0
  3  4  2  0  0  0  0
  3 28  1  0  0  0  0
  5 13  1  0  0  0  0
  6  7  1  0  0  0  0
  7  8  1  0  0  0  0
  8  9  1  0  0  0  0
  8 10  1  0  0  0  0
 11 13  2  0  0  0  0
 11 24  1  0  0  0  0
 12 34  1  0  0  0  0
 13 15  1  0  0  0  0
 14 34  1  0  0  0  0
 15 16  1  0  0  0  0
 16 17  1  0  0  0  0
 16 18  2  0  0  0  0
 17 20  1  0  0  0  0
 17 24  2  0  0  0  0
 19 21  1  0  0  0  0
 19 20  1  0  0  0  0
 20 22  1  0  0  0  0
 22 23  1  0  0  0  0
 22 26  1  1  0  0  0
 23 25  1  0  0  0  0
 24 25  1  0  0  0  0
 26 27  1  0  0  0  0
 27 31  1  0  0  0  0
 28 29  2  0  0  0  0
 28 33  1  0  0  0  0
 29 30  1  0  0  0  0
 30 31  2  0  0  0  0
 31 32  1  0  0  0  0
 32 33  2  0  0  0  0
M  END
>  <CHROM.1>
95.76080577,-59.71258475,-19.35650827,174.06613112,102.27969680,-81.49364053
62.85376682,-101.54469908,165.34493847,153.25033642,7.43829084,43.04116790
71.96047308,-2.71001318,0.59436149,-0.84730228

>  <Name>
ligand

>  <RI>
0

>  <Rbt.Current_Directory>
/home/itssahil/PROJECTS/Mol_Feturizer/New_Systems/rnas/3SUH

>  <Rbt.Executable>
rbdock ($Id: //depot/dev/client3/rdock/2013.1/src/exe/rbdock.cxx#4 $)

>  <Rbt.Library>
libRbt.so (2013.1, Build901 2013/11/27)

>  <Rbt.Parameter_File>
/export/apps/rDock/src/rDock_2013.1_src/data/scripts/dock_solv.prm

>  <Rbt.Receptor>
prm/pocket_docking_6.prm

>  <SCORE>
-14.3845

>  <SCORE.INTER>
-9.9613

>  <SCORE.INTER.CONST>
1

>  <SCORE.INTER.POLAR>
0

>  <SCORE.INTER.ROT>
10

>  <SCORE.INTER.SOLV>
15.4106

>  <SCORE.INTER.VDW>
-22.0444

>  <SCORE.INTER.norm>
-0.292979

>  <SCORE.INTRA>
-4.42324

>  <SCORE.INTRA.DIHEDRAL>
-4.32011

>  <SCORE.INTRA.DIHEDRAL.0>
12.2703

>  <SCORE.INTRA.POLAR>
0

>  <SCORE.INTRA.POLAR.0>
0

>  <SCORE.INTRA.REPUL>
0

>  <SCORE.INTRA.REPUL.0>
0

>  <SCORE.INTRA.SOLV>
2.40708

>  <SCORE.INTRA.SOLV.lig_0>
-64.3214

>  <SCORE.INTRA.VDW>
-3.46672

>  <SCORE.INTRA.VDW.0>
-1.67301

>  <SCORE.INTRA.norm>
-0.130095

>  <SCORE.RESTR>
0

>  <SCORE.RESTR.CAVITY>
0

>  <SCORE.RESTR.norm>
0

>  <SCORE.SYSTEM>
0

>  <SCORE.SYSTEM.CONST>
0

>  <SCORE.SYSTEM.DIHEDRAL>
0

>  <SCORE.SYSTEM.SOLV>
0

>  <SCORE.SYSTEM.norm>
0

>  <SCORE.heavy>
34

>  <SCORE.norm>
-0.423074

>  <RMSD>
4.336

$$$$
ligand
 OpenBabel11021811483D
libRbt.so/2013.1/901 2013/11/27
 34 36  0  0  0  0  0  0  0  0999 V2000
    5.5848   43.0421   73.7722 N   0  0  0  0  0  0  0  0  0  0  0  0
    4.9755   43.2929   75.0991 C   0  0  1  0  0  0  0  0  0  0  0  0
    6.3739   41.9950   73.4988 C   0  0  0  0  0  0  0  0  0  0  0  0
    6.6830   41.1250   74.3178 O   0  0  0  0  0  0  0  0  0  0  0  0
   13.1941   46.4136   71.2126 N   0  0  0  0  0  0  0  0  0  0  0  0
    5.9989   43.9780   76.0203 C   0  0  0  0  0  0  0  0  0  0  0  0
    6.4104   45.3551   75.4821 C   0  0  0  0  0  0  0  0  0  0  0  0
    7.1622   45.2291   74.1482 C   0  0  0  0  0  0  0  0  0  0  0  0
    6.6166   45.7257   73.1349 O   0  0  0  0  0  0  0  0  0  0  0  0
    8.2677   44.6408   74.1717 O   0  0  0  0  0  0  0  0  0  0  0  0
   12.5476   45.2878   69.2962 N   0  0  0  0  0  0  0  0  0  0  0  0
    2.8352   44.0256   75.8928 O   0  0  0  0  0  0  0  0  0  0  0  0
   12.6981   45.3242   70.6316 C   0  0  0  0  0  0  0  0  0  0  0  0
    3.6277   44.9363   74.0136 O   0  0  0  0  0  0  0  0  0  0  0  0
   12.3377   44.2257   71.4222 N   0  0  0  0  0  0  0  0  0  0  0  0
   11.8165   43.0963   70.8054 C   0  0  0  0  0  0  0  0  0  0  0  0
   11.6442   43.1035   69.4275 C   0  0  0  0  0  0  0  0  0  0  0  0
   11.4836   42.1241   71.4785 O   0  0  0  0  0  0  0  0  0  0  0  0
   11.5108   40.7699   69.2304 C   0  0  0  0  0  0  0  0  0  0  0  0
   11.1906   41.9715   68.7596 N   0  0  0  0  0  0  0  0  0  0  0  0
   10.6441   40.0280   69.6873 O   0  0  0  0  0  0  0  0  0  0  0  0
   10.5440   42.1132   67.4504 C   0  0  2  0  0  0  0  0  0  0  0  0
   11.4229   42.9968   66.5614 C   0  0  0  0  0  0  0  0  0  0  0  0
   12.0456   44.2048   68.6836 C   0  0  0  0  0  0  0  0  0  0  0  0
   11.9121   44.1926   67.2908 N   0  0  0  0  0  0  0  0  0  0  0  0
    9.1520   42.7355   67.6038 C   0  0  0  0  0  0  0  0  0  0  0  0
    8.2202   41.7360   68.1404 N   0  0  0  0  0  0  0  0  0  0  0  0
    6.8490   41.9143   72.0367 C   0  0  0  0  0  0  0  0  0  0  0  0
    6.8582   43.0510   71.2318 C   0  0  0  0  0  0  0  0  0  0  0  0
    7.3406   42.9881   69.9260 C   0  0  0  0  0  0  0  0  0  0  0  0
    7.7769   41.7783   69.3964 C   0  0  0  0  0  0  0  0  0  0  0  0
    7.7601   40.6404   70.1959 C   0  0  0  0  0  0  0  0  0  0  0  0
    7.3109   40.7098   71.5138 C   0  0  0  0  0  0  0  0  0  0  0  0
    3.7030   44.1589   74.9963 C   0  0  0  0  0  0  0  0  0  0  0  0
  1  3  1  0  0  0  0
  2  1  1  6  0  0  0
  2  6  1  0  0  0  0
  2 34  1  0  0  0  0
  3  4  2  0  0  0  0
  3 28  1  0  0  0  0
  5 13  1  0  0  0  0
  6  7  1  0  0  0  0
  7  8  1  0  0  0  0
  8  9  1  0  0  0  0
  8 10  1  0  0  0  0
 11 13  2  0  0  0  0
 11 24  1  0  0  0  0
 12 34  1  0  0  0  0
 13 15  1  0  0  0  0
 14 34  1  0  0  0  0
 15 16  1  0  0  0  0
 16 17  1  0  0  0  0
 16 18  2  0  0  0  0
 17 20  1  0  0  0  0
 17 24  2  0  0  0  0
 19 21  1  0  0  0  0
 19 20  1  0  0  0  0
 20 22  1  0  0  0  0
 22 23  1  0  0  0  0
 22 26  1  1  0  0  0
 23 25  1  0  0  0  0
 24 25  1  0  0  0  0
 26 27  1  0  0  0  0
 27 31  1  0  0  0  0
 28 29  2  0  0  0  0
 28 33  1  0  0  0  0
 29 30  1  0  0  0  0
 30 31  2  0  0  0  0
 31 32  1  0  0  0  0
 32 33  2  0  0  0  0
M  END
>  <CHROM.1>
81.90431342,63.01961764,153.10761728,-65.14456277,115.49833987,113.14087265
-74.87775777,106.76697786,45.52714229,21.61922358,8.63456443,43.22103829
71.43099116,2.56406633,0.50151795,0.79937262

>  <Name>
ligand

>  <RI>
0

>  <Rbt.Current_Directory>
/home/itssahil/PROJECTS/Mol_Feturizer/New_Systems/rnas/3SUH

>  <Rbt.Executable>
rbdock ($Id: //depot/dev/client3/rdock/2013.1/src/exe/rbdock.cxx#4 $)

>  <Rbt.Library>
libRbt.so (2013.1, Build901 2013/11/27)

>  <Rbt.Parameter_File>
/export/apps/rDock/src/rDock_2013.1_src/data/scripts/dock_solv.prm

>  <Rbt.Receptor>
prm/pocket_docking_7.prm

>  <SCORE>
-18.9029

>  <SCORE.INTER>
-14.4713

>  <SCORE.INTER.CONST>
1

>  <SCORE.INTER.POLAR>
0

>  <SCORE.INTER.ROT>
10

>  <SCORE.INTER.SOLV>
20.3597

>  <SCORE.INTER.VDW>
-26.7008

>  <SCORE.INTER.norm>
-0.425626

>  <SCORE.INTRA>
-4.43167

>  <SCORE.INTRA.DIHEDRAL>
-3.43493

>  <SCORE.INTRA.DIHEDRAL.0>
12.2703

>  <SCORE.INTRA.POLAR>
0

>  <SCORE.INTRA.POLAR.0>
0

>  <SCORE.INTRA.REPUL>
0

>  <SCORE.INTRA.REPUL.0>
0

>  <SCORE.INTRA.SOLV>
0.701508

>  <SCORE.INTRA.SOLV.lig_0>
-64.3214

>  <SCORE.INTRA.VDW>
-3.06496

>  <SCORE.INTRA.VDW.0>
-1.67301

>  <SCORE.INTRA.norm>
-0.130343

>  <SCORE.RESTR>
0

>  <SCORE.RESTR.CAVITY>
0

>  <SCORE.RESTR.norm>
0

>  <SCORE.SYSTEM>
0

>  <SCORE.SYSTEM.CONST>
0

>  <SCORE.SYSTEM.DIHEDRAL>
0

>  <SCORE.SYSTEM.SOLV>
0

>  <SCORE.SYSTEM.norm>
0

>  <SCORE.heavy>
34

>  <SCORE.norm>
-0.555969

>  <RMSD>
4.356

$$$$
ligand
 OpenBabel11021811483D
libRbt.so/2013.1/901 2013/11/27
 34 36  0  0  0  0  0  0  0  0999 V2000
    5.4155   42.7707   74.3221 N   0  0  0  0  0  0  0  0  0  0  0  0
    4.8550   42.9516   75.6815 C   0  0  1  0  0  0  0  0  0  0  0  0
    5.9852   43.7535   73.6125 C   0  0  0  0  0  0  0  0  0  0  0  0
    6.1059   44.9163   74.0078 O   0  0  0  0  0  0  0  0  0  0  0  0
    9.6129   46.7776   70.9102 N   0  0  0  0  0  0  0  0  0  0  0  0
    3.3395   43.1971   75.5909 C   0  0  0  0  0  0  0  0  0  0  0  0
    3.0205   44.4773   74.8069 C   0  0  0  0  0  0  0  0  0  0  0  0
    1.5133   44.6034   74.5372 C   0  0  0  0  0  0  0  0  0  0  0  0
    1.1051   44.2658   73.4012 O   0  0  0  0  0  0  0  0  0  0  0  0
    0.8017   45.0324   75.4744 O   0  0  0  0  0  0  0  0  0  0  0  0
    9.9090   45.1049   69.3378 N   0  0  0  0  0  0  0  0  0  0  0  0
    5.0021   40.5930   76.0855 O   0  0  0  0  0  0  0  0  0  0  0  0
    9.8479   45.5003   70.6213 C   0  0  0  0  0  0  0  0  0  0  0  0
    5.4717   41.9799   77.7722 O   0  0  0  0  0  0  0  0  0  0  0  0
   10.0291   44.5809   71.6622 N   0  0  0  0  0  0  0  0  0  0  0  0
   10.2688   43.2498   71.3487 C   0  0  0  0  0  0  0  0  0  0  0  0
   10.2937   42.8689   70.0136 C   0  0  0  0  0  0  0  0  0  0  0  0
   10.4208   42.4229   72.2444 O   0  0  0  0  0  0  0  0  0  0  0  0
   11.4445   40.8616   70.3996 C   0  0  0  0  0  0  0  0  0  0  0  0
   10.5979   41.5616   69.6504 N   0  0  0  0  0  0  0  0  0  0  0  0
   11.1292   39.7534   70.8271 O   0  0  0  0  0  0  0  0  0  0  0  0
   10.1453   41.0460   68.3537 C   0  0  2  0  0  0  0  0  0  0  0  0
   10.5252   42.0527   67.2649 C   0  0  0  0  0  0  0  0  0  0  0  0
   10.1397   43.8228   69.0167 C   0  0  0  0  0  0  0  0  0  0  0  0
   10.2093   43.4442   67.6715 N   0  0  0  0  0  0  0  0  0  0  0  0
    8.6289   40.8246   68.3639 C   0  0  0  0  0  0  0  0  0  0  0  0
    7.9431   42.1096   68.5476 N   0  0  0  0  0  0  0  0  0  0  0  0
    6.5429   43.3172   72.2455 C   0  0  0  0  0  0  0  0  0  0  0  0
    6.8929   41.9889   72.0152 C   0  0  0  0  0  0  0  0  0  0  0  0
    7.3449   41.5849   70.7605 C   0  0  0  0  0  0  0  0  0  0  0  0
    7.4946   42.5132   69.7358 C   0  0  0  0  0  0  0  0  0  0  0  0
    7.1540   43.8418   69.9667 C   0  0  0  0  0  0  0  0  0  0  0  0
    6.6679   44.2403   71.2111 C   0  0  0  0  0  0  0  0  0  0  0  0
    5.1341   41.7351   76.5883 C   0  0  0  0  0  0  0  0  0  0  0  0
  1  3  1  0  0  0  0
  2  1  1  6  0  0  0
  2  6  1  0  0  0  0
  2 34  1  0  0  0  0
  3  4  2  0  0  0  0
  3 28  1  0  0  0  0
  5 13  1  0  0  0  0
  6  7  1  0  0  0  0
  7  8  1  0  0  0  0
  8  9  1  0  0  0  0
  8 10  1  0  0  0  0
 11 13  2  0  0  0  0
 11 24  1  0  0  0  0
 12 34  1  0  0  0  0
 13 15  1  0  0  0  0
 14 34  1  0  0  0  0
 15 16  1  0  0  0  0
 16 17  1  0  0  0  0
 16 18  2  0  0  0  0
 17 20  1  0  0  0  0
 17 24  2  0  0  0  0
 19 21  1  0  0  0  0
 19 20  1  0  0  0  0
 20 22  1  0  0  0  0
 22 23  1  0  0  0  0
 22 26  1  1  0  0  0
 23 25  1  0  0  0  0
 24 25  1  0  0  0  0
 26 27  1  0  0  0  0
 27 31  1  0  0  0  0
 28 29  2  0  0  0  0
 28 33  1  0  0  0  0
 29 30  1  0  0  0  0
 30 31  2  0  0  0  0
 31 32  1  0  0  0  0
 32 33  2  0  0  0  0
M  END
>  <CHROM.1>
96.04349674,-61.85580524,-41.80710964,171.38068961,-99.77012740,127.06872237
63.60774853,-98.33402428,-17.13727618,-23.70211616,7.33441192,43.03083207
71.96691756,-2.70778290,0.60348452,-0.84627332

>  <Name>
ligand

>  <RI>
0

>  <Rbt.Current_Directory>
/home/itssahil/PROJECTS/Mol_Feturizer/New_Systems/rnas/3SUH

>  <Rbt.Executable>
rbdock ($Id: //depot/dev/client3/rdock/2013.1/src/exe/rbdock.cxx#4 $)

>  <Rbt.Library>
libRbt.so (2013.1, Build901 2013/11/27)

>  <Rbt.Parameter_File>
/export/apps/rDock/src/rDock_2013.1_src/data/scripts/dock_solv.prm

>  <Rbt.Receptor>
prm/pocket_docking_8.prm

>  <SCORE>
-13.8204

>  <SCORE.INTER>
-9.80665

>  <SCORE.INTER.CONST>
1

>  <SCORE.INTER.POLAR>
0

>  <SCORE.INTER.ROT>
10

>  <SCORE.INTER.SOLV>
14.935

>  <SCORE.INTER.VDW>
-21.7827

>  <SCORE.INTER.norm>
-0.288431

>  <SCORE.INTRA>
-4.01379

>  <SCORE.INTRA.DIHEDRAL>
-3.83061

>  <SCORE.INTRA.DIHEDRAL.0>
12.2703

>  <SCORE.INTRA.POLAR>
0

>  <SCORE.INTRA.POLAR.0>
0

>  <SCORE.INTRA.REPUL>
0

>  <SCORE.INTRA.REPUL.0>
0

>  <SCORE.INTRA.SOLV>
2.67216

>  <SCORE.INTRA.SOLV.lig_0>
-64.3214

>  <SCORE.INTRA.VDW>
-3.43457

>  <SCORE.INTRA.VDW.0>
-1.67301

>  <SCORE.INTRA.norm>
-0.118053

>  <SCORE.RESTR>
0

>  <SCORE.RESTR.CAVITY>
0

>  <SCORE.RESTR.norm>
0

>  <SCORE.SYSTEM>
0

>  <SCORE.SYSTEM.CONST>
0

>  <SCORE.SYSTEM.DIHEDRAL>
0

>  <SCORE.SYSTEM.SOLV>
0

>  <SCORE.SYSTEM.norm>
0

>  <SCORE.heavy>
34

>  <SCORE.norm>
-0.406484

>  <RMSD>
4.373

$$$$
ligand
 OpenBabel11021811483D
libRbt.so/2013.1/901 2013/11/27
 34 36  0  0  0  0  0  0  0  0999 V2000
    7.0146   37.9556   75.6071 N   0  0  0  0  0  0  0  0  0  0  0  0
    6.8719   37.1450   76.8389 C   0  0  1  0  0  0  0  0  0  0  0  0
    5.9804   38.4553   74.9181 C   0  0  0  0  0  0  0  0  0  0  0  0
    4.7965   38.2966   75.2288 O   0  0  0  0  0  0  0  0  0  0  0  0
   12.8781   46.8598   71.7586 N   0  0  0  0  0  0  0  0  0  0  0  0
    8.2371   36.5596   77.2373 C   0  0  0  0  0  0  0  0  0  0  0  0
    8.7779   35.6057   76.1634 C   0  0  0  0  0  0  0  0  0  0  0  0
    7.7860   34.4673   75.8802 C   0  0  0  0  0  0  0  0  0  0  0  0
    7.2215   34.4655   74.7611 O   0  0  0  0  0  0  0  0  0  0  0  0
    7.6159   33.6219   76.7885 O   0  0  0  0  0  0  0  0  0  0  0  0
   10.8577   46.0246   70.9978 N   0  0  0  0  0  0  0  0  0  0  0  0
    5.6474   37.3522   78.8896 O   0  0  0  0  0  0  0  0  0  0  0  0
   12.2020   46.0162   70.9829 C   0  0  0  0  0  0  0  0  0  0  0  0
    6.5145   39.2041   77.9911 O   0  0  0  0  0  0  0  0  0  0  0  0
   12.9026   45.1270   70.1582 N   0  0  0  0  0  0  0  0  0  0  0  0
   12.1866   44.2480   69.3568 C   0  0  0  0  0  0  0  0  0  0  0  0
   10.7994   44.2607   69.4199 C   0  0  0  0  0  0  0  0  0  0  0  0
   12.7786   43.4517   68.6326 O   0  0  0  0  0  0  0  0  0  0  0  0
   10.4958   43.1605   67.3706 C   0  0  0  0  0  0  0  0  0  0  0  0
   10.0401   43.4471   68.5863 N   0  0  0  0  0  0  0  0  0  0  0  0
    9.7203   42.8339   66.4749 O   0  0  0  0  0  0  0  0  0  0  0  0
    8.6730   43.0852   68.9764 C   0  0  2  0  0  0  0  0  0  0  0  0
    7.9246   44.3575   69.3821 C   0  0  0  0  0  0  0  0  0  0  0  0
   10.1499   45.1823   70.2300 C   0  0  0  0  0  0  0  0  0  0  0  0
    8.7516   45.2231   70.2586 N   0  0  0  0  0  0  0  0  0  0  0  0
    8.6930   42.0891   70.1409 C   0  0  0  0  0  0  0  0  0  0  0  0
    7.3351   41.5879   70.3860 N   0  0  0  0  0  0  0  0  0  0  0  0
    6.3743   39.3099   73.6998 C   0  0  0  0  0  0  0  0  0  0  0  0
    6.7878   38.7054   72.5151 C   0  0  0  0  0  0  0  0  0  0  0  0
    7.0906   39.4783   71.3959 C   0  0  0  0  0  0  0  0  0  0  0  0
    7.0266   40.8660   71.4628 C   0  0  0  0  0  0  0  0  0  0  0  0
    6.6225   41.4717   72.6478 C   0  0  0  0  0  0  0  0  0  0  0  0
    6.2851   40.6979   73.7573 C   0  0  0  0  0  0  0  0  0  0  0  0
    6.2949   37.9684   78.0089 C   0  0  0  0  0  0  0  0  0  0  0  0
  1  3  1  0  0  0  0
  2  1  1  6  0  0  0
  2  6  1  0  0  0  0
  2 34  1  0  0  0  0
  3  4  2  0  0  0  0
  3 28  1  0  0  0  0
  5 13  1  0  0  0  0
  6  7  1  0  0  0  0
  7  8  1  0  0  0  0
  8  9  1  0  0  0  0
  8 10  1  0  0  0  0
 11 13  2  0  0  0  0
 11 24  1  0  0  0  0
 12 34  1  0  0  0  0
 13 15  1  0  0  0  0
 14 34  1  0  0  0  0
 15 16  1  0  0  0  0
 16 17  1  0  0  0  0
 16 18  2  0  0  0  0
 17 20  1  0  0  0  0
 17 24  2  0  0  0  0
 19 21  1  0  0  0  0
 19 20  1  0  0  0  0
 20 22  1  0  0  0  0
 22 23  1  0  0  0  0
 22 26  1  1  0  0  0
 23 25  1  0  0  0  0
 24 25  1  0  0  0  0
 26 27  1  0  0  0  0
 27 31  1  0  0  0  0
 28 29  2  0  0  0  0
 28 33  1  0  0  0  0
 29 30  1  0  0  0  0
 30 31  2  0  0  0  0
 31 32  1  0  0  0  0
 32 33  2  0  0  0  0
M  END
>  <CHROM.1>
171.24313304,-62.78554428,152.43349306,-56.99461393,111.32849204,-156.45193636
-171.67199956,-169.69742894,-92.17121468,77.80732188,8.51206821,40.77094221
72.59675479,-2.37946013,-1.06597577,-1.47660793

>  <Name>
ligand

>  <RI>
0

>  <Rbt.Current_Directory>
/home/itssahil/PROJECTS/Mol_Feturizer/New_Systems/rnas/3SUH

>  <Rbt.Executable>
rbdock ($Id: //depot/dev/client3/rdock/2013.1/src/exe/rbdock.cxx#4 $)

>  <Rbt.Library>
libRbt.so (2013.1, Build901 2013/11/27)

>  <Rbt.Parameter_File>
/export/apps/rDock/src/rDock_2013.1_src/data/scripts/dock_solv.prm

>  <Rbt.Receptor>
prm/pocket_docking_8.prm

>  <SCORE>
-9.40059

>  <SCORE.INTER>
-5.14696

>  <SCORE.INTER.CONST>
1

>  <SCORE.INTER.POLAR>
0

>  <SCORE.INTER.ROT>
10

>  <SCORE.INTER.SOLV>
13.2342

>  <SCORE.INTER.VDW>
-18.1094

>  <SCORE.INTER.norm>
-0.151381

>  <SCORE.INTRA>
-4.25363

>  <SCORE.INTRA.DIHEDRAL>
-5.07712

>  <SCORE.INTRA.DIHEDRAL.0>
12.2703

>  <SCORE.INTRA.POLAR>
0

>  <SCORE.INTRA.POLAR.0>
0

>  <SCORE.INTRA.REPUL>
0

>  <SCORE.INTRA.REPUL.0>
0

>  <SCORE.INTRA.SOLV>
-0.826267

>  <SCORE.INTRA.SOLV.lig_0>
-64.3214

>  <SCORE.INTRA.VDW>
-1.30194

>  <SCORE.INTRA.VDW.0>
-1.67301

>  <SCORE.INTRA.norm>
-0.125107

>  <SCORE.RESTR>
0

>  <SCORE.RESTR.CAVITY>
0

>  <SCORE.RESTR.norm>
0

>  <SCORE.SYSTEM>
0

>  <SCORE.SYSTEM.CONST>
0

>  <SCORE.SYSTEM.DIHEDRAL>
0

>  <SCORE.SYSTEM.SOLV>
0

>  <SCORE.SYSTEM.norm>
0

>  <SCORE.heavy>
34

>  <SCORE.norm>
-0.276488

>  <RMSD>
4.515

$$$$
ligand
 OpenBabel11021811483D
libRbt.so/2013.1/901 2013/11/27
 34 36  0  0  0  0  0  0  0  0999 V2000
    4.5643   42.7778   75.0220 N   0  0  0  0  0  0  0  0  0  0  0  0
    3.9227   42.5088   76.3300 C   0  0  1  0  0  0  0  0  0  0  0  0
    5.8561   42.5386   74.7607 C   0  0  0  0  0  0  0  0  0  0  0  0
    6.6552   42.0707   75.5766 O   0  0  0  0  0  0  0  0  0  0  0  0
   13.1862   40.4011   72.6081 N   0  0  0  0  0  0  0  0  0  0  0  0
    2.3932   42.5703   76.1814 C   0  0  0  0  0  0  0  0  0  0  0  0
    1.9272   43.9519   75.7028 C   0  0  0  0  0  0  0  0  0  0  0  0
    0.4057   43.9837   75.4922 C   0  0  0  0  0  0  0  0  0  0  0  0
   -0.0342   43.4996   74.4230 O   0  0  0  0  0  0  0  0  0  0  0  0
   -0.2847   44.4894   76.4068 O   0  0  0  0  0  0  0  0  0  0  0  0
   12.5047   41.6316   70.7697 N   0  0  0  0  0  0  0  0  0  0  0  0
    4.5227   40.1995   76.0954 O   0  0  0  0  0  0  0  0  0  0  0  0
   12.2614   40.6874   71.6953 C   0  0  0  0  0  0  0  0  0  0  0  0
    4.4557   41.0646   78.1536 O   0  0  0  0  0  0  0  0  0  0  0  0
   11.0419   39.9988   71.7112 N   0  0  0  0  0  0  0  0  0  0  0  0
   10.0826   40.3095   70.7569 C   0  0  0  0  0  0  0  0  0  0  0  0
   10.3533   41.3121   69.8350 C   0  0  0  0  0  0  0  0  0  0  0  0
    9.0013   39.7264   70.7567 O   0  0  0  0  0  0  0  0  0  0  0  0
    8.7019   40.6353   68.3127 C   0  0  0  0  0  0  0  0  0  0  0  0
    9.4512   41.6098   68.8195 N   0  0  0  0  0  0  0  0  0  0  0  0
    7.5598   40.8660   67.9220 O   0  0  0  0  0  0  0  0  0  0  0  0
    9.4803   42.9345   68.1900 C   0  0  2  0  0  0  0  0  0  0  0  0
   10.9234   43.2600   67.7963 C   0  0  0  0  0  0  0  0  0  0  0  0
   11.5892   41.9445   69.8402 C   0  0  0  0  0  0  0  0  0  0  0  0
   11.8764   42.9234   68.8826 N   0  0  0  0  0  0  0  0  0  0  0  0
    8.9420   43.9983   69.1530 C   0  0  0  0  0  0  0  0  0  0  0  0
    7.5376   43.7119   69.4707 N   0  0  0  0  0  0  0  0  0  0  0  0
    6.2862   42.8489   73.3155 C   0  0  0  0  0  0  0  0  0  0  0  0
    6.2671   44.1566   72.8366 C   0  0  0  0  0  0  0  0  0  0  0  0
    6.7093   44.4430   71.5467 C   0  0  0  0  0  0  0  0  0  0  0  0
    7.1330   43.4191   70.7062 C   0  0  0  0  0  0  0  0  0  0  0  0
    7.1443   42.1114   71.1798 C   0  0  0  0  0  0  0  0  0  0  0  0
    6.7356   41.8284   72.4823 C   0  0  0  0  0  0  0  0  0  0  0  0
    4.3372   41.1391   76.9062 C   0  0  0  0  0  0  0  0  0  0  0  0
  1  3  1  0  0  0  0
  2  1  1  6  0  0  0
  2  6  1  0  0  0  0
  2 34  1  0  0  0  0
  3  4  2  0  0  0  0
  3 28  1  0  0  0  0
  5 13  1  0  0  0  0
  6  7  1  0  0  0  0
  7  8  1  0  0  0  0
  8  9  1  0  0  0  0
  8 10  1  0  0  0  0
 11 13  2  0  0  0  0
 11 24  1  0  0  0  0
 12 34  1  0  0  0  0
 13 15  1  0  0  0  0
 14 34  1  0  0  0  0
 15 16  1  0  0  0  0
 16 17  1  0  0  0  0
 16 18  2  0  0  0  0
 17 20  1  0  0  0  0
 17 24  2  0  0  0  0
 19 21  1  0  0  0  0
 19 20  1  0  0  0  0
 20 22  1  0  0  0  0
 22 23  1  0  0  0  0
 22 26  1  1  0  0  0
 23 25  1  0  0  0  0
 24 25  1  0  0  0  0
 26 27  1  0  0  0  0
 27 31  1  0  0  0  0
 28 29  2  0  0  0  0
 28 33  1  0  0  0  0
 29 30  1  0  0  0  0
 30 31  2  0  0  0  0
 31 32  1  0  0  0  0
 32 33  2  0  0  0  0
M  END
>  <CHROM.1>
-166.24389505,-60.42825895,-35.13338835,177.25961896,-80.25708319,146.57008068
-62.60133104,116.63716786,91.27619935,65.43178757,7.07572241,42.19652759
72.39431417,-2.59160008,0.39554427,-1.19983794

>  <Name>
ligand

>  <RI>
0

>  <Rbt.Current_Directory>
/home/itssahil/PROJECTS/Mol_Feturizer/New_Systems/rnas/3SUH

>  <Rbt.Executable>
rbdock ($Id: //depot/dev/client3/rdock/2013.1/src/exe/rbdock.cxx#4 $)

>  <Rbt.Library>
libRbt.so (2013.1, Build901 2013/11/27)

>  <Rbt.Parameter_File>
/export/apps/rDock/src/rDock_2013.1_src/data/scripts/dock_solv.prm

>  <Rbt.Receptor>
prm/pocket_docking_7.prm

>  <SCORE>
-12.8967

>  <SCORE.INTER>
-7.83255

>  <SCORE.INTER.CONST>
1

>  <SCORE.INTER.POLAR>
0

>  <SCORE.INTER.ROT>
10

>  <SCORE.INTER.SOLV>
16.4087

>  <SCORE.INTER.VDW>
-20.9579

>  <SCORE.INTER.norm>
-0.230369

>  <SCORE.INTRA>
-5.06418

>  <SCORE.INTRA.DIHEDRAL>
-4.73388

>  <SCORE.INTRA.DIHEDRAL.0>
12.2703

>  <SCORE.INTRA.POLAR>
0

>  <SCORE.INTRA.POLAR.0>
0

>  <SCORE.INTRA.REPUL>
0

>  <SCORE.INTRA.REPUL.0>
0

>  <SCORE.INTRA.SOLV>
0.592015

>  <SCORE.INTRA.SOLV.lig_0>
-64.3214

>  <SCORE.INTRA.VDW>
-2.99325

>  <SCORE.INTRA.VDW.0>
-1.67301

>  <SCORE.INTRA.norm>
-0.148947

>  <SCORE.RESTR>
0

>  <SCORE.RESTR.CAVITY>
0

>  <SCORE.RESTR.norm>
0

>  <SCORE.SYSTEM>
0

>  <SCORE.SYSTEM.CONST>
0

>  <SCORE.SYSTEM.DIHEDRAL>
0

>  <SCORE.SYSTEM.SOLV>
0

>  <SCORE.SYSTEM.norm>
0

>  <SCORE.heavy>
34

>  <SCORE.norm>
-0.379316

>  <RMSD>
4.576

$$$$
ligand
 OpenBabel11021811483D
libRbt.so/2013.1/901 2013/11/27
 34 36  0  0  0  0  0  0  0  0999 V2000
    6.1905   39.6382   73.5226 N   0  0  0  0  0  0  0  0  0  0  0  0
    5.6009   38.6429   74.4482 C   0  0  1  0  0  0  0  0  0  0  0  0
    6.5115   39.3752   72.2490 C   0  0  0  0  0  0  0  0  0  0  0  0
    6.3548   38.2785   71.7050 O   0  0  0  0  0  0  0  0  0  0  0  0
   13.1936   39.5793   71.9131 N   0  0  0  0  0  0  0  0  0  0  0  0
    6.6645   37.6038   74.8408 C   0  0  0  0  0  0  0  0  0  0  0  0
    6.0457   36.4199   75.5964 C   0  0  0  0  0  0  0  0  0  0  0  0
    7.1083   35.3670   75.9468 C   0  0  0  0  0  0  0  0  0  0  0  0
    7.5400   35.3595   77.1235 O   0  0  0  0  0  0  0  0  0  0  0  0
    7.4638   34.5908   75.0304 O   0  0  0  0  0  0  0  0  0  0  0  0
   12.8870   41.7203   71.0882 N   0  0  0  0  0  0  0  0  0  0  0  0
    5.6420   40.2866   76.1930 O   0  0  0  0  0  0  0  0  0  0  0  0
   12.6224   40.4031   71.0382 C   0  0  0  0  0  0  0  0  0  0  0  0
    3.9708   38.8049   76.1836 O   0  0  0  0  0  0  0  0  0  0  0  0
   11.7495   39.8851   70.0731 N   0  0  0  0  0  0  0  0  0  0  0  0
   11.1555   40.7549   69.1686 C   0  0  0  0  0  0  0  0  0  0  0  0
   11.4252   42.1135   69.2680 C   0  0  0  0  0  0  0  0  0  0  0  0
   10.3784   40.3257   68.3194 O   0  0  0  0  0  0  0  0  0  0  0  0
   10.7253   42.6166   67.0864 C   0  0  0  0  0  0  0  0  0  0  0  0
   10.9078   43.0129   68.3424 N   0  0  0  0  0  0  0  0  0  0  0  0
    9.6240   42.7258   66.5519 O   0  0  0  0  0  0  0  0  0  0  0  0
   10.7612   44.4257   68.7090 C   0  0  2  0  0  0  0  0  0  0  0  0
   12.0778   44.9147   69.3179 C   0  0  0  0  0  0  0  0  0  0  0  0
   12.3219   42.5750   70.2221 C   0  0  0  0  0  0  0  0  0  0  0  0
   12.6262   43.9390   70.2919 N   0  0  0  0  0  0  0  0  0  0  0  0
    9.6161   44.6039   69.7119 C   0  0  0  0  0  0  0  0  0  0  0  0
    8.4593   43.8055   69.2882 N   0  0  0  0  0  0  0  0  0  0  0  0
    7.0620   40.5799   71.4645 C   0  0  0  0  0  0  0  0  0  0  0  0
    7.8229   40.3873   70.3139 C   0  0  0  0  0  0  0  0  0  0  0  0
    8.2735   41.4787   69.5740 C   0  0  0  0  0  0  0  0  0  0  0  0
    8.0064   42.7750   70.0014 C   0  0  0  0  0  0  0  0  0  0  0  0
    7.2543   42.9692   71.1551 C   0  0  0  0  0  0  0  0  0  0  0  0
    6.7728   41.8777   71.8765 C   0  0  0  0  0  0  0  0  0  0  0  0
    5.0233   39.3044   75.7165 C   0  0  0  0  0  0  0  0  0  0  0  0
  1  3  1  0  0  0  0
  2  1  1  6  0  0  0
  2  6  1  0  0  0  0
  2 34  1  0  0  0  0
  3  4  2  0  0  0  0
  3 28  1  0  0  0  0
  5 13  1  0  0  0  0
  6  7  1  0  0  0  0
  7  8  1  0  0  0  0
  8  9  1  0  0  0  0
  8 10  1  0  0  0  0
 11 13  2  0  0  0  0
 11 24  1  0  0  0  0
 12 34  1  0  0  0  0
 13 15  1  0  0  0  0
 14 34  1  0  0  0  0
 15 16  1  0  0  0  0
 16 17  1  0  0  0  0
 16 18  2  0  0  0  0
 17 20  1  0  0  0  0
 17 24  2  0  0  0  0
 19 21  1  0  0  0  0
 19 20  1  0  0  0  0
 20 22  1  0  0  0  0
 22 23  1  0  0  0  0
 22 26  1  1  0  0  0
 23 25  1  0  0  0  0
 24 25  1  0  0  0  0
 26 27  1  0  0  0  0
 27 31  1  0  0  0  0
 28 29  2  0  0  0  0
 28 33  1  0  0  0  0
 29 30  1  0  0  0  0
 30 31  2  0  0  0  0
 31 32  1  0  0  0  0
 32 33  2  0  0  0  0
M  END
>  <CHROM.1>
71.78790303,-170.02049868,-36.75648256,178.26884582,101.31001059,125.15058494
-43.94397679,114.84911470,-104.31543462,159.17495313,8.78937994,40.54962882
71.62246346,2.12477572,-0.32262931,2.47488826

>  <Name>
ligand

>  <RI>
0

>  <Rbt.Current_Directory>
/home/itssahil/PROJECTS/Mol_Feturizer/New_Systems/rnas/3SUH

>  <Rbt.Executable>
rbdock ($Id: //depot/dev/client3/rdock/2013.1/src/exe/rbdock.cxx#4 $)

>  <Rbt.Library>
libRbt.so (2013.1, Build901 2013/11/27)

>  <Rbt.Parameter_File>
/export/apps/rDock/src/rDock_2013.1_src/data/scripts/dock_solv.prm

>  <Rbt.Receptor>
prm/pocket_docking_7.prm

>  <SCORE>
-14.3176

>  <SCORE.INTER>
-10.295

>  <SCORE.INTER.CONST>
1

>  <SCORE.INTER.POLAR>
0

>  <SCORE.INTER.ROT>
10

>  <SCORE.INTER.SOLV>
19.1638

>  <SCORE.INTER.VDW>
-23.518

>  <SCORE.INTER.norm>
-0.302795

>  <SCORE.INTRA>
-4.02253

>  <SCORE.INTRA.DIHEDRAL>
-3.38416

>  <SCORE.INTRA.DIHEDRAL.0>
12.2703

>  <SCORE.INTRA.POLAR>
0

>  <SCORE.INTRA.POLAR.0>
0

>  <SCORE.INTRA.REPUL>
0

>  <SCORE.INTRA.REPUL.0>
0

>  <SCORE.INTRA.SOLV>
0.861633

>  <SCORE.INTRA.SOLV.lig_0>
-64.3214

>  <SCORE.INTRA.VDW>
-2.76127

>  <SCORE.INTRA.VDW.0>
-1.67301

>  <SCORE.INTRA.norm>
-0.11831

>  <SCORE.RESTR>
0

>  <SCORE.RESTR.CAVITY>
0

>  <SCORE.RESTR.norm>
0

>  <SCORE.SYSTEM>
0

>  <SCORE.SYSTEM.CONST>
0

>  <SCORE.SYSTEM.DIHEDRAL>
0

>  <SCORE.SYSTEM.SOLV>
0

>  <SCORE.SYSTEM.norm>
0

>  <SCORE.heavy>
34

>  <SCORE.norm>
-0.421105

>  <RMSD>
4.583

$$$$
ligand
 OpenBabel11021811483D
libRbt.so/2013.1/901 2013/11/27
 34 36  0  0  0  0  0  0  0  0999 V2000
    6.1862   42.6099   74.3535 N   0  0  0  0  0  0  0  0  0  0  0  0
    5.1141   42.4715   75.3666 C   0  0  1  0  0  0  0  0  0  0  0  0
    6.1739   43.5225   73.3731 C   0  0  0  0  0  0  0  0  0  0  0  0
    5.2714   44.3468   73.2022 O   0  0  0  0  0  0  0  0  0  0  0  0
    7.5867   38.4819   72.7899 N   0  0  0  0  0  0  0  0  0  0  0  0
    5.6780   41.8054   76.6329 C   0  0  0  0  0  0  0  0  0  0  0  0
    6.2252   40.4023   76.3374 C   0  0  0  0  0  0  0  0  0  0  0  0
    5.1267   39.4822   75.7835 C   0  0  0  0  0  0  0  0  0  0  0  0
    5.2848   39.0372   74.6224 O   0  0  0  0  0  0  0  0  0  0  0  0
    4.1537   39.2418   76.5347 O   0  0  0  0  0  0  0  0  0  0  0  0
    9.6052   39.0677   71.8197 N   0  0  0  0  0  0  0  0  0  0  0  0
    5.2578   44.7748   76.0162 O   0  0  0  0  0  0  0  0  0  0  0  0
    8.2640   39.1516   71.8608 C   0  0  0  0  0  0  0  0  0  0  0  0
    3.2284   43.8928   75.7119 O   0  0  0  0  0  0  0  0  0  0  0  0
    7.5680   39.9384   70.9344 N   0  0  0  0  0  0  0  0  0  0  0  0
    8.2855   40.6366   69.9725 C   0  0  0  0  0  0  0  0  0  0  0  0
    9.6717   40.5536   69.9779 C   0  0  0  0  0  0  0  0  0  0  0  0
    7.6982   41.3413   69.1556 O   0  0  0  0  0  0  0  0  0  0  0  0
    9.9253   41.2964   67.7675 C   0  0  0  0  0  0  0  0  0  0  0  0
   10.4275   41.1798   68.9930 N   0  0  0  0  0  0  0  0  0  0  0  0
   10.0002   42.3632   67.1618 O   0  0  0  0  0  0  0  0  0  0  0  0
   11.8293   41.5189   69.2616 C   0  0  2  0  0  0  0  0  0  0  0  0
   12.5323   40.2855   69.8343 C   0  0  0  0  0  0  0  0  0  0  0  0
   10.3144   39.7356   70.8973 C   0  0  0  0  0  0  0  0  0  0  0  0
   11.7086   39.6188   70.8728 N   0  0  0  0  0  0  0  0  0  0  0  0
   11.9191   42.6860   70.2507 C   0  0  0  0  0  0  0  0  0  0  0  0
   10.7766   43.5873   70.0567 N   0  0  0  0  0  0  0  0  0  0  0  0
    7.4209   43.5112   72.4706 C   0  0  0  0  0  0  0  0  0  0  0  0
    7.3188   43.8279   71.1182 C   0  0  0  0  0  0  0  0  0  0  0  0
    8.4565   43.8715   70.3149 C   0  0  0  0  0  0  0  0  0  0  0  0
    9.7027   43.5548   70.8451 C   0  0  0  0  0  0  0  0  0  0  0  0
    9.8054   43.2296   72.1934 C   0  0  0  0  0  0  0  0  0  0  0  0
    8.6726   43.2204   73.0060 C   0  0  0  0  0  0  0  0  0  0  0  0
    4.4820   43.8313   75.7286 C   0  0  0  0  0  0  0  0  0  0  0  0
  1  3  1  0  0  0  0
  2  1  1  6  0  0  0
  2  6  1  0  0  0  0
  2 34  1  0  0  0  0
  3  4  2  0  0  0  0
  3 28  1  0  0  0  0
  5 13  1  0  0  0  0
  6  7  1  0  0  0  0
  7  8  1  0  0  0  0
  8  9  1  0  0  0  0
  8 10  1  0  0  0  0
 11 13  2  0  0  0  0
 11 24  1  0  0  0  0
 12 34  1  0  0  0  0
 13 15  1  0  0  0  0
 14 34  1  0  0  0  0
 15 16  1  0  0  0  0
 16 17  1  0  0  0  0
 16 18  2  0  0  0  0
 17 20  1  0  0  0  0
 17 24  2  0  0  0  0
 19 21  1  0  0  0  0
 19 20  1  0  0  0  0
 20 22  1  0  0  0  0
 22 23  1  0  0  0  0
 22 26  1  1  0  0  0
 23 25  1  0  0  0  0
 24 25  1  0  0  0  0
 26 27  1  0  0  0  0
 27 31  1  0  0  0  0
 28 29  2  0  0  0  0
 28 33  1  0  0  0  0
 29 30  1  0  0  0  0
 30 31  2  0  0  0  0
 31 32  1  0  0  0  0
 32 33  2  0  0  0  0
M  END
>  <CHROM.1>
-155.79443530,-60.66186839,-49.43094261,-60.02891634,117.47199438,134.33363493
-32.51193710,99.85925546,-148.09653838,146.73164132,7.92451263,41.69435753
72.24691314,3.04402327,-0.82817853,2.89689651

>  <Name>
ligand

>  <RI>
0

>  <Rbt.Current_Directory>
/home/itssahil/PROJECTS/Mol_Feturizer/New_Systems/rnas/3SUH

>  <Rbt.Executable>
rbdock ($Id: //depot/dev/client3/rdock/2013.1/src/exe/rbdock.cxx#4 $)

>  <Rbt.Library>
libRbt.so (2013.1, Build901 2013/11/27)

>  <Rbt.Parameter_File>
/export/apps/rDock/src/rDock_2013.1_src/data/scripts/dock_solv.prm

>  <Rbt.Receptor>
prm/pocket_docking_4.prm

>  <SCORE>
-8.925

>  <SCORE.INTER>
-5.24088

>  <SCORE.INTER.CONST>
1

>  <SCORE.INTER.POLAR>
0

>  <SCORE.INTER.ROT>
10

>  <SCORE.INTER.SOLV>
11.3921

>  <SCORE.INTER.VDW>
-17.5579

>  <SCORE.INTER.norm>
-0.154144

>  <SCORE.INTRA>
-3.68707

>  <SCORE.INTRA.DIHEDRAL>
-2.47409

>  <SCORE.INTRA.DIHEDRAL.0>
12.2703

>  <SCORE.INTRA.POLAR>
0

>  <SCORE.INTRA.POLAR.0>
0

>  <SCORE.INTRA.REPUL>
0

>  <SCORE.INTRA.REPUL.0>
0

>  <SCORE.INTRA.SOLV>
3.19693

>  <SCORE.INTRA.SOLV.lig_0>
-64.3214

>  <SCORE.INTRA.VDW>
-4.04849

>  <SCORE.INTRA.VDW.0>
-1.67301

>  <SCORE.INTRA.norm>
-0.108443

>  <SCORE.RESTR>
0.00294931

>  <SCORE.RESTR.CAVITY>
0.00294931

>  <SCORE.RESTR.norm>
8.67445e-05

>  <SCORE.SYSTEM>
0

>  <SCORE.SYSTEM.CONST>
0

>  <SCORE.SYSTEM.DIHEDRAL>
0

>  <SCORE.SYSTEM.SOLV>
0

>  <SCORE.SYSTEM.norm>
0

>  <SCORE.heavy>
34

>  <SCORE.norm>
-0.2625

>  <RMSD>
4.591

$$$$
ligand
 OpenBabel11021811483D
libRbt.so/2013.1/901 2013/11/27
 34 36  0  0  0  0  0  0  0  0999 V2000
    7.4181   43.3972   76.2697 N   0  0  0  0  0  0  0  0  0  0  0  0
    6.8276   43.1769   77.6105 C   0  0  1  0  0  0  0  0  0  0  0  0
    8.7256   43.2850   76.0021 C   0  0  0  0  0  0  0  0  0  0  0  0
    9.5834   42.9882   76.8384 O   0  0  0  0  0  0  0  0  0  0  0  0
    6.9707   38.4399   72.9000 N   0  0  0  0  0  0  0  0  0  0  0  0
    6.6727   44.5228   78.3382 C   0  0  0  0  0  0  0  0  0  0  0  0
    8.0207   45.0446   78.8540 C   0  0  0  0  0  0  0  0  0  0  0  0
    8.6439   44.0708   79.8657 C   0  0  0  0  0  0  0  0  0  0  0  0
    8.0871   43.9743   80.9845 O   0  0  0  0  0  0  0  0  0  0  0  0
    9.6624   43.4420   79.4970 O   0  0  0  0  0  0  0  0  0  0  0  0
    7.6114   39.5564   70.9762 N   0  0  0  0  0  0  0  0  0  0  0  0
    5.1227   41.7453   78.5004 O   0  0  0  0  0  0  0  0  0  0  0  0
    7.1441   39.5802   72.2365 C   0  0  0  0  0  0  0  0  0  0  0  0
    4.7846   42.6595   76.4907 O   0  0  0  0  0  0  0  0  0  0  0  0
    6.8366   40.7947   72.8625 N   0  0  0  0  0  0  0  0  0  0  0  0
    7.0263   41.9784   72.1622 C   0  0  0  0  0  0  0  0  0  0  0  0
    7.5407   41.9206   70.8736 C   0  0  0  0  0  0  0  0  0  0  0  0
    6.7734   43.0568   72.6935 O   0  0  0  0  0  0  0  0  0  0  0  0
    6.8160   44.0689   70.2722 C   0  0  0  0  0  0  0  0  0  0  0  0
    7.6828   43.0738   70.1100 N   0  0  0  0  0  0  0  0  0  0  0  0
    7.2123   45.2206   70.4358 O   0  0  0  0  0  0  0  0  0  0  0  0
    8.6512   43.0984   69.0082 C   0  0  2  0  0  0  0  0  0  0  0  0
    8.4426   41.8530   68.1428 C   0  0  0  0  0  0  0  0  0  0  0  0
    7.8008   40.6905   70.2847 C   0  0  0  0  0  0  0  0  0  0  0  0
    8.2773   40.6327   68.9704 N   0  0  0  0  0  0  0  0  0  0  0  0
   10.0832   43.1303   69.5530 C   0  0  0  0  0  0  0  0  0  0  0  0
   10.1938   44.1612   70.5924 N   0  0  0  0  0  0  0  0  0  0  0  0
    9.0996   43.5093   74.5257 C   0  0  0  0  0  0  0  0  0  0  0  0
    8.8589   44.7367   73.9132 C   0  0  0  0  0  0  0  0  0  0  0  0
    9.2486   44.9563   72.5935 C   0  0  0  0  0  0  0  0  0  0  0  0
    9.8424   43.9361   71.8579 C   0  0  0  0  0  0  0  0  0  0  0  0
   10.0755   42.7068   72.4653 C   0  0  0  0  0  0  0  0  0  0  0  0
    9.7183   42.4977   73.7965 C   0  0  0  0  0  0  0  0  0  0  0  0
    5.4609   42.4659   77.5303 C   0  0  0  0  0  0  0  0  0  0  0  0
  1  3  1  0  0  0  0
  2  1  1  6  0  0  0
  2  6  1  0  0  0  0
  2 34  1  0  0  0  0
  3  4  2  0  0  0  0
  3 28  1  0  0  0  0
  5 13  1  0  0  0  0
  6  7  1  0  0  0  0
  7  8  1  0  0  0  0
  8  9  1  0  0  0  0
  8 10  1  0  0  0  0
 11 13  2  0  0  0  0
 11 24  1  0  0  0  0
 12 34  1  0  0  0  0
 13 15  1  0  0  0  0
 14 34  1  0  0  0  0
 15 16  1  0  0  0  0
 16 17  1  0  0  0  0
 16 18  2  0  0  0  0
 17 20  1  0  0  0  0
 17 24  2  0  0  0  0
 19 21  1  0  0  0  0
 19 20  1  0  0  0  0
 20 22  1  0  0  0  0
 22 23  1  0  0  0  0
 22 26  1  1  0  0  0
 23 25  1  0  0  0  0
 24 25  1  0  0  0  0
 26 27  1  0  0  0  0
 27 31  1  0  0  0  0
 28 29  2  0  0  0  0
 28 33  1  0  0  0  0
 29 30  1  0  0  0  0
 30 31  2  0  0  0  0
 31 32  1  0  0  0  0
 32 33  2  0  0  0  0
M  END
>  <CHROM.1>
95.70652371,-75.36853950,151.03725733,-61.22253291,-70.14709584,130.62512553
-48.17464588,83.35733339,-143.90468234,62.09223187,7.92530493,42.78898328
73.85260139,-1.70208776,-0.90469361,-1.82313618

>  <Name>
ligand

>  <RI>
0

>  <Rbt.Current_Directory>
/home/itssahil/PROJECTS/Mol_Feturizer/New_Systems/rnas/3SUH

>  <Rbt.Executable>
rbdock ($Id: //depot/dev/client3/rdock/2013.1/src/exe/rbdock.cxx#4 $)

>  <Rbt.Library>
libRbt.so (2013.1, Build901 2013/11/27)

>  <Rbt.Parameter_File>
/export/apps/rDock/src/rDock_2013.1_src/data/scripts/dock_solv.prm

>  <Rbt.Receptor>
prm/pocket_docking_5.prm

>  <SCORE>
-7.00042

>  <SCORE.INTER>
-1.00526

>  <SCORE.INTER.CONST>
1

>  <SCORE.INTER.POLAR>
0

>  <SCORE.INTER.ROT>
10

>  <SCORE.INTER.SOLV>
8.82714

>  <SCORE.INTER.VDW>
-13.8792

>  <SCORE.INTER.norm>
-0.0295666

>  <SCORE.INTRA>
-5.99516

>  <SCORE.INTRA.DIHEDRAL>
-3.37599

>  <SCORE.INTRA.DIHEDRAL.0>
12.2703

>  <SCORE.INTRA.POLAR>
0

>  <SCORE.INTRA.POLAR.0>
0

>  <SCORE.INTRA.REPUL>
0

>  <SCORE.INTRA.REPUL.0>
0

>  <SCORE.INTRA.SOLV>
2.14209

>  <SCORE.INTRA.SOLV.lig_0>
-64.3214

>  <SCORE.INTRA.VDW>
-5.37821

>  <SCORE.INTRA.VDW.0>
-1.67301

>  <SCORE.INTRA.norm>
-0.176328

>  <SCORE.RESTR>
0

>  <SCORE.RESTR.CAVITY>
0

>  <SCORE.RESTR.norm>
0

>  <SCORE.SYSTEM>
0

>  <SCORE.SYSTEM.CONST>
0

>  <SCORE.SYSTEM.DIHEDRAL>
0

>  <SCORE.SYSTEM.SOLV>
0

>  <SCORE.SYSTEM.norm>
0

>  <SCORE.heavy>
34

>  <SCORE.norm>
-0.205895

>  <RMSD>
4.610

$$$$
ligand
 OpenBabel11021811483D
libRbt.so/2013.1/901 2013/11/27
 34 36  0  0  0  0  0  0  0  0999 V2000
    3.6042   42.8549   75.2922 N   0  0  0  0  0  0  0  0  0  0  0  0
    2.5874   43.1103   76.3390 C   0  0  1  0  0  0  0  0  0  0  0  0
    4.8336   43.3866   75.3000 C   0  0  0  0  0  0  0  0  0  0  0  0
    5.2564   44.1475   76.1749 O   0  0  0  0  0  0  0  0  0  0  0  0
   12.8797   44.0938   72.8212 N   0  0  0  0  0  0  0  0  0  0  0  0
    1.2535   42.4580   75.9384 C   0  0  0  0  0  0  0  0  0  0  0  0
    0.7480   42.9879   74.5897 C   0  0  0  0  0  0  0  0  0  0  0  0
   -0.5407   42.2714   74.1582 C   0  0  0  0  0  0  0  0  0  0  0  0
   -1.6168   42.9003   74.2906 O   0  0  0  0  0  0  0  0  0  0  0  0
   -0.4210   41.1108   73.7028 O   0  0  0  0  0  0  0  0  0  0  0  0
   10.9613   44.1709   71.5279 N   0  0  0  0  0  0  0  0  0  0  0  0
    2.6740   43.2307   78.7318 O   0  0  0  0  0  0  0  0  0  0  0  0
   12.1537   43.6188   71.8123 C   0  0  0  0  0  0  0  0  0  0  0  0
    3.7310   41.5400   77.7252 O   0  0  0  0  0  0  0  0  0  0  0  0
   12.6431   42.5454   71.0573 N   0  0  0  0  0  0  0  0  0  0  0  0
   11.8747   42.0550   70.0102 C   0  0  0  0  0  0  0  0  0  0  0  0
   10.6336   42.6270   69.7634 C   0  0  0  0  0  0  0  0  0  0  0  0
   12.2781   41.1077   69.3400 O   0  0  0  0  0  0  0  0  0  0  0  0
   10.4650   41.8024   67.5739 C   0  0  0  0  0  0  0  0  0  0  0  0
    9.8603   42.2148   68.6839 N   0  0  0  0  0  0  0  0  0  0  0  0
   10.9514   42.6145   66.7902 O   0  0  0  0  0  0  0  0  0  0  0  0
    8.4090   42.4272   68.7094 C   0  0  2  0  0  0  0  0  0  0  0  0
    8.1320   43.8818   69.0981 C   0  0  0  0  0  0  0  0  0  0  0  0
   10.2057   43.7096   70.5198 C   0  0  0  0  0  0  0  0  0  0  0  0
    8.9744   44.3129   70.2408 N   0  0  0  0  0  0  0  0  0  0  0  0
    7.7448   41.4763   69.7110 C   0  0  0  0  0  0  0  0  0  0  0  0
    8.2392   41.7597   71.0640 N   0  0  0  0  0  0  0  0  0  0  0  0
    5.7343   42.9365   74.1355 C   0  0  0  0  0  0  0  0  0  0  0  0
    6.2166   43.8633   73.2146 C   0  0  0  0  0  0  0  0  0  0  0  0
    7.0766   43.4632   72.1938 C   0  0  0  0  0  0  0  0  0  0  0  0
    7.4277   42.1245   72.0561 C   0  0  0  0  0  0  0  0  0  0  0  0
    6.9399   41.1961   72.9696 C   0  0  0  0  0  0  0  0  0  0  0  0
    6.1079   41.6012   74.0123 C   0  0  0  0  0  0  0  0  0  0  0  0
    3.0333   42.5835   77.7186 C   0  0  0  0  0  0  0  0  0  0  0  0
  1  3  1  0  0  0  0
  2  1  1  6  0  0  0
  2  6  1  0  0  0  0
  2 34  1  0  0  0  0
  3  4  2  0  0  0  0
  3 28  1  0  0  0  0
  5 13  1  0  0  0  0
  6  7  1  0  0  0  0
  7  8  1  0  0  0  0
  8  9  1  0  0  0  0
  8 10  1  0  0  0  0
 11 13  2  0  0  0  0
 11 24  1  0  0  0  0
 12 34  1  0  0  0  0
 13 15  1  0  0  0  0
 14 34  1  0  0  0  0
 15 16  1  0  0  0  0
 16 17  1  0  0  0  0
 16 18  2  0  0  0  0
 17 20  1  0  0  0  0
 17 24  2  0  0  0  0
 19 21  1  0  0  0  0
 19 20  1  0  0  0  0
 20 22  1  0  0  0  0
 22 23  1  0  0  0  0
 22 26  1  1  0  0  0
 23 25  1  0  0  0  0
 24 25  1  0  0  0  0
 26 27  1  0  0  0  0
 27 31  1  0  0  0  0
 28 29  2  0  0  0  0
 28 33  1  0  0  0  0
 29 30  1  0  0  0  0
 30 31  2  0  0  0  0
 31 32  1  0  0  0  0
 32 33  2  0  0  0  0
M  END
>  <CHROM.1>
174.28369589,-58.30130002,146.14264272,176.64392090,103.81051167,-77.09661703
62.51602343,120.22838636,-84.54060985,117.90611401,6.72302917,42.70016536
72.58507085,-2.56621703,-0.11347714,-1.73093723

>  <Name>
ligand

>  <RI>
0

>  <Rbt.Current_Directory>
/home/itssahil/PROJECTS/Mol_Feturizer/New_Systems/rnas/3SUH

>  <Rbt.Executable>
rbdock ($Id: //depot/dev/client3/rdock/2013.1/src/exe/rbdock.cxx#4 $)

>  <Rbt.Library>
libRbt.so (2013.1, Build901 2013/11/27)

>  <Rbt.Parameter_File>
/export/apps/rDock/src/rDock_2013.1_src/data/scripts/dock_solv.prm

>  <Rbt.Receptor>
prm/pocket_docking_6.prm

>  <SCORE>
-9.57963

>  <SCORE.INTER>
-5.99367

>  <SCORE.INTER.CONST>
1

>  <SCORE.INTER.POLAR>
0

>  <SCORE.INTER.ROT>
10

>  <SCORE.INTER.SOLV>
10.4272

>  <SCORE.INTER.VDW>
-17.7382

>  <SCORE.INTER.norm>
-0.176284

>  <SCORE.INTRA>
-3.58596

>  <SCORE.INTRA.DIHEDRAL>
-4.77278

>  <SCORE.INTRA.DIHEDRAL.0>
12.2703

>  <SCORE.INTRA.POLAR>
0

>  <SCORE.INTRA.POLAR.0>
0

>  <SCORE.INTRA.REPUL>
0

>  <SCORE.INTRA.REPUL.0>
0

>  <SCORE.INTRA.SOLV>
2.48607

>  <SCORE.INTRA.SOLV.lig_0>
-64.3214

>  <SCORE.INTRA.VDW>
-2.4426

>  <SCORE.INTRA.VDW.0>
-1.67301

>  <SCORE.INTRA.norm>
-0.105469

>  <SCORE.RESTR>
0

>  <SCORE.RESTR.CAVITY>
0

>  <SCORE.RESTR.norm>
0

>  <SCORE.SYSTEM>
0

>  <SCORE.SYSTEM.CONST>
0

>  <SCORE.SYSTEM.DIHEDRAL>
0

>  <SCORE.SYSTEM.SOLV>
0

>  <SCORE.SYSTEM.norm>
0

>  <SCORE.heavy>
34

>  <SCORE.norm>
-0.281754

>  <RMSD>
4.619

$$$$
ligand
 OpenBabel11021811483D
libRbt.so/2013.1/901 2013/11/27
 34 36  0  0  0  0  0  0  0  0999 V2000
    4.2637   43.0831   74.9524 N   0  0  0  0  0  0  0  0  0  0  0  0
    3.5311   42.8836   76.2246 C   0  0  1  0  0  0  0  0  0  0  0  0
    5.5921   43.2340   74.8714 C   0  0  0  0  0  0  0  0  0  0  0  0
    6.3531   43.2257   75.8431 O   0  0  0  0  0  0  0  0  0  0  0  0
   13.0881   40.2924   72.5891 N   0  0  0  0  0  0  0  0  0  0  0  0
    2.0171   42.9848   75.9743 C   0  0  0  0  0  0  0  0  0  0  0  0
    1.6103   44.3980   75.5350 C   0  0  0  0  0  0  0  0  0  0  0  0
    2.0309   44.6718   74.0830 C   0  0  0  0  0  0  0  0  0  0  0  0
    1.2455   44.2994   73.1799 O   0  0  0  0  0  0  0  0  0  0  0  0
    3.1280   45.2501   73.9080 O   0  0  0  0  0  0  0  0  0  0  0  0
   12.4333   41.5996   70.7945 N   0  0  0  0  0  0  0  0  0  0  0  0
    4.4789   40.6819   76.1799 O   0  0  0  0  0  0  0  0  0  0  0  0
   12.1760   40.6185   71.6769 C   0  0  0  0  0  0  0  0  0  0  0  0
    3.4875   41.3618   78.0623 O   0  0  0  0  0  0  0  0  0  0  0  0
   10.9551   39.9328   71.6482 N   0  0  0  0  0  0  0  0  0  0  0  0
   10.0090   40.2850   70.6951 C   0  0  0  0  0  0  0  0  0  0  0  0
   10.2937   41.3243   69.8192 C   0  0  0  0  0  0  0  0  0  0  0  0
    8.9268   39.7051   70.6565 O   0  0  0  0  0  0  0  0  0  0  0  0
    8.6614   40.7152   68.2486 C   0  0  0  0  0  0  0  0  0  0  0  0
    9.4058   41.6660   68.8052 N   0  0  0  0  0  0  0  0  0  0  0  0
    7.5201   40.9613   67.8651 O   0  0  0  0  0  0  0  0  0  0  0  0
    9.4457   43.0156   68.2316 C   0  0  2  0  0  0  0  0  0  0  0  0
   10.8944   43.3536   67.8707 C   0  0  0  0  0  0  0  0  0  0  0  0
   11.5307   41.9529   69.8669 C   0  0  0  0  0  0  0  0  0  0  0  0
   11.8324   42.9700   68.9546 N   0  0  0  0  0  0  0  0  0  0  0  0
    8.8966   44.0398   69.2307 C   0  0  0  0  0  0  0  0  0  0  0  0
    7.5002   43.7188   69.5505 N   0  0  0  0  0  0  0  0  0  0  0  0
    6.1354   43.3749   73.4380 C   0  0  0  0  0  0  0  0  0  0  0  0
    6.6096   42.2617   72.7482 C   0  0  0  0  0  0  0  0  0  0  0  0
    7.0492   42.3811   71.4313 C   0  0  0  0  0  0  0  0  0  0  0  0
    7.0615   43.6230   70.8052 C   0  0  0  0  0  0  0  0  0  0  0  0
    6.5966   44.7372   71.4956 C   0  0  0  0  0  0  0  0  0  0  0  0
    6.1233   44.6126   72.8010 C   0  0  0  0  0  0  0  0  0  0  0  0
    3.8635   41.5253   76.8759 C   0  0  0  0  0  0  0  0  0  0  0  0
  1  3  1  0  0  0  0
  2  1  1  6  0  0  0
  2  6  1  0  0  0  0
  2 34  1  0  0  0  0
  3  4  2  0  0  0  0
  3 28  1  0  0  0  0
  5 13  1  0  0  0  0
  6  7  1  0  0  0  0
  7  8  1  0  0  0  0
  8  9  1  0  0  0  0
  8 10  1  0  0  0  0
 11 13  2  0  0  0  0
 11 24  1  0  0  0  0
 12 34  1  0  0  0  0
 13 15  1  0  0  0  0
 14 34  1  0  0  0  0
 15 16  1  0  0  0  0
 16 17  1  0  0  0  0
 16 18  2  0  0  0  0
 17 20  1  0  0  0  0
 17 24  2  0  0  0  0
 19 21  1  0  0  0  0
 19 20  1  0  0  0  0
 20 22  1  0  0  0  0
 22 23  1  0  0  0  0
 22 26  1  1  0  0  0
 23 25  1  0  0  0  0
 24 25  1  0  0  0  0
 26 27  1  0  0  0  0
 27 31  1  0  0  0  0
 28 29  2  0  0  0  0
 28 33  1  0  0  0  0
 29 30  1  0  0  0  0
 30 31  2  0  0  0  0
 31 32  1  0  0  0  0
 32 33  2  0  0  0  0
M  END
>  <CHROM.1>
170.52287606,-65.47496189,-12.60748309,74.11334779,85.39856686,145.83948701
-60.81408569,129.26909736,-93.08023634,-94.82848595,7.12912396,42.47260049
72.23881625,-2.62995645,0.47551338,-1.15231431

>  <Name>
ligand

>  <RI>
0

>  <Rbt.Current_Directory>
/home/itssahil/PROJECTS/Mol_Feturizer/New_Systems/rnas/3SUH

>  <Rbt.Executable>
rbdock ($Id: //depot/dev/client3/rdock/2013.1/src/exe/rbdock.cxx#4 $)

>  <Rbt.Library>
libRbt.so (2013.1, Build901 2013/11/27)

>  <Rbt.Parameter_File>
/export/apps/rDock/src/rDock_2013.1_src/data/scripts/dock_solv.prm

>  <Rbt.Receptor>
prm/pocket_docking_6.prm

>  <SCORE>
-13.4885

>  <SCORE.INTER>
-8.42228

>  <SCORE.INTER.CONST>
1

>  <SCORE.INTER.POLAR>
0

>  <SCORE.INTER.ROT>
10

>  <SCORE.INTER.SOLV>
16.1014

>  <SCORE.INTER.VDW>
-21.2486

>  <SCORE.INTER.norm>
-0.247714

>  <SCORE.INTRA>
-5.06622

>  <SCORE.INTRA.DIHEDRAL>
-4.04562

>  <SCORE.INTRA.DIHEDRAL.0>
12.2703

>  <SCORE.INTRA.POLAR>
0

>  <SCORE.INTRA.POLAR.0>
0

>  <SCORE.INTRA.REPUL>
0

>  <SCORE.INTRA.REPUL.0>
0

>  <SCORE.INTRA.SOLV>
0.727781

>  <SCORE.INTRA.SOLV.lig_0>
-64.3214

>  <SCORE.INTRA.VDW>
-3.4073

>  <SCORE.INTRA.VDW.0>
-1.67301

>  <SCORE.INTRA.norm>
-0.149006

>  <SCORE.RESTR>
0

>  <SCORE.RESTR.CAVITY>
0

>  <SCORE.RESTR.norm>
0

>  <SCORE.SYSTEM>
0

>  <SCORE.SYSTEM.CONST>
0

>  <SCORE.SYSTEM.DIHEDRAL>
0

>  <SCORE.SYSTEM.SOLV>
0

>  <SCORE.SYSTEM.norm>
0

>  <SCORE.heavy>
34

>  <SCORE.norm>
-0.396721

>  <RMSD>
4.657

$$$$
ligand
 OpenBabel11021811483D
libRbt.so/2013.1/901 2013/11/27
 34 36  0  0  0  0  0  0  0  0999 V2000
    5.9393   44.4371   74.0382 N   0  0  0  0  0  0  0  0  0  0  0  0
    5.3655   44.9616   75.2994 C   0  0  1  0  0  0  0  0  0  0  0  0
    5.9459   43.1403   73.7034 C   0  0  0  0  0  0  0  0  0  0  0  0
    5.4784   42.2389   74.4049 O   0  0  0  0  0  0  0  0  0  0  0  0
    9.5039   46.7527   70.8678 N   0  0  0  0  0  0  0  0  0  0  0  0
    3.9034   44.5043   75.4353 C   0  0  0  0  0  0  0  0  0  0  0  0
    3.0254   45.0784   74.3151 C   0  0  0  0  0  0  0  0  0  0  0  0
    3.0721   46.6139   74.3034 C   0  0  0  0  0  0  0  0  0  0  0  0
    3.7093   47.1599   73.3723 O   0  0  0  0  0  0  0  0  0  0  0  0
    2.4670   47.2084   75.2249 O   0  0  0  0  0  0  0  0  0  0  0  0
    9.8641   45.1107   69.2765 N   0  0  0  0  0  0  0  0  0  0  0  0
    6.0285   45.1630   77.5945 O   0  0  0  0  0  0  0  0  0  0  0  0
    9.8123   45.4945   70.5638 C   0  0  0  0  0  0  0  0  0  0  0  0
    6.9202   43.5115   76.3835 O   0  0  0  0  0  0  0  0  0  0  0  0
   10.0796   44.5832   71.5932 N   0  0  0  0  0  0  0  0  0  0  0  0
   10.3954   43.2719   71.2642 C   0  0  0  0  0  0  0  0  0  0  0  0
   10.4089   42.9004   69.9262 C   0  0  0  0  0  0  0  0  0  0  0  0
   10.6239   42.4516   72.1497 O   0  0  0  0  0  0  0  0  0  0  0  0
   11.6955   40.9690   70.2677 C   0  0  0  0  0  0  0  0  0  0  0  0
   10.7862   41.6172   69.5460 N   0  0  0  0  0  0  0  0  0  0  0  0
   11.5336   39.7858   70.5578 O   0  0  0  0  0  0  0  0  0  0  0  0
   10.3329   41.0805   68.2582 C   0  0  2  0  0  0  0  0  0  0  0  0
   10.6183   42.1152   67.1667 C   0  0  0  0  0  0  0  0  0  0  0  0
   10.1675   43.8477   68.9405 C   0  0  0  0  0  0  0  0  0  0  0  0
   10.2252   43.4815   67.5913 N   0  0  0  0  0  0  0  0  0  0  0  0
    8.8346   40.7624   68.3068 C   0  0  0  0  0  0  0  0  0  0  0  0
    8.0768   41.9914   68.5723 N   0  0  0  0  0  0  0  0  0  0  0  0
    6.5500   42.8381   72.3201 C   0  0  0  0  0  0  0  0  0  0  0  0
    6.9357   41.5428   71.9838 C   0  0  0  0  0  0  0  0  0  0  0  0
    7.4305   41.2606   70.7121 C   0  0  0  0  0  0  0  0  0  0  0  0
    7.5873   42.2791   69.7779 C   0  0  0  0  0  0  0  0  0  0  0  0
    7.2110   43.5749   70.1151 C   0  0  0  0  0  0  0  0  0  0  0  0
    6.6825   43.8517   71.3751 C   0  0  0  0  0  0  0  0  0  0  0  0
    6.1718   44.5080   76.5338 C   0  0  0  0  0  0  0  0  0  0  0  0
  1  3  1  0  0  0  0
  2  1  1  6  0  0  0
  2  6  1  0  0  0  0
  2 34  1  0  0  0  0
  3  4  2  0  0  0  0
  3 28  1  0  0  0  0
  5 13  1  0  0  0  0
  6  7  1  0  0  0  0
  7  8  1  0  0  0  0
  8  9  1  0  0  0  0
  8 10  1  0  0  0  0
 11 13  2  0  0  0  0
 11 24  1  0  0  0  0
 12 34  1  0  0  0  0
 13 15  1  0  0  0  0
 14 34  1  0  0  0  0
 15 16  1  0  0  0  0
 16 17  1  0  0  0  0
 16 18  2  0  0  0  0
 17 20  1  0  0  0  0
 17 24  2  0  0  0  0
 19 21  1  0  0  0  0
 19 20  1  0  0  0  0
 20 22  1  0  0  0  0
 22 23  1  0  0  0  0
 22 26  1  1  0  0  0
 23 25  1  0  0  0  0
 24 25  1  0  0  0  0
 26 27  1  0  0  0  0
 27 31  1  0  0  0  0
 28 29  2  0  0  0  0
 28 33  1  0  0  0  0
 29 30  1  0  0  0  0
 30 31  2  0  0  0  0
 31 32  1  0  0  0  0
 32 33  2  0  0  0  0
M  END
>  <CHROM.1>
-54.85839198,-63.39851549,160.59891084,-57.93855675,107.47637040,135.96032217
61.30665039,-101.83150864,-19.22892687,163.45459736,7.72397987,43.54947083
71.89811957,-2.78002180,0.80015972,-0.96590955

>  <Name>
ligand

>  <RI>
0

>  <Rbt.Current_Directory>
/home/itssahil/PROJECTS/Mol_Feturizer/New_Systems/rnas/3SUH

>  <Rbt.Executable>
rbdock ($Id: //depot/dev/client3/rdock/2013.1/src/exe/rbdock.cxx#4 $)

>  <Rbt.Library>
libRbt.so (2013.1, Build901 2013/11/27)

>  <Rbt.Parameter_File>
/export/apps/rDock/src/rDock_2013.1_src/data/scripts/dock_solv.prm

>  <Rbt.Receptor>
prm/pocket_docking_7.prm

>  <SCORE>
-12.3281

>  <SCORE.INTER>
-8.50272

>  <SCORE.INTER.CONST>
1

>  <SCORE.INTER.POLAR>
0

>  <SCORE.INTER.ROT>
10

>  <SCORE.INTER.SOLV>
14.3799

>  <SCORE.INTER.VDW>
-20.7284

>  <SCORE.INTER.norm>
-0.25008

>  <SCORE.INTRA>
-3.8254

>  <SCORE.INTRA.DIHEDRAL>
-5.03914

>  <SCORE.INTRA.DIHEDRAL.0>
12.2703

>  <SCORE.INTRA.POLAR>
0

>  <SCORE.INTRA.POLAR.0>
0

>  <SCORE.INTRA.REPUL>
0

>  <SCORE.INTRA.REPUL.0>
0

>  <SCORE.INTRA.SOLV>
2.9179

>  <SCORE.INTRA.SOLV.lig_0>
-64.3214

>  <SCORE.INTRA.VDW>
-2.76478

>  <SCORE.INTRA.VDW.0>
-1.67301

>  <SCORE.INTRA.norm>
-0.112512

>  <SCORE.RESTR>
0

>  <SCORE.RESTR.CAVITY>
0

>  <SCORE.RESTR.norm>
0

>  <SCORE.SYSTEM>
0

>  <SCORE.SYSTEM.CONST>
0

>  <SCORE.SYSTEM.DIHEDRAL>
0

>  <SCORE.SYSTEM.SOLV>
0

>  <SCORE.SYSTEM.norm>
0

>  <SCORE.heavy>
34

>  <SCORE.norm>
-0.362592

>  <RMSD>
4.742

$$$$
ligand
 OpenBabel11021811483D
libRbt.so/2013.1/901 2013/11/27
 34 36  0  0  0  0  0  0  0  0999 V2000
    4.5887   38.0440   74.3856 N   0  0  0  0  0  0  0  0  0  0  0  0
    3.7082   37.2388   75.2637 C   0  0  1  0  0  0  0  0  0  0  0  0
    5.5212   38.8922   74.8386 C   0  0  0  0  0  0  0  0  0  0  0  0
    5.7505   39.0995   76.0334 O   0  0  0  0  0  0  0  0  0  0  0  0
    7.6908   46.8791   70.4964 N   0  0  0  0  0  0  0  0  0  0  0  0
    2.6112   36.5644   74.4228 C   0  0  0  0  0  0  0  0  0  0  0  0
    1.5297   37.5665   73.9967 C   0  0  0  0  0  0  0  0  0  0  0  0
    0.7770   38.1239   75.2144 C   0  0  0  0  0  0  0  0  0  0  0  0
    0.9174   39.3441   75.4645 O   0  0  0  0  0  0  0  0  0  0  0  0
    0.0754   37.3176   75.8674 O   0  0  0  0  0  0  0  0  0  0  0  0
    7.5429   44.7296   69.6503 N   0  0  0  0  0  0  0  0  0  0  0  0
    5.5675   35.7520   75.5466 O   0  0  0  0  0  0  0  0  0  0  0  0
    8.2804   45.8047   69.9783 C   0  0  0  0  0  0  0  0  0  0  0  0
    4.0015   35.7919   77.1388 O   0  0  0  0  0  0  0  0  0  0  0  0
    9.6670   45.8080   69.7810 N   0  0  0  0  0  0  0  0  0  0  0  0
   10.2719   44.6794   69.2443 C   0  0  0  0  0  0  0  0  0  0  0  0
    9.4856   43.5742   68.9464 C   0  0  0  0  0  0  0  0  0  0  0  0
   11.4878   44.6545   69.0714 O   0  0  0  0  0  0  0  0  0  0  0  0
   11.0532   42.5973   67.5005 C   0  0  0  0  0  0  0  0  0  0  0  0
   10.0365   42.4484   68.3443 N   0  0  0  0  0  0  0  0  0  0  0  0
   10.8747   43.0937   66.3905 O   0  0  0  0  0  0  0  0  0  0  0  0
    9.3695   41.1499   68.4892 C   0  0  2  0  0  0  0  0  0  0  0  0
    7.8859   41.3191   68.1523 C   0  0  0  0  0  0  0  0  0  0  0  0
    8.1107   43.6307   69.1307 C   0  0  0  0  0  0  0  0  0  0  0  0
    7.3149   42.5319   68.7884 N   0  0  0  0  0  0  0  0  0  0  0  0
    9.5304   40.6203   69.9183 C   0  0  0  0  0  0  0  0  0  0  0  0
    8.6674   41.3835   70.8282 N   0  0  0  0  0  0  0  0  0  0  0  0
    6.3508   39.5801   73.7393 C   0  0  0  0  0  0  0  0  0  0  0  0
    7.0378   40.7618   74.0062 C   0  0  0  0  0  0  0  0  0  0  0  0
    7.8329   41.3534   73.0266 C   0  0  0  0  0  0  0  0  0  0  0  0
    7.9137   40.7940   71.7558 C   0  0  0  0  0  0  0  0  0  0  0  0
    7.2212   39.6187   71.4849 C   0  0  0  0  0  0  0  0  0  0  0  0
    6.4538   39.0068   72.4750 C   0  0  0  0  0  0  0  0  0  0  0  0
    4.4962   36.1699   76.0488 C   0  0  0  0  0  0  0  0  0  0  0  0
  1  3  1  0  0  0  0
  2  1  1  6  0  0  0
  2  6  1  0  0  0  0
  2 34  1  0  0  0  0
  3  4  2  0  0  0  0
  3 28  1  0  0  0  0
  5 13  1  0  0  0  0
  6  7  1  0  0  0  0
  7  8  1  0  0  0  0
  8  9  1  0  0  0  0
  8 10  1  0  0  0  0
 11 13  2  0  0  0  0
 11 24  1  0  0  0  0
 12 34  1  0  0  0  0
 13 15  1  0  0  0  0
 14 34  1  0  0  0  0
 15 16  1  0  0  0  0
 16 17  1  0  0  0  0
 16 18  2  0  0  0  0
 17 20  1  0  0  0  0
 17 24  2  0  0  0  0
 19 21  1  0  0  0  0
 19 20  1  0  0  0  0
 20 22  1  0  0  0  0
 22 23  1  0  0  0  0
 22 26  1  1  0  0  0
 23 25  1  0  0  0  0
 24 25  1  0  0  0  0
 26 27  1  0  0  0  0
 27 31  1  0  0  0  0
 28 29  2  0  0  0  0
 28 33  1  0  0  0  0
 29 30  1  0  0  0  0
 30 31  2  0  0  0  0
 31 32  1  0  0  0  0
 32 33  2  0  0  0  0
M  END
>  <CHROM.1>
170.52554431,-75.09402226,-26.22135096,-64.26290509,113.90403085,-71.35138075
73.56377305,134.98413178,137.99896907,159.58683361,6.70900871,40.71565801
71.95492527,-2.31224142,0.54044653,-0.36587354

>  <Name>
ligand

>  <RI>
0

>  <Rbt.Current_Directory>
/home/itssahil/PROJECTS/Mol_Feturizer/New_Systems/rnas/3SUH

>  <Rbt.Executable>
rbdock ($Id: //depot/dev/client3/rdock/2013.1/src/exe/rbdock.cxx#4 $)

>  <Rbt.Library>
libRbt.so (2013.1, Build901 2013/11/27)

>  <Rbt.Parameter_File>
/export/apps/rDock/src/rDock_2013.1_src/data/scripts/dock_solv.prm

>  <Rbt.Receptor>
prm/pocket_docking_6.prm

>  <SCORE>
-9.55787

>  <SCORE.INTER>
-7.22898

>  <SCORE.INTER.CONST>
1

>  <SCORE.INTER.POLAR>
0

>  <SCORE.INTER.ROT>
10

>  <SCORE.INTER.SOLV>
14.9864

>  <SCORE.INTER.VDW>
-20.0814

>  <SCORE.INTER.norm>
-0.212617

>  <SCORE.INTRA>
-2.32889

>  <SCORE.INTRA.DIHEDRAL>
-3.44514

>  <SCORE.INTRA.DIHEDRAL.0>
12.2703

>  <SCORE.INTRA.POLAR>
0

>  <SCORE.INTRA.POLAR.0>
0

>  <SCORE.INTRA.REPUL>
0

>  <SCORE.INTRA.REPUL.0>
0

>  <SCORE.INTRA.SOLV>
1.88434

>  <SCORE.INTRA.SOLV.lig_0>
-64.3214

>  <SCORE.INTRA.VDW>
-1.54848

>  <SCORE.INTRA.VDW.0>
-1.67301

>  <SCORE.INTRA.norm>
-0.0684967

>  <SCORE.RESTR>
0

>  <SCORE.RESTR.CAVITY>
0

>  <SCORE.RESTR.norm>
0

>  <SCORE.SYSTEM>
0

>  <SCORE.SYSTEM.CONST>
0

>  <SCORE.SYSTEM.DIHEDRAL>
0

>  <SCORE.SYSTEM.SOLV>
0

>  <SCORE.SYSTEM.norm>
0

>  <SCORE.heavy>
34

>  <SCORE.norm>
-0.281114

>  <RMSD>
4.776

$$$$
ligand
 OpenBabel11021811483D
libRbt.so/2013.1/901 2013/11/27
 34 36  0  0  0  0  0  0  0  0999 V2000
    6.2968   39.0879   72.9552 N   0  0  0  0  0  0  0  0  0  0  0  0
    5.7839   37.9720   73.7838 C   0  0  1  0  0  0  0  0  0  0  0  0
    6.9757   38.9191   71.8130 C   0  0  0  0  0  0  0  0  0  0  0  0
    7.2514   37.8199   71.3242 O   0  0  0  0  0  0  0  0  0  0  0  0
   13.3727   39.6544   71.7619 N   0  0  0  0  0  0  0  0  0  0  0  0
    5.0839   38.5313   75.0337 C   0  0  0  0  0  0  0  0  0  0  0  0
    4.7761   37.4247   76.0516 C   0  0  0  0  0  0  0  0  0  0  0  0
    6.0669   36.7835   76.5836 C   0  0  0  0  0  0  0  0  0  0  0  0
    6.5260   37.2306   77.6608 O   0  0  0  0  0  0  0  0  0  0  0  0
    6.5650   35.8581   75.9023 O   0  0  0  0  0  0  0  0  0  0  0  0
   12.9585   41.8271   71.0793 N   0  0  0  0  0  0  0  0  0  0  0  0
    4.4928   35.9700   73.5136 O   0  0  0  0  0  0  0  0  0  0  0  0
   12.7830   40.5033   70.9240 C   0  0  0  0  0  0  0  0  0  0  0  0
    4.4051   37.5044   71.8928 O   0  0  0  0  0  0  0  0  0  0  0  0
   11.9841   40.0045   69.8874 N   0  0  0  0  0  0  0  0  0  0  0  0
   11.3698   40.8999   69.0223 C   0  0  0  0  0  0  0  0  0  0  0  0
   11.5457   42.2616   69.2300 C   0  0  0  0  0  0  0  0  0  0  0  0
   10.6561   40.4869   68.1117 O   0  0  0  0  0  0  0  0  0  0  0  0
   10.8994   42.8799   67.0615 C   0  0  0  0  0  0  0  0  0  0  0  0
   11.0068   43.1929   68.3493 N   0  0  0  0  0  0  0  0  0  0  0  0
   11.8209   43.1163   66.2834 O   0  0  0  0  0  0  0  0  0  0  0  0
   10.7536   44.5628   68.8090 C   0  0  2  0  0  0  0  0  0  0  0  0
   12.0108   45.0868   69.5079 C   0  0  0  0  0  0  0  0  0  0  0  0
   12.3726   42.7065   70.2526 C   0  0  0  0  0  0  0  0  0  0  0  0
   12.5838   44.0780   70.4327 N   0  0  0  0  0  0  0  0  0  0  0  0
    9.5614   44.5943   69.7714 C   0  0  0  0  0  0  0  0  0  0  0  0
    8.4807   43.7502   69.2471 N   0  0  0  0  0  0  0  0  0  0  0  0
    7.3625   40.2262   71.0976 C   0  0  0  0  0  0  0  0  0  0  0  0
    6.9516   41.4575   71.6024 C   0  0  0  0  0  0  0  0  0  0  0  0
    7.3490   42.6421   70.9854 C   0  0  0  0  0  0  0  0  0  0  0  0
    8.1240   42.6067   69.8310 C   0  0  0  0  0  0  0  0  0  0  0  0
    8.5277   41.3776   69.3205 C   0  0  0  0  0  0  0  0  0  0  0  0
    8.1604   40.1931   69.9575 C   0  0  0  0  0  0  0  0  0  0  0  0
    4.8095   37.0697   72.9988 C   0  0  0  0  0  0  0  0  0  0  0  0
  1  3  1  0  0  0  0
  2  1  1  6  0  0  0
  2  6  1  0  0  0  0
  2 34  1  0  0  0  0
  3  4  2  0  0  0  0
  3 28  1  0  0  0  0
  5 13  1  0  0  0  0
  6  7  1  0  0  0  0
  7  8  1  0  0  0  0
  8  9  1  0  0  0  0
  8 10  1  0  0  0  0
 11 13  2  0  0  0  0
 11 24  1  0  0  0  0
 12 34  1  0  0  0  0
 13 15  1  0  0  0  0
 14 34  1  0  0  0  0
 15 16  1  0  0  0  0
 16 17  1  0  0  0  0
 16 18  2  0  0  0  0
 17 20  1  0  0  0  0
 17 24  2  0  0  0  0
 19 21  1  0  0  0  0
 19 20  1  0  0  0  0
 20 22  1  0  0  0  0
 22 23  1  0  0  0  0
 22 26  1  1  0  0  0
 23 25  1  0  0  0  0
 24 25  1  0  0  0  0
 26 27  1  0  0  0  0
 27 31  1  0  0  0  0
 28 29  2  0  0  0  0
 28 33  1  0  0  0  0
 29 30  1  0  0  0  0
 30 31  2  0  0  0  0
 31 32  1  0  0  0  0
 32 33  2  0  0  0  0
M  END
>  <CHROM.1>
178.74813859,-169.02327735,167.87614817,63.54844257,95.12460197,-89.39361410
-43.50726856,111.05365853,77.21681962,-3.26558863,8.78242138,40.46392708
71.27285534,2.20269574,0.13289440,2.25630975

>  <Name>
ligand

>  <RI>
0

>  <Rbt.Current_Directory>
/home/itssahil/PROJECTS/Mol_Feturizer/New_Systems/rnas/3SUH

>  <Rbt.Executable>
rbdock ($Id: //depot/dev/client3/rdock/2013.1/src/exe/rbdock.cxx#4 $)

>  <Rbt.Library>
libRbt.so (2013.1, Build901 2013/11/27)

>  <Rbt.Parameter_File>
/export/apps/rDock/src/rDock_2013.1_src/data/scripts/dock_solv.prm

>  <Rbt.Receptor>
prm/pocket_docking_6.prm

>  <SCORE>
-15.1904

>  <SCORE.INTER>
-11.2647

>  <SCORE.INTER.CONST>
1

>  <SCORE.INTER.POLAR>
0

>  <SCORE.INTER.ROT>
10

>  <SCORE.INTER.SOLV>
19.7011

>  <SCORE.INTER.VDW>
-24.3435

>  <SCORE.INTER.norm>
-0.331315

>  <SCORE.INTRA>
-3.9257

>  <SCORE.INTRA.DIHEDRAL>
-3.54942

>  <SCORE.INTRA.DIHEDRAL.0>
12.2703

>  <SCORE.INTRA.POLAR>
0

>  <SCORE.INTRA.POLAR.0>
0

>  <SCORE.INTRA.REPUL>
0

>  <SCORE.INTRA.REPUL.0>
0

>  <SCORE.INTRA.SOLV>
0.331365

>  <SCORE.INTRA.SOLV.lig_0>
-64.3214

>  <SCORE.INTRA.VDW>
-2.31667

>  <SCORE.INTRA.VDW.0>
-1.67301

>  <SCORE.INTRA.norm>
-0.115462

>  <SCORE.RESTR>
0

>  <SCORE.RESTR.CAVITY>
0

>  <SCORE.RESTR.norm>
0

>  <SCORE.SYSTEM>
0

>  <SCORE.SYSTEM.CONST>
0

>  <SCORE.SYSTEM.DIHEDRAL>
0

>  <SCORE.SYSTEM.SOLV>
0

>  <SCORE.SYSTEM.norm>
0

>  <SCORE.heavy>
34

>  <SCORE.norm>
-0.446777

>  <RMSD>
4.817

$$$$
ligand
 OpenBabel11021811483D
libRbt.so/2013.1/901 2013/11/27
 34 36  0  0  0  0  0  0  0  0999 V2000
    6.3944   39.7579   72.8625 N   0  0  0  0  0  0  0  0  0  0  0  0
    5.7938   39.3214   74.1446 C   0  0  1  0  0  0  0  0  0  0  0  0
    6.6033   41.0394   72.5337 C   0  0  0  0  0  0  0  0  0  0  0  0
    6.3191   41.9979   73.2574 O   0  0  0  0  0  0  0  0  0  0  0  0
   10.7491   46.2614   72.9829 N   0  0  0  0  0  0  0  0  0  0  0  0
    5.2478   37.8907   74.0028 C   0  0  0  0  0  0  0  0  0  0  0  0
    4.3809   37.4951   75.2058 C   0  0  0  0  0  0  0  0  0  0  0  0
    3.8581   36.0573   75.0660 C   0  0  0  0  0  0  0  0  0  0  0  0
    4.5180   35.1515   75.6272 O   0  0  0  0  0  0  0  0  0  0  0  0
    2.8080   35.8959   74.4026 O   0  0  0  0  0  0  0  0  0  0  0  0
   11.4072   45.5965   70.8655 N   0  0  0  0  0  0  0  0  0  0  0  0
    7.9947   39.0642   75.0598 O   0  0  0  0  0  0  0  0  0  0  0  0
   10.9134   45.2981   72.0798 C   0  0  0  0  0  0  0  0  0  0  0  0
    6.3616   39.7432   76.4238 O   0  0  0  0  0  0  0  0  0  0  0  0
   10.5681   43.9809   72.4075 N   0  0  0  0  0  0  0  0  0  0  0  0
   10.7392   42.9849   71.4556 C   0  0  0  0  0  0  0  0  0  0  0  0
   11.2214   43.3321   70.2004 C   0  0  0  0  0  0  0  0  0  0  0  0
   10.4340   41.8238   71.7159 O   0  0  0  0  0  0  0  0  0  0  0  0
   11.8765   41.1537   69.6282 C   0  0  0  0  0  0  0  0  0  0  0  0
   11.4736   42.3596   69.2392 N   0  0  0  0  0  0  0  0  0  0  0  0
   11.4657   40.1452   69.0586 O   0  0  0  0  0  0  0  0  0  0  0  0
   11.4866   42.7301   67.8198 C   0  0  2  0  0  0  0  0  0  0  0  0
   12.3752   43.9639   67.6421 C   0  0  0  0  0  0  0  0  0  0  0  0
   11.5792   44.6467   69.9337 C   0  0  0  0  0  0  0  0  0  0  0  0
   12.1064   44.9866   68.6830 N   0  0  0  0  0  0  0  0  0  0  0  0
   10.0652   43.0268   67.3295 C   0  0  0  0  0  0  0  0  0  0  0  0
    9.2085   41.8571   67.5606 N   0  0  0  0  0  0  0  0  0  0  0  0
    7.2879   41.2484   71.1708 C   0  0  0  0  0  0  0  0  0  0  0  0
    7.2152   42.4796   70.5237 C   0  0  0  0  0  0  0  0  0  0  0  0
    7.8817   42.6840   69.3172 C   0  0  0  0  0  0  0  0  0  0  0  0
    8.5908   41.6460   68.7223 C   0  0  0  0  0  0  0  0  0  0  0  0
    8.6571   40.4132   69.3627 C   0  0  0  0  0  0  0  0  0  0  0  0
    8.0201   40.2183   70.5874 C   0  0  0  0  0  0  0  0  0  0  0  0
    6.8062   39.3816   75.3070 C   0  0  0  0  0  0  0  0  0  0  0  0
  1  3  1  0  0  0  0
  2  1  1  6  0  0  0
  2  6  1  0  0  0  0
  2 34  1  0  0  0  0
  3  4  2  0  0  0  0
  3 28  1  0  0  0  0
  5 13  1  0  0  0  0
  6  7  1  0  0  0  0
  7  8  1  0  0  0  0
  8  9  1  0  0  0  0
  8 10  1  0  0  0  0
 11 13  2  0  0  0  0
 11 24  1  0  0  0  0
 12 34  1  0  0  0  0
 13 15  1  0  0  0  0
 14 34  1  0  0  0  0
 15 16  1  0  0  0  0
 16 17  1  0  0  0  0
 16 18  2  0  0  0  0
 17 20  1  0  0  0  0
 17 24  2  0  0  0  0
 19 21  1  0  0  0  0
 19 20  1  0  0  0  0
 20 22  1  0  0  0  0
 22 23  1  0  0  0  0
 22 26  1  1  0  0  0
 23 25  1  0  0  0  0
 24 25  1  0  0  0  0
 26 27  1  0  0  0  0
 27 31  1  0  0  0  0
 28 29  2  0  0  0  0
 28 33  1  0  0  0  0
 29 30  1  0  0  0  0
 30 31  2  0  0  0  0
 31 32  1  0  0  0  0
 32 33  2  0  0  0  0
M  END
>  <CHROM.1>
160.03250802,-168.95513846,-37.31931100,-179.10904417,95.16457894,141.21061443
-57.29657717,85.72250737,48.09668007,160.92077044,8.56618912,41.25904636
71.61663616,2.94815737,0.90260218,1.08741924

>  <Name>
ligand

>  <RI>
0

>  <Rbt.Current_Directory>
/home/itssahil/PROJECTS/Mol_Feturizer/New_Systems/rnas/3SUH

>  <Rbt.Executable>
rbdock ($Id: //depot/dev/client3/rdock/2013.1/src/exe/rbdock.cxx#4 $)

>  <Rbt.Library>
libRbt.so (2013.1, Build901 2013/11/27)

>  <Rbt.Parameter_File>
/export/apps/rDock/src/rDock_2013.1_src/data/scripts/dock_solv.prm

>  <Rbt.Receptor>
prm/pocket_docking_8.prm

>  <SCORE>
-14.8375

>  <SCORE.INTER>
-8.70548

>  <SCORE.INTER.CONST>
1

>  <SCORE.INTER.POLAR>
0

>  <SCORE.INTER.ROT>
10

>  <SCORE.INTER.SOLV>
16.5083

>  <SCORE.INTER.VDW>
-21.5731

>  <SCORE.INTER.norm>
-0.256044

>  <SCORE.INTRA>
-6.13202

>  <SCORE.INTRA.DIHEDRAL>
-4.89552

>  <SCORE.INTRA.DIHEDRAL.0>
12.2703

>  <SCORE.INTRA.POLAR>
0

>  <SCORE.INTRA.POLAR.0>
0

>  <SCORE.INTRA.REPUL>
0

>  <SCORE.INTRA.REPUL.0>
0

>  <SCORE.INTRA.SOLV>
0.788936

>  <SCORE.INTRA.SOLV.lig_0>
-64.3214

>  <SCORE.INTRA.VDW>
-4.07872

>  <SCORE.INTRA.VDW.0>
-1.67301

>  <SCORE.INTRA.norm>
-0.180353

>  <SCORE.RESTR>
0

>  <SCORE.RESTR.CAVITY>
0

>  <SCORE.RESTR.norm>
0

>  <SCORE.SYSTEM>
0

>  <SCORE.SYSTEM.CONST>
0

>  <SCORE.SYSTEM.DIHEDRAL>
0

>  <SCORE.SYSTEM.SOLV>
0

>  <SCORE.SYSTEM.norm>
0

>  <SCORE.heavy>
34

>  <SCORE.norm>
-0.436397

>  <RMSD>
4.819

$$$$
ligand
 OpenBabel11021811483D
libRbt.so/2013.1/901 2013/11/27
 34 36  0  0  0  0  0  0  0  0999 V2000
    8.3087   37.0715   74.6256 N   0  0  0  0  0  0  0  0  0  0  0  0
    8.3054   36.1450   75.7817 C   0  0  1  0  0  0  0  0  0  0  0  0
    7.6780   36.8256   73.4699 C   0  0  0  0  0  0  0  0  0  0  0  0
    7.0270   35.8032   73.2371 O   0  0  0  0  0  0  0  0  0  0  0  0
   13.0376   45.4905   72.5620 N   0  0  0  0  0  0  0  0  0  0  0  0
    9.3609   36.5901   76.8079 C   0  0  0  0  0  0  0  0  0  0  0  0
    9.1029   38.0210   77.2992 C   0  0  0  0  0  0  0  0  0  0  0  0
   10.1377   38.4422   78.3537 C   0  0  0  0  0  0  0  0  0  0  0  0
   11.2504   38.8403   77.9363 O   0  0  0  0  0  0  0  0  0  0  0  0
    9.7921   38.3591   79.5548 O   0  0  0  0  0  0  0  0  0  0  0  0
   10.9949   45.4014   71.4768 N   0  0  0  0  0  0  0  0  0  0  0  0
    6.1622   37.0612   76.3429 O   0  0  0  0  0  0  0  0  0  0  0  0
   12.2433   44.9340   71.6510 C   0  0  0  0  0  0  0  0  0  0  0  0
    6.6536   35.0098   77.0771 O   0  0  0  0  0  0  0  0  0  0  0  0
   12.7203   43.8643   70.8830 N   0  0  0  0  0  0  0  0  0  0  0  0
   11.8808   43.2883   69.9389 C   0  0  0  0  0  0  0  0  0  0  0  0
   10.5866   43.7741   69.8065 C   0  0  0  0  0  0  0  0  0  0  0  0
   12.2729   42.3424   69.2603 O   0  0  0  0  0  0  0  0  0  0  0  0
   10.2460   42.8575   67.6744 C   0  0  0  0  0  0  0  0  0  0  0  0
    9.7340   43.2746   68.8283 N   0  0  0  0  0  0  0  0  0  0  0  0
   10.8659   43.6335   66.9505 O   0  0  0  0  0  0  0  0  0  0  0  0
    8.2824   43.3993   69.0002 C   0  0  2  0  0  0  0  0  0  0  0  0
    7.9540   44.8481   69.3697 C   0  0  0  0  0  0  0  0  0  0  0  0
   10.1704   44.8569   70.5692 C   0  0  0  0  0  0  0  0  0  0  0  0
    8.8805   45.3731   70.4029 N   0  0  0  0  0  0  0  0  0  0  0  0
    7.7881   42.4488   70.0960 C   0  0  0  0  0  0  0  0  0  0  0  0
    8.0849   41.0617   69.7178 N   0  0  0  0  0  0  0  0  0  0  0  0
    7.7784   37.9572   72.4311 C   0  0  0  0  0  0  0  0  0  0  0  0
    6.7828   38.9271   72.3426 C   0  0  0  0  0  0  0  0  0  0  0  0
    6.9023   39.9819   71.4399 C   0  0  0  0  0  0  0  0  0  0  0  0
    7.9967   40.0534   70.5847 C   0  0  0  0  0  0  0  0  0  0  0  0
    8.9875   39.0807   70.6654 C   0  0  0  0  0  0  0  0  0  0  0  0
    8.8863   38.0447   71.5928 C   0  0  0  0  0  0  0  0  0  0  0  0
    6.9203   36.0678   76.4565 C   0  0  0  0  0  0  0  0  0  0  0  0
  1  3  1  0  0  0  0
  2  1  1  6  0  0  0
  2  6  1  0  0  0  0
  2 34  1  0  0  0  0
  3  4  2  0  0  0  0
  3 28  1  0  0  0  0
  5 13  1  0  0  0  0
  6  7  1  0  0  0  0
  7  8  1  0  0  0  0
  8  9  1  0  0  0  0
  8 10  1  0  0  0  0
 11 13  2  0  0  0  0
 11 24  1  0  0  0  0
 12 34  1  0  0  0  0
 13 15  1  0  0  0  0
 14 34  1  0  0  0  0
 15 16  1  0  0  0  0
 16 17  1  0  0  0  0
 16 18  2  0  0  0  0
 17 20  1  0  0  0  0
 17 24  2  0  0  0  0
 19 21  1  0  0  0  0
 19 20  1  0  0  0  0
 20 22  1  0  0  0  0
 22 23  1  0  0  0  0
 22 26  1  1  0  0  0
 23 25  1  0  0  0  0
 24 25  1  0  0  0  0
 26 27  1  0  0  0  0
 27 31  1  0  0  0  0
 28 29  2  0  0  0  0
 28 33  1  0  0  0  0
 29 30  1  0  0  0  0
 30 31  2  0  0  0  0
 31 32  1  0  0  0  0
 32 33  2  0  0  0  0
M  END
>  <CHROM.1>
167.76805964,58.48649727,-26.09596198,178.34935444,81.33340263,-60.64694619
-60.93869719,167.07705805,43.86085604,-93.79454967,9.24318115,40.53250187
72.54501390,1.91189611,0.83940048,2.11166683

>  <Name>
ligand

>  <RI>
0

>  <Rbt.Current_Directory>
/home/itssahil/PROJECTS/Mol_Feturizer/New_Systems/rnas/3SUH

>  <Rbt.Executable>
rbdock ($Id: //depot/dev/client3/rdock/2013.1/src/exe/rbdock.cxx#4 $)

>  <Rbt.Library>
libRbt.so (2013.1, Build901 2013/11/27)

>  <Rbt.Parameter_File>
/export/apps/rDock/src/rDock_2013.1_src/data/scripts/dock_solv.prm

>  <Rbt.Receptor>
prm/pocket_docking_7.prm

>  <SCORE>
-9.07725

>  <SCORE.INTER>
-4.5155

>  <SCORE.INTER.CONST>
1

>  <SCORE.INTER.POLAR>
0

>  <SCORE.INTER.ROT>
10

>  <SCORE.INTER.SOLV>
9.54787

>  <SCORE.INTER.VDW>
-16.4596

>  <SCORE.INTER.norm>
-0.132809

>  <SCORE.INTRA>
-4.56176

>  <SCORE.INTRA.DIHEDRAL>
-5.72831

>  <SCORE.INTRA.DIHEDRAL.0>
12.2703

>  <SCORE.INTRA.POLAR>
0

>  <SCORE.INTRA.POLAR.0>
0

>  <SCORE.INTRA.REPUL>
0

>  <SCORE.INTRA.REPUL.0>
0

>  <SCORE.INTRA.SOLV>
-0.484035

>  <SCORE.INTRA.SOLV.lig_0>
-64.3214

>  <SCORE.INTRA.VDW>
-1.45558

>  <SCORE.INTRA.VDW.0>
-1.67301

>  <SCORE.INTRA.norm>
-0.134169

>  <SCORE.RESTR>
0

>  <SCORE.RESTR.CAVITY>
0

>  <SCORE.RESTR.norm>
0

>  <SCORE.SYSTEM>
0

>  <SCORE.SYSTEM.CONST>
0

>  <SCORE.SYSTEM.DIHEDRAL>
0

>  <SCORE.SYSTEM.SOLV>
0

>  <SCORE.SYSTEM.norm>
0

>  <SCORE.heavy>
34

>  <SCORE.norm>
-0.266978

>  <RMSD>
4.858

$$$$
ligand
 OpenBabel11021811483D
libRbt.so/2013.1/901 2013/11/27
 34 36  0  0  0  0  0  0  0  0999 V2000
    5.1678   44.3278   73.7524 N   0  0  0  0  0  0  0  0  0  0  0  0
    4.5013   44.8092   74.9848 C   0  0  1  0  0  0  0  0  0  0  0  0
    5.9340   43.2305   73.6978 C   0  0  0  0  0  0  0  0  0  0  0  0
    6.1721   42.5002   74.6637 O   0  0  0  0  0  0  0  0  0  0  0  0
    9.6751   46.5581   71.2311 N   0  0  0  0  0  0  0  0  0  0  0  0
    3.9485   46.2262   74.7576 C   0  0  0  0  0  0  0  0  0  0  0  0
    5.0651   47.2184   74.4054 C   0  0  0  0  0  0  0  0  0  0  0  0
    4.5078   48.6366   74.2095 C   0  0  0  0  0  0  0  0  0  0  0  0
    4.5052   49.3934   75.2087 O   0  0  0  0  0  0  0  0  0  0  0  0
    4.0986   48.9337   73.0636 O   0  0  0  0  0  0  0  0  0  0  0  0
    9.9519   45.0204   69.5232 N   0  0  0  0  0  0  0  0  0  0  0  0
    3.4967   43.2718   76.5259 O   0  0  0  0  0  0  0  0  0  0  0  0
    9.9343   45.3147   70.8348 C   0  0  0  0  0  0  0  0  0  0  0  0
    2.3790   43.7680   74.6568 O   0  0  0  0  0  0  0  0  0  0  0  0
   10.1862   44.3249   71.7933 N   0  0  0  0  0  0  0  0  0  0  0  0
   10.4506   43.0300   71.3682 C   0  0  0  0  0  0  0  0  0  0  0  0
   10.4295   42.7529   70.0076 C   0  0  0  0  0  0  0  0  0  0  0  0
   10.6645   42.1425   72.1902 O   0  0  0  0  0  0  0  0  0  0  0  0
   11.6531   40.7600   70.1902 C   0  0  0  0  0  0  0  0  0  0  0  0
   10.7556   41.4875   69.5323 N   0  0  0  0  0  0  0  0  0  0  0  0
   12.8451   40.8273   69.8986 O   0  0  0  0  0  0  0  0  0  0  0  0
   10.2631   41.0580   68.2189 C   0  0  2  0  0  0  0  0  0  0  0  0
   10.5669   42.1564   67.1968 C   0  0  0  0  0  0  0  0  0  0  0  0
   10.2056   43.7746   69.0947 C   0  0  0  0  0  0  0  0  0  0  0  0
   10.2287   43.5020   67.7225 N   0  0  0  0  0  0  0  0  0  0  0  0
    8.7555   40.7880   68.2730 C   0  0  0  0  0  0  0  0  0  0  0  0
    8.0402   42.0359   68.5670 N   0  0  0  0  0  0  0  0  0  0  0  0
    6.4790   42.8979   72.2970 C   0  0  0  0  0  0  0  0  0  0  0  0
    6.6706   43.9054   71.3545 C   0  0  0  0  0  0  0  0  0  0  0  0
    7.2161   43.6109   70.1066 C   0  0  0  0  0  0  0  0  0  0  0  0
    7.5339   42.2990   69.7712 C   0  0  0  0  0  0  0  0  0  0  0  0
    7.3349   41.2904   70.7079 C   0  0  0  0  0  0  0  0  0  0  0  0
    6.8224   41.5893   71.9696 C   0  0  0  0  0  0  0  0  0  0  0  0
    3.3622   43.8692   75.4306 C   0  0  0  0  0  0  0  0  0  0  0  0
  1  3  1  0  0  0  0
  2  1  1  6  0  0  0
  2  6  1  0  0  0  0
  2 34  1  0  0  0  0
  3  4  2  0  0  0  0
  3 28  1  0  0  0  0
  5 13  1  0  0  0  0
  6  7  1  0  0  0  0
  7  8  1  0  0  0  0
  8  9  1  0  0  0  0
  8 10  1  0  0  0  0
 11 13  2  0  0  0  0
 11 24  1  0  0  0  0
 12 34  1  0  0  0  0
 13 15  1  0  0  0  0
 14 34  1  0  0  0  0
 15 16  1  0  0  0  0
 16 17  1  0  0  0  0
 16 18  2  0  0  0  0
 17 20  1  0  0  0  0
 17 24  2  0  0  0  0
 19 21  1  0  0  0  0
 19 20  1  0  0  0  0
 20 22  1  0  0  0  0
 22 23  1  0  0  0  0
 22 26  1  1  0  0  0
 23 25  1  0  0  0  0
 24 25  1  0  0  0  0
 26 27  1  0  0  0  0
 27 31  1  0  0  0  0
 28 29  2  0  0  0  0
 28 33  1  0  0  0  0
 29 30  1  0  0  0  0
 30 31  2  0  0  0  0
 31 32  1  0  0  0  0
 32 33  2  0  0  0  0
M  END
>  <CHROM.1>
168.60387808,-60.36721918,115.18354160,-178.79744989,92.81481191,-90.87875981
64.29697985,-103.88980672,161.66225410,26.94348281,7.61278947,43.77846950
71.74933193,2.69785680,0.70787469,0.00968839

>  <Name>
ligand

>  <RI>
0

>  <Rbt.Current_Directory>
/home/itssahil/PROJECTS/Mol_Feturizer/New_Systems/rnas/3SUH

>  <Rbt.Executable>
rbdock ($Id: //depot/dev/client3/rdock/2013.1/src/exe/rbdock.cxx#4 $)

>  <Rbt.Library>
libRbt.so (2013.1, Build901 2013/11/27)

>  <Rbt.Parameter_File>
/export/apps/rDock/src/rDock_2013.1_src/data/scripts/dock_solv.prm

>  <Rbt.Receptor>
prm/pocket_docking_7.prm

>  <SCORE>
-13.8031

>  <SCORE.INTER>
-8.95385

>  <SCORE.INTER.CONST>
1

>  <SCORE.INTER.POLAR>
0

>  <SCORE.INTER.ROT>
10

>  <SCORE.INTER.SOLV>
14.5624

>  <SCORE.INTER.VDW>
-21.09

>  <SCORE.INTER.norm>
-0.263348

>  <SCORE.INTRA>
-4.84921

>  <SCORE.INTRA.DIHEDRAL>
-5.02013

>  <SCORE.INTRA.DIHEDRAL.0>
12.2703

>  <SCORE.INTRA.POLAR>
0

>  <SCORE.INTRA.POLAR.0>
0

>  <SCORE.INTRA.REPUL>
0

>  <SCORE.INTRA.REPUL.0>
0

>  <SCORE.INTRA.SOLV>
2.12381

>  <SCORE.INTRA.SOLV.lig_0>
-64.3214

>  <SCORE.INTRA.VDW>
-3.40104

>  <SCORE.INTRA.VDW.0>
-1.67301

>  <SCORE.INTRA.norm>
-0.142624

>  <SCORE.RESTR>
0

>  <SCORE.RESTR.CAVITY>
0

>  <SCORE.RESTR.norm>
0

>  <SCORE.SYSTEM>
0

>  <SCORE.SYSTEM.CONST>
0

>  <SCORE.SYSTEM.DIHEDRAL>
0

>  <SCORE.SYSTEM.SOLV>
0

>  <SCORE.SYSTEM.norm>
0

>  <SCORE.heavy>
34

>  <SCORE.norm>
-0.405972

>  <RMSD>
4.998

$$$$
ligand
 OpenBabel11021811483D
libRbt.so/2013.1/901 2013/11/27
 34 36  0  0  0  0  0  0  0  0999 V2000
    6.3421   39.0982   73.4552 N   0  0  0  0  0  0  0  0  0  0  0  0
    5.8570   37.9734   74.2884 C   0  0  1  0  0  0  0  0  0  0  0  0
    6.6150   38.9955   72.1479 C   0  0  0  0  0  0  0  0  0  0  0  0
    6.4955   37.9567   71.4923 O   0  0  0  0  0  0  0  0  0  0  0  0
   13.4615   39.2905   70.9491 N   0  0  0  0  0  0  0  0  0  0  0  0
    7.0502   37.2641   74.9505 C   0  0  0  0  0  0  0  0  0  0  0  0
    7.9207   36.5380   73.9160 C   0  0  0  0  0  0  0  0  0  0  0  0
    7.1395   35.4098   73.2252 C   0  0  0  0  0  0  0  0  0  0  0  0
    7.1279   35.4062   71.9718 O   0  0  0  0  0  0  0  0  0  0  0  0
    6.5729   34.5739   73.9661 O   0  0  0  0  0  0  0  0  0  0  0  0
   13.0262   41.5238   70.5236 N   0  0  0  0  0  0  0  0  0  0  0  0
    3.8878   37.6948   75.6274 O   0  0  0  0  0  0  0  0  0  0  0  0
   12.7570   40.2235   70.3138 C   0  0  0  0  0  0  0  0  0  0  0  0
    5.1010   39.5481   75.9145 O   0  0  0  0  0  0  0  0  0  0  0  0
   11.7403   39.8369   69.4315 N   0  0  0  0  0  0  0  0  0  0  0  0
   11.0085   40.8192   68.7779 C   0  0  0  0  0  0  0  0  0  0  0  0
   11.2907   42.1531   69.0415 C   0  0  0  0  0  0  0  0  0  0  0  0
   10.1050   40.5051   68.0071 O   0  0  0  0  0  0  0  0  0  0  0  0
   10.2490   42.9648   67.1029 C   0  0  0  0  0  0  0  0  0  0  0  0
   10.6312   43.1698   68.3598 N   0  0  0  0  0  0  0  0  0  0  0  0
   11.0241   43.1769   66.1730 O   0  0  0  0  0  0  0  0  0  0  0  0
   10.5454   44.5063   68.9585 C   0  0  2  0  0  0  0  0  0  0  0  0
   11.9428   44.9294   69.4184 C   0  0  0  0  0  0  0  0  0  0  0  0
   12.3291   42.4861   69.9006 C   0  0  0  0  0  0  0  0  0  0  0  0
   12.6407   43.8307   70.1307 N   0  0  0  0  0  0  0  0  0  0  0  0
    9.5765   44.5013   70.1459 C   0  0  0  0  0  0  0  0  0  0  0  0
    8.3203   43.8493   69.7560 N   0  0  0  0  0  0  0  0  0  0  0  0
    7.0560   40.3104   71.4796 C   0  0  0  0  0  0  0  0  0  0  0  0
    6.6965   41.5387   72.0289 C   0  0  0  0  0  0  0  0  0  0  0  0
    7.1429   42.7272   71.4545 C   0  0  0  0  0  0  0  0  0  0  0  0
    7.9162   42.7013   70.2987 C   0  0  0  0  0  0  0  0  0  0  0  0
    8.2687   41.4756   69.7438 C   0  0  0  0  0  0  0  0  0  0  0  0
    7.8522   40.2853   70.3381 C   0  0  0  0  0  0  0  0  0  0  0  0
    4.8621   38.4426   75.3701 C   0  0  0  0  0  0  0  0  0  0  0  0
  1  3  1  0  0  0  0
  2  1  1  1  0  0  0
  2  6  1  0  0  0  0
  2 34  1  0  0  0  0
  3  4  2  0  0  0  0
  3 28  1  0  0  0  0
  5 13  1  0  0  0  0
  6  7  1  0  0  0  0
  7  8  1  0  0  0  0
  8  9  1  0  0  0  0
  8 10  1  0  0  0  0
 11 13  2  0  0  0  0
 11 24  1  0  0  0  0
 12 34  1  0  0  0  0
 13 15  1  0  0  0  0
 14 34  1  0  0  0  0
 15 16  1  0  0  0  0
 16 17  1  0  0  0  0
 16 18  2  0  0  0  0
 17 20  1  0  0  0  0
 17 24  2  0  0  0  0
 19 21  1  0  0  0  0
 19 20  1  0  0  0  0
 20 22  1  0  0  0  0
 22 23  1  0  0  0  0
 22 26  1  1  0  0  0
 23 25  1  0  0  0  0
 24 25  1  0  0  0  0
 26 27  1  0  0  0  0
 27 31  1  0  0  0  0
 28 29  2  0  0  0  0
 28 33  1  0  0  0  0
 29 30  1  0  0  0  0
 30 31  2  0  0  0  0
 31 32  1  0  0  0  0
 32 33  2  0  0  0  0
M  END
>  <CHROM.1>
92.80528485,-67.83240172,142.10836831,-63.79343237,127.49936726,-86.25940556
-48.80829849,114.51365876,88.80389836,-23.73172666,8.80997168,40.39009703
71.16018871,2.28034269,-0.53507028,2.79937886

>  <Name>
ligand

>  <RI>
0

>  <Rbt.Current_Directory>
/home/itssahil/PROJECTS/Mol_Feturizer/New_Systems/rnas/3SUH

>  <Rbt.Executable>
rbdock ($Id: //depot/dev/client3/rdock/2013.1/src/exe/rbdock.cxx#4 $)

>  <Rbt.Library>
libRbt.so (2013.1, Build901 2013/11/27)

>  <Rbt.Parameter_File>
/export/apps/rDock/src/rDock_2013.1_src/data/scripts/dock_solv.prm

>  <Rbt.Receptor>
prm/pocket_docking_8.prm

>  <SCORE>
-15.6317

>  <SCORE.INTER>
-11.161

>  <SCORE.INTER.CONST>
1

>  <SCORE.INTER.POLAR>
0

>  <SCORE.INTER.ROT>
10

>  <SCORE.INTER.SOLV>
21.3758

>  <SCORE.INTER.VDW>
-24.8326

>  <SCORE.INTER.norm>
-0.328266

>  <SCORE.INTRA>
-4.47062

>  <SCORE.INTRA.DIHEDRAL>
-3.4577

>  <SCORE.INTRA.DIHEDRAL.0>
12.2703

>  <SCORE.INTRA.POLAR>
0

>  <SCORE.INTRA.POLAR.0>
0

>  <SCORE.INTRA.REPUL>
0

>  <SCORE.INTRA.REPUL.0>
0

>  <SCORE.INTRA.SOLV>
0.710124

>  <SCORE.INTRA.SOLV.lig_0>
-64.3214

>  <SCORE.INTRA.VDW>
-3.09683

>  <SCORE.INTRA.VDW.0>
-1.67301

>  <SCORE.INTRA.norm>
-0.131489

>  <SCORE.RESTR>
0

>  <SCORE.RESTR.CAVITY>
0

>  <SCORE.RESTR.norm>
0

>  <SCORE.SYSTEM>
0

>  <SCORE.SYSTEM.CONST>
0

>  <SCORE.SYSTEM.DIHEDRAL>
0

>  <SCORE.SYSTEM.SOLV>
0

>  <SCORE.SYSTEM.norm>
0

>  <SCORE.heavy>
34

>  <SCORE.norm>
-0.459755

>  <RMSD>
5.018

$$$$
ligand
 OpenBabel11021811483D
libRbt.so/2013.1/901 2013/11/27
 34 36  0  0  0  0  0  0  0  0999 V2000
    4.9895   46.3850   72.6625 N   0  0  0  0  0  0  0  0  0  0  0  0
    4.0112   47.0406   73.5613 C   0  0  1  0  0  0  0  0  0  0  0  0
    5.1674   46.7231   71.3787 C   0  0  0  0  0  0  0  0  0  0  0  0
    4.5382   47.6138   70.8009 O   0  0  0  0  0  0  0  0  0  0  0  0
   13.6944   45.9751   71.2168 N   0  0  0  0  0  0  0  0  0  0  0  0
    3.7632   46.1554   74.7942 C   0  0  0  0  0  0  0  0  0  0  0  0
    3.1245   44.8145   74.4077 C   0  0  0  0  0  0  0  0  0  0  0  0
    2.9164   43.9216   75.6405 C   0  0  0  0  0  0  0  0  0  0  0  0
    1.7874   43.9506   76.1840 O   0  0  0  0  0  0  0  0  0  0  0  0
    3.8908   43.2273   76.0109 O   0  0  0  0  0  0  0  0  0  0  0  0
   12.7925   44.9658   69.3390 N   0  0  0  0  0  0  0  0  0  0  0  0
    3.6159   49.2366   74.4383 O   0  0  0  0  0  0  0  0  0  0  0  0
   13.0700   44.9436   70.6542 C   0  0  0  0  0  0  0  0  0  0  0  0
    5.7121   48.6788   73.9055 O   0  0  0  0  0  0  0  0  0  0  0  0
   12.7084   43.8441   71.4430 N   0  0  0  0  0  0  0  0  0  0  0  0
   12.0528   42.7757   70.8461 C   0  0  0  0  0  0  0  0  0  0  0  0
   11.7527   42.8445   69.4920 C   0  0  0  0  0  0  0  0  0  0  0  0
   11.7164   41.8046   71.5191 O   0  0  0  0  0  0  0  0  0  0  0  0
   11.4361   40.5340   69.2396 C   0  0  0  0  0  0  0  0  0  0  0  0
   11.1592   41.7707   68.8376 N   0  0  0  0  0  0  0  0  0  0  0  0
   12.5999   40.1437   69.2999 O   0  0  0  0  0  0  0  0  0  0  0  0
   10.4042   42.0032   67.6015 C   0  0  2  0  0  0  0  0  0  0  0  0
   11.2561   42.8568   66.6585 C   0  0  0  0  0  0  0  0  0  0  0  0
   12.1596   43.9422   68.7458 C   0  0  0  0  0  0  0  0  0  0  0  0
   11.8953   43.9895   67.3726 N   0  0  0  0  0  0  0  0  0  0  0  0
    9.0805   42.7126   67.9065 C   0  0  0  0  0  0  0  0  0  0  0  0
    9.3254   43.8553   68.7950 N   0  0  0  0  0  0  0  0  0  0  0  0
    6.2770   45.9376   70.6564 C   0  0  0  0  0  0  0  0  0  0  0  0
    7.2125   46.5998   69.8650 C   0  0  0  0  0  0  0  0  0  0  0  0
    8.2491   45.8945   69.2570 C   0  0  0  0  0  0  0  0  0  0  0  0
    8.3353   44.5135   69.3971 C   0  0  0  0  0  0  0  0  0  0  0  0
    7.3968   43.8495   70.1798 C   0  0  0  0  0  0  0  0  0  0  0  0
    6.3801   44.5588   70.8175 C   0  0  0  0  0  0  0  0  0  0  0  0
    4.4843   48.4391   74.0086 C   0  0  0  0  0  0  0  0  0  0  0  0
  1  3  1  0  0  0  0
  2  1  1  6  0  0  0
  2  6  1  0  0  0  0
  2 34  1  0  0  0  0
  3  4  2  0  0  0  0
  3 28  1  0  0  0  0
  5 13  1  0  0  0  0
  6  7  1  0  0  0  0
  7  8  1  0  0  0  0
  8  9  1  0  0  0  0
  8 10  1  0  0  0  0
 11 13  2  0  0  0  0
 11 24  1  0  0  0  0
 12 34  1  0  0  0  0
 13 15  1  0  0  0  0
 14 34  1  0  0  0  0
 15 16  1  0  0  0  0
 16 17  1  0  0  0  0
 16 18  2  0  0  0  0
 17 20  1  0  0  0  0
 17 24  2  0  0  0  0
 19 21  1  0  0  0  0
 19 20  1  0  0  0  0
 20 22  1  0  0  0  0
 22 23  1  0  0  0  0
 22 26  1  1  0  0  0
 23 25  1  0  0  0  0
 24 25  1  0  0  0  0
 26 27  1  0  0  0  0
 27 31  1  0  0  0  0
 28 29  2  0  0  0  0
 28 33  1  0  0  0  0
 29 30  1  0  0  0  0
 30 31  2  0  0  0  0
 31 32  1  0  0  0  0
 32 33  2  0  0  0  0
M  END
>  <CHROM.1>
162.85499479,-63.59718973,160.05682740,178.41817854,95.54735033,-55.23030279
47.98713656,-168.61836991,-126.63193593,-133.81811528,8.15543819,44.59153434
71.16479342,-2.95881194,-0.62677785,2.85921728

>  <Name>
ligand

>  <RI>
0

>  <Rbt.Current_Directory>
/home/itssahil/PROJECTS/Mol_Feturizer/New_Systems/rnas/3SUH

>  <Rbt.Executable>
rbdock ($Id: //depot/dev/client3/rdock/2013.1/src/exe/rbdock.cxx#4 $)

>  <Rbt.Library>
libRbt.so (2013.1, Build901 2013/11/27)

>  <Rbt.Parameter_File>
/export/apps/rDock/src/rDock_2013.1_src/data/scripts/dock_solv.prm

>  <Rbt.Receptor>
prm/pocket_docking_8.prm

>  <SCORE>
-13.4814

>  <SCORE.INTER>
-10.1687

>  <SCORE.INTER.CONST>
1

>  <SCORE.INTER.POLAR>
0

>  <SCORE.INTER.ROT>
10

>  <SCORE.INTER.SOLV>
20.3564

>  <SCORE.INTER.VDW>
-23.8313

>  <SCORE.INTER.norm>
-0.299081

>  <SCORE.INTRA>
-3.31261

>  <SCORE.INTRA.DIHEDRAL>
-4.88758

>  <SCORE.INTRA.DIHEDRAL.0>
12.2703

>  <SCORE.INTRA.POLAR>
0

>  <SCORE.INTRA.POLAR.0>
0

>  <SCORE.INTRA.REPUL>
0

>  <SCORE.INTRA.REPUL.0>
0

>  <SCORE.INTRA.SOLV>
1.97781

>  <SCORE.INTRA.SOLV.lig_0>
-64.3214

>  <SCORE.INTRA.VDW>
-1.85772

>  <SCORE.INTRA.VDW.0>
-1.67301

>  <SCORE.INTRA.norm>
-0.0974296

>  <SCORE.RESTR>
0

>  <SCORE.RESTR.CAVITY>
0

>  <SCORE.RESTR.norm>
0

>  <SCORE.SYSTEM>
0

>  <SCORE.SYSTEM.CONST>
0

>  <SCORE.SYSTEM.DIHEDRAL>
0

>  <SCORE.SYSTEM.SOLV>
0

>  <SCORE.SYSTEM.norm>
0

>  <SCORE.heavy>
34

>  <SCORE.norm>
-0.39651

>  <RMSD>
5.392

$$$$
ligand
 OpenBabel11021811483D
libRbt.so/2013.1/901 2013/11/27
 34 36  0  0  0  0  0  0  0  0999 V2000
    7.0977   39.9779   72.0014 N   0  0  0  0  0  0  0  0  0  0  0  0
    6.4792   38.8124   72.6752 C   0  0  1  0  0  0  0  0  0  0  0  0
    6.8060   41.2517   72.2952 C   0  0  0  0  0  0  0  0  0  0  0  0
    5.9913   41.5977   73.1553 O   0  0  0  0  0  0  0  0  0  0  0  0
   12.6245   40.2364   72.7068 N   0  0  0  0  0  0  0  0  0  0  0  0
    7.3896   37.5819   72.5259 C   0  0  0  0  0  0  0  0  0  0  0  0
    7.6750   37.2659   71.0515 C   0  0  0  0  0  0  0  0  0  0  0  0
    8.4597   35.9531   70.9057 C   0  0  0  0  0  0  0  0  0  0  0  0
    7.8509   34.9744   70.4134 O   0  0  0  0  0  0  0  0  0  0  0  0
    9.6525   35.9580   71.2878 O   0  0  0  0  0  0  0  0  0  0  0  0
   12.9816   42.4024   71.9722 N   0  0  0  0  0  0  0  0  0  0  0  0
    5.0867   38.7603   74.6261 O   0  0  0  0  0  0  0  0  0  0  0  0
   12.4817   41.1708   71.7703 C   0  0  0  0  0  0  0  0  0  0  0  0
    7.1395   39.6185   74.8222 O   0  0  0  0  0  0  0  0  0  0  0  0
   11.8096   40.8577   70.5821 N   0  0  0  0  0  0  0  0  0  0  0  0
   11.6624   41.8421   69.6141 C   0  0  0  0  0  0  0  0  0  0  0  0
   12.1623   43.1125   69.8677 C   0  0  0  0  0  0  0  0  0  0  0  0
   11.0678   41.5945   68.5680 O   0  0  0  0  0  0  0  0  0  0  0  0
   12.1793   43.7737   67.6172 C   0  0  0  0  0  0  0  0  0  0  0  0
   12.0989   44.1100   68.9010 N   0  0  0  0  0  0  0  0  0  0  0  0
   11.1899   43.8424   66.8914 O   0  0  0  0  0  0  0  0  0  0  0  0
   12.1463   45.5183   69.3091 C   0  0  2  0  0  0  0  0  0  0  0  0
   13.3254   45.7134   70.2657 C   0  0  0  0  0  0  0  0  0  0  0  0
   12.8485   43.3656   71.0478 C   0  0  0  0  0  0  0  0  0  0  0  0
   13.3901   44.6343   71.2820 N   0  0  0  0  0  0  0  0  0  0  0  0
   10.8366   45.9230   69.9943 C   0  0  0  0  0  0  0  0  0  0  0  0
    9.7196   45.1716   69.4084 N   0  0  0  0  0  0  0  0  0  0  0  0
    7.6126   42.2942   71.4999 C   0  0  0  0  0  0  0  0  0  0  0  0
    7.1044   42.8328   70.3204 C   0  0  0  0  0  0  0  0  0  0  0  0
    7.8104   43.8169   69.6313 C   0  0  0  0  0  0  0  0  0  0  0  0
    9.0531   44.2405   70.0901 C   0  0  0  0  0  0  0  0  0  0  0  0
    9.5663   43.6973   71.2631 C   0  0  0  0  0  0  0  0  0  0  0  0
    8.8443   42.7384   71.9724 C   0  0  0  0  0  0  0  0  0  0  0  0
    6.2096   39.0848   74.1695 C   0  0  0  0  0  0  0  0  0  0  0  0
  1  3  1  0  0  0  0
  2  1  1  1  0  0  0
  2  6  1  0  0  0  0
  2 34  1  0  0  0  0
  3  4  2  0  0  0  0
  3 28  1  0  0  0  0
  5 13  1  0  0  0  0
  6  7  1  0  0  0  0
  7  8  1  0  0  0  0
  8  9  1  0  0  0  0
  8 10  1  0  0  0  0
 11 13  2  0  0  0  0
 11 24  1  0  0  0  0
 12 34  1  0  0  0  0
 13 15  1  0  0  0  0
 14 34  1  0  0  0  0
 15 16  1  0  0  0  0
 16 17  1  0  0  0  0
 16 18  2  0  0  0  0
 17 20  1  0  0  0  0
 17 24  2  0  0  0  0
 19 21  1  0  0  0  0
 19 20  1  0  0  0  0
 20 22  1  0  0  0  0
 22 23  1  0  0  0  0
 22 26  1  1  0  0  0
 23 25  1  0  0  0  0
 24 25  1  0  0  0  0
 26 27  1  0  0  0  0
 27 31  1  0  0  0  0
 28 29  2  0  0  0  0
 28 33  1  0  0  0  0
 29 30  1  0  0  0  0
 30 31  2  0  0  0  0
 31 32  1  0  0  0  0
 32 33  2  0  0  0  0
M  END
>  <CHROM.1>
-157.65718449,-56.95885049,133.82474125,-173.99563318,109.92246337,108.61473716
-32.38805119,111.51124125,163.20777865,93.64554191,9.63884191,41.49335314
71.02082269,2.26485709,-0.47896020,3.06400083

>  <Name>
ligand

>  <RI>
0

>  <Rbt.Current_Directory>
/home/itssahil/PROJECTS/Mol_Feturizer/New_Systems/rnas/3SUH

>  <Rbt.Executable>
rbdock ($Id: //depot/dev/client3/rdock/2013.1/src/exe/rbdock.cxx#4 $)

>  <Rbt.Library>
libRbt.so (2013.1, Build901 2013/11/27)

>  <Rbt.Parameter_File>
/export/apps/rDock/src/rDock_2013.1_src/data/scripts/dock_solv.prm

>  <Rbt.Receptor>
prm/pocket_docking_7.prm

>  <SCORE>
-16.2066

>  <SCORE.INTER>
-13.2996

>  <SCORE.INTER.CONST>
1

>  <SCORE.INTER.POLAR>
0

>  <SCORE.INTER.ROT>
10

>  <SCORE.INTER.SOLV>
17.3904

>  <SCORE.INTER.VDW>
-24.9298

>  <SCORE.INTER.norm>
-0.391164

>  <SCORE.INTRA>
-2.90707

>  <SCORE.INTRA.DIHEDRAL>
-1.55522

>  <SCORE.INTRA.DIHEDRAL.0>
12.2703

>  <SCORE.INTRA.POLAR>
0

>  <SCORE.INTRA.POLAR.0>
0

>  <SCORE.INTRA.REPUL>
0

>  <SCORE.INTRA.REPUL.0>
0

>  <SCORE.INTRA.SOLV>
1.54838

>  <SCORE.INTRA.SOLV.lig_0>
-64.3214

>  <SCORE.INTRA.VDW>
-2.90365

>  <SCORE.INTRA.VDW.0>
-1.67301

>  <SCORE.INTRA.norm>
-0.0855021

>  <SCORE.RESTR>
0

>  <SCORE.RESTR.CAVITY>
0

>  <SCORE.RESTR.norm>
0

>  <SCORE.SYSTEM>
0

>  <SCORE.SYSTEM.CONST>
0

>  <SCORE.SYSTEM.DIHEDRAL>
0

>  <SCORE.SYSTEM.SOLV>
0

>  <SCORE.SYSTEM.norm>
0

>  <SCORE.heavy>
34

>  <SCORE.norm>
-0.476666

>  <RMSD>
5.729

$$$$
ligand
 OpenBabel11021811483D
libRbt.so/2013.1/901 2013/11/27
 34 36  0  0  0  0  0  0  0  0999 V2000
    4.9831   46.3239   72.6687 N   0  0  0  0  0  0  0  0  0  0  0  0
    3.9583   46.9348   73.5470 C   0  0  1  0  0  0  0  0  0  0  0  0
    5.0940   46.5818   71.3591 C   0  0  0  0  0  0  0  0  0  0  0  0
    4.3574   47.3529   70.7377 O   0  0  0  0  0  0  0  0  0  0  0  0
   13.6328   46.0726   71.3002 N   0  0  0  0  0  0  0  0  0  0  0  0
    2.8191   45.9313   73.7931 C   0  0  0  0  0  0  0  0  0  0  0  0
    1.6666   46.5674   74.5820 C   0  0  0  0  0  0  0  0  0  0  0  0
    0.5383   45.5552   74.8320 C   0  0  0  0  0  0  0  0  0  0  0  0
   -0.1235   45.1785   73.8364 O   0  0  0  0  0  0  0  0  0  0  0  0
    0.3639   45.1780   76.0136 O   0  0  0  0  0  0  0  0  0  0  0  0
   12.7724   45.0444   69.4131 N   0  0  0  0  0  0  0  0  0  0  0  0
    5.4558   46.6863   75.4026 O   0  0  0  0  0  0  0  0  0  0  0  0
   13.0395   45.0266   70.7306 C   0  0  0  0  0  0  0  0  0  0  0  0
    4.0794   48.4454   75.3906 O   0  0  0  0  0  0  0  0  0  0  0  0
   12.6996   43.9167   71.5143 N   0  0  0  0  0  0  0  0  0  0  0  0
   12.0764   42.8332   70.9101 C   0  0  0  0  0  0  0  0  0  0  0  0
   11.7859   42.8970   69.5536 C   0  0  0  0  0  0  0  0  0  0  0  0
   11.7594   41.8524   71.5784 O   0  0  0  0  0  0  0  0  0  0  0  0
   11.5305   40.5797   69.2945 C   0  0  0  0  0  0  0  0  0  0  0  0
   11.2254   41.8098   68.8924 N   0  0  0  0  0  0  0  0  0  0  0  0
   12.7041   40.2278   69.3896 O   0  0  0  0  0  0  0  0  0  0  0  0
   10.4750   42.0255   67.6504 C   0  0  2  0  0  0  0  0  0  0  0  0
   11.3126   42.9024   66.7162 C   0  0  0  0  0  0  0  0  0  0  0  0
   12.1709   44.0063   68.8129 C   0  0  0  0  0  0  0  0  0  0  0  0
   11.9168   44.0496   67.4376 N   0  0  0  0  0  0  0  0  0  0  0  0
    9.1311   42.7002   67.9457 C   0  0  0  0  0  0  0  0  0  0  0  0
    9.3548   43.9345   68.7085 N   0  0  0  0  0  0  0  0  0  0  0  0
    6.2676   45.8698   70.6623 C   0  0  0  0  0  0  0  0  0  0  0  0
    6.3861   44.4831   70.7153 C   0  0  0  0  0  0  0  0  0  0  0  0
    7.4174   43.8358   70.0377 C   0  0  0  0  0  0  0  0  0  0  0  0
    8.3673   44.5714   69.3371 C   0  0  0  0  0  0  0  0  0  0  0  0
    8.2556   45.9569   69.2904 C   0  0  0  0  0  0  0  0  0  0  0  0
    7.2037   46.6029   69.9385 C   0  0  0  0  0  0  0  0  0  0  0  0
    4.5515   47.3930   74.8953 C   0  0  0  0  0  0  0  0  0  0  0  0
  1  3  1  0  0  0  0
  2  1  1  6  0  0  0
  2  6  1  0  0  0  0
  2 34  1  0  0  0  0
  3  4  2  0  0  0  0
  3 28  1  0  0  0  0
  5 13  1  0  0  0  0
  6  7  1  0  0  0  0
  7  8  1  0  0  0  0
  8  9  1  0  0  0  0
  8 10  1  0  0  0  0
 11 13  2  0  0  0  0
 11 24  1  0  0  0  0
 12 34  1  0  0  0  0
 13 15  1  0  0  0  0
 14 34  1  0  0  0  0
 15 16  1  0  0  0  0
 16 17  1  0  0  0  0
 16 18  2  0  0  0  0
 17 20  1  0  0  0  0
 17 24  2  0  0  0  0
 19 21  1  0  0  0  0
 19 20  1  0  0  0  0
 20 22  1  0  0  0  0
 22 23  1  0  0  0  0
 22 26  1  1  0  0  0
 23 25  1  0  0  0  0
 24 25  1  0  0  0  0
 26 27  1  0  0  0  0
 27 31  1  0  0  0  0
 28 29  2  0  0  0  0
 28 33  1  0  0  0  0
 29 30  1  0  0  0  0
 30 31  2  0  0  0  0
 31 32  1  0  0  0  0
 32 33  2  0  0  0  0
M  END
>  <CHROM.1>
101.43921904,-174.28528602,-36.02210072,-179.58102870,-68.67126629,-53.74982387
54.50960107,-165.66591476,41.79585241,56.36474005,7.84788176,44.67564261
71.16353933,-2.57044029,-0.07010559,-2.27739522

>  <Name>
ligand

>  <RI>
0

>  <Rbt.Current_Directory>
/home/itssahil/PROJECTS/Mol_Feturizer/New_Systems/rnas/3SUH

>  <Rbt.Executable>
rbdock ($Id: //depot/dev/client3/rdock/2013.1/src/exe/rbdock.cxx#4 $)

>  <Rbt.Library>
libRbt.so (2013.1, Build901 2013/11/27)

>  <Rbt.Parameter_File>
/export/apps/rDock/src/rDock_2013.1_src/data/scripts/dock_solv.prm

>  <Rbt.Receptor>
prm/pocket_docking_6.prm

>  <SCORE>
-11.9759

>  <SCORE.INTER>
-9.35199

>  <SCORE.INTER.CONST>
1

>  <SCORE.INTER.POLAR>
0

>  <SCORE.INTER.ROT>
10

>  <SCORE.INTER.SOLV>
19.5476

>  <SCORE.INTER.VDW>
-23.0172

>  <SCORE.INTER.norm>
-0.275059

>  <SCORE.INTRA>
-2.62386

>  <SCORE.INTRA.DIHEDRAL>
-4.53787

>  <SCORE.INTRA.DIHEDRAL.0>
12.2703

>  <SCORE.INTRA.POLAR>
0

>  <SCORE.INTRA.POLAR.0>
0

>  <SCORE.INTRA.REPUL>
0

>  <SCORE.INTRA.REPUL.0>
0

>  <SCORE.INTRA.SOLV>
1.55439

>  <SCORE.INTRA.SOLV.lig_0>
-64.3214

>  <SCORE.INTRA.VDW>
-1.13213

>  <SCORE.INTRA.VDW.0>
-1.67301

>  <SCORE.INTRA.norm>
-0.0771725

>  <SCORE.RESTR>
0

>  <SCORE.RESTR.CAVITY>
0

>  <SCORE.RESTR.norm>
0

>  <SCORE.SYSTEM>
0

>  <SCORE.SYSTEM.CONST>
0

>  <SCORE.SYSTEM.DIHEDRAL>
0

>  <SCORE.SYSTEM.SOLV>
0

>  <SCORE.SYSTEM.norm>
0

>  <SCORE.heavy>
34

>  <SCORE.norm>
-0.352231

>  <RMSD>
5.739

$$$$
ligand
 OpenBabel11021811483D
libRbt.so/2013.1/901 2013/11/27
 34 36  0  0  0  0  0  0  0  0999 V2000
    6.4761   38.9391   71.7773 N   0  0  0  0  0  0  0  0  0  0  0  0
    6.2537   37.5889   72.3451 C   0  0  1  0  0  0  0  0  0  0  0  0
    7.6380   39.3447   71.2486 C   0  0  0  0  0  0  0  0  0  0  0  0
    8.6511   38.6436   71.1763 O   0  0  0  0  0  0  0  0  0  0  0  0
    9.9613   43.4940   75.5964 N   0  0  0  0  0  0  0  0  0  0  0  0
    6.6259   37.5845   73.8373 C   0  0  0  0  0  0  0  0  0  0  0  0
    6.6722   36.1588   74.4037 C   0  0  0  0  0  0  0  0  0  0  0  0
    5.2584   35.5844   74.5808 C   0  0  0  0  0  0  0  0  0  0  0  0
    4.9781   34.5459   73.9374 O   0  0  0  0  0  0  0  0  0  0  0  0
    4.4894   36.1953   75.3581 O   0  0  0  0  0  0  0  0  0  0  0  0
    9.8124   45.0582   73.8966 N   0  0  0  0  0  0  0  0  0  0  0  0
    4.5716   36.2139   71.3313 O   0  0  0  0  0  0  0  0  0  0  0  0
    9.9696   43.7848   74.2980 C   0  0  0  0  0  0  0  0  0  0  0  0
    3.9301   37.6898   72.8802 O   0  0  0  0  0  0  0  0  0  0  0  0
   10.1424   42.7563   73.3631 N   0  0  0  0  0  0  0  0  0  0  0  0
   10.1444   43.0710   72.0109 C   0  0  0  0  0  0  0  0  0  0  0  0
    9.9475   44.3916   71.6290 C   0  0  0  0  0  0  0  0  0  0  0  0
   10.2840   42.1849   71.1716 O   0  0  0  0  0  0  0  0  0  0  0  0
   10.8317   44.1108   69.4746 C   0  0  0  0  0  0  0  0  0  0  0  0
   10.0101   44.7639   70.2908 N   0  0  0  0  0  0  0  0  0  0  0  0
   10.4896   43.8495   68.3235 O   0  0  0  0  0  0  0  0  0  0  0  0
    9.3296   45.9851   69.8460 C   0  0  2  0  0  0  0  0  0  0  0  0
    9.7142   47.1316   70.7846 C   0  0  0  0  0  0  0  0  0  0  0  0
    9.8118   45.3802   72.5942 C   0  0  0  0  0  0  0  0  0  0  0  0
    9.6578   46.7163   72.2079 N   0  0  0  0  0  0  0  0  0  0  0  0
    7.8102   45.7847   69.8504 C   0  0  0  0  0  0  0  0  0  0  0  0
    7.4678   44.5839   69.0784 N   0  0  0  0  0  0  0  0  0  0  0  0
    7.6170   40.7723   70.6730 C   0  0  0  0  0  0  0  0  0  0  0  0
    8.0321   41.0146   69.3658 C   0  0  0  0  0  0  0  0  0  0  0  0
    7.9601   42.2981   68.8281 C   0  0  0  0  0  0  0  0  0  0  0  0
    7.5146   43.3613   69.6063 C   0  0  0  0  0  0  0  0  0  0  0  0
    7.1081   43.1227   70.9148 C   0  0  0  0  0  0  0  0  0  0  0  0
    7.1462   41.8327   71.4422 C   0  0  0  0  0  0  0  0  0  0  0  0
    4.7942   37.1211   72.1691 C   0  0  0  0  0  0  0  0  0  0  0  0
  1  3  1  0  0  0  0
  2  1  1  1  0  0  0
  2  6  1  0  0  0  0
  2 34  1  0  0  0  0
  3  4  2  0  0  0  0
  3 28  1  0  0  0  0
  5 13  1  0  0  0  0
  6  7  1  0  0  0  0
  7  8  1  0  0  0  0
  8  9  1  0  0  0  0
  8 10  1  0  0  0  0
 11 13  2  0  0  0  0
 11 24  1  0  0  0  0
 12 34  1  0  0  0  0
 13 15  1  0  0  0  0
 14 34  1  0  0  0  0
 15 16  1  0  0  0  0
 16 17  1  0  0  0  0
 16 18  2  0  0  0  0
 17 20  1  0  0  0  0
 17 24  2  0  0  0  0
 19 21  1  0  0  0  0
 19 20  1  0  0  0  0
 20 22  1  0  0  0  0
 22 23  1  0  0  0  0
 22 26  1  1  0  0  0
 23 25  1  0  0  0  0
 24 25  1  0  0  0  0
 26 27  1  0  0  0  0
 27 31  1  0  0  0  0
 28 29  2  0  0  0  0
 28 33  1  0  0  0  0
 29 30  1  0  0  0  0
 30 31  2  0  0  0  0
 31 32  1  0  0  0  0
 32 33  2  0  0  0  0
M  END
>  <CHROM.1>
88.92662284,-169.02837556,108.16042959,-73.70943385,119.47972066,140.99029560
-52.97362219,83.25418105,-142.28258887,-126.88681783,7.94120015,41.40259084
71.79970263,2.55948770,1.02794959,1.95084845

>  <Name>
ligand

>  <RI>
0

>  <Rbt.Current_Directory>
/home/itssahil/PROJECTS/Mol_Feturizer/New_Systems/rnas/3SUH

>  <Rbt.Executable>
rbdock ($Id: //depot/dev/client3/rdock/2013.1/src/exe/rbdock.cxx#4 $)

>  <Rbt.Library>
libRbt.so (2013.1, Build901 2013/11/27)

>  <Rbt.Parameter_File>
/export/apps/rDock/src/rDock_2013.1_src/data/scripts/dock_solv.prm

>  <Rbt.Receptor>
prm/pocket_docking_7.prm

>  <SCORE>
-11.4967

>  <SCORE.INTER>
-5.59903

>  <SCORE.INTER.CONST>
1

>  <SCORE.INTER.POLAR>
0

>  <SCORE.INTER.ROT>
10

>  <SCORE.INTER.SOLV>
10.6413

>  <SCORE.INTER.VDW>
-17.5465

>  <SCORE.INTER.norm>
-0.164677

>  <SCORE.INTRA>
-5.89772

>  <SCORE.INTRA.DIHEDRAL>
-3.71454

>  <SCORE.INTRA.DIHEDRAL.0>
12.2703

>  <SCORE.INTRA.POLAR>
0

>  <SCORE.INTRA.POLAR.0>
0

>  <SCORE.INTRA.REPUL>
0

>  <SCORE.INTRA.REPUL.0>
0

>  <SCORE.INTRA.SOLV>
1.11437

>  <SCORE.INTRA.SOLV.lig_0>
-64.3214

>  <SCORE.INTRA.VDW>
-4.59764

>  <SCORE.INTRA.VDW.0>
-1.67301

>  <SCORE.INTRA.norm>
-0.173462

>  <SCORE.RESTR>
0

>  <SCORE.RESTR.CAVITY>
0

>  <SCORE.RESTR.norm>
0

>  <SCORE.SYSTEM>
0

>  <SCORE.SYSTEM.CONST>
0

>  <SCORE.SYSTEM.DIHEDRAL>
0

>  <SCORE.SYSTEM.SOLV>
0

>  <SCORE.SYSTEM.norm>
0

>  <SCORE.heavy>
34

>  <SCORE.norm>
-0.33814

>  <RMSD>
5.933

$$$$
ligand
 OpenBabel11021811483D
libRbt.so/2013.1/901 2013/11/27
 34 36  0  0  0  0  0  0  0  0999 V2000
    7.1003   38.2187   71.5546 N   0  0  0  0  0  0  0  0  0  0  0  0
    7.0964   36.8158   72.0308 C   0  0  1  0  0  0  0  0  0  0  0  0
    8.1820   38.8378   71.0642 C   0  0  0  0  0  0  0  0  0  0  0  0
    9.2937   38.3130   70.9554 O   0  0  0  0  0  0  0  0  0  0  0  0
   12.0460   42.9325   74.5735 N   0  0  0  0  0  0  0  0  0  0  0  0
    6.1367   36.6742   73.2241 C   0  0  0  0  0  0  0  0  0  0  0  0
    6.6643   37.4093   74.4637 C   0  0  0  0  0  0  0  0  0  0  0  0
    6.7556   38.9228   74.2161 C   0  0  0  0  0  0  0  0  0  0  0  0
    5.6763   39.5501   74.1027 O   0  0  0  0  0  0  0  0  0  0  0  0
    7.9032   39.4199   74.1482 O   0  0  0  0  0  0  0  0  0  0  0  0
   11.2520   44.5487   73.1190 N   0  0  0  0  0  0  0  0  0  0  0  0
    5.5385   35.9321   70.4371 O   0  0  0  0  0  0  0  0  0  0  0  0
   11.5876   43.2716   73.3713 C   0  0  0  0  0  0  0  0  0  0  0  0
    7.5570   34.9851   70.5708 O   0  0  0  0  0  0  0  0  0  0  0  0
   11.4599   42.2895   72.3809 N   0  0  0  0  0  0  0  0  0  0  0  0
   10.9758   42.6541   71.1318 C   0  0  0  0  0  0  0  0  0  0  0  0
   10.6081   43.9754   70.9142 C   0  0  0  0  0  0  0  0  0  0  0  0
   10.8453   41.8088   70.2501 O   0  0  0  0  0  0  0  0  0  0  0  0
   10.6905   43.8234   68.5749 C   0  0  0  0  0  0  0  0  0  0  0  0
   10.1834   44.4003   69.6602 N   0  0  0  0  0  0  0  0  0  0  0  0
   11.8526   44.0399   68.2389 O   0  0  0  0  0  0  0  0  0  0  0  0
    9.3448   45.5987   69.5470 C   0  0  2  0  0  0  0  0  0  0  0  0
    9.9909   46.7285   70.3529 C   0  0  0  0  0  0  0  0  0  0  0  0
   10.7825   44.9186   71.9179 C   0  0  0  0  0  0  0  0  0  0  0  0
   10.4529   46.2579   71.6821 N   0  0  0  0  0  0  0  0  0  0  0  0
    7.9322   45.3167   70.0699 C   0  0  0  0  0  0  0  0  0  0  0  0
    7.3538   44.1800   69.3427 N   0  0  0  0  0  0  0  0  0  0  0  0
    7.9333   40.2788   70.5831 C   0  0  0  0  0  0  0  0  0  0  0  0
    7.3364   41.2133   71.4259 C   0  0  0  0  0  0  0  0  0  0  0  0
    7.1626   42.5314   71.0088 C   0  0  0  0  0  0  0  0  0  0  0  0
    7.5426   42.9184   69.7281 C   0  0  0  0  0  0  0  0  0  0  0  0
    8.1306   41.9843   68.8819 C   0  0  0  0  0  0  0  0  0  0  0  0
    8.3374   40.6741   69.3110 C   0  0  0  0  0  0  0  0  0  0  0  0
    6.6936   35.8283   70.9162 C   0  0  0  0  0  0  0  0  0  0  0  0
  1  3  1  0  0  0  0
  2  1  1  6  0  0  0
  2  6  1  0  0  0  0
  2 34  1  0  0  0  0
  3  4  2  0  0  0  0
  3 28  1  0  0  0  0
  5 13  1  0  0  0  0
  6  7  1  0  0  0  0
  7  8  1  0  0  0  0
  8  9  1  0  0  0  0
  8 10  1  0  0  0  0
 11 13  2  0  0  0  0
 11 24  1  0  0  0  0
 12 34  1  0  0  0  0
 13 15  1  0  0  0  0
 14 34  1  0  0  0  0
 15 16  1  0  0  0  0
 16 17  1  0  0  0  0
 16 18  2  0  0  0  0
 17 20  1  0  0  0  0
 17 24  2  0  0  0  0
 19 21  1  0  0  0  0
 19 20  1  0  0  0  0
 20 22  1  0  0  0  0
 22 23  1  0  0  0  0
 22 26  1  1  0  0  0
 23 25  1  0  0  0  0
 24 25  1  0  0  0  0
 26 27  1  0  0  0  0
 27 31  1  0  0  0  0
 28 29  2  0  0  0  0
 28 33  1  0  0  0  0
 29 30  1  0  0  0  0
 30 31  2  0  0  0  0
 31 32  1  0  0  0  0
 32 33  2  0  0  0  0
M  END
>  <CHROM.1>
145.27472923,-68.59773834,-63.06663186,63.54608647,69.18850220,-71.75667809
-56.48954676,87.30344868,57.55063156,53.18107948,8.77568871,41.32333440,71.29734765
2.53681327,1.03463968,2.05520087

>  <Name>
ligand

>  <RI>
0

>  <Rbt.Current_Directory>
/home/itssahil/PROJECTS/Mol_Feturizer/New_Systems/rnas/3SUH

>  <Rbt.Executable>
rbdock ($Id: //depot/dev/client3/rdock/2013.1/src/exe/rbdock.cxx#4 $)

>  <Rbt.Library>
libRbt.so (2013.1, Build901 2013/11/27)

>  <Rbt.Parameter_File>
/export/apps/rDock/src/rDock_2013.1_src/data/scripts/dock_solv.prm

>  <Rbt.Receptor>
prm/pocket_docking_7.prm

>  <SCORE>
-15.9388

>  <SCORE.INTER>
-9.13544

>  <SCORE.INTER.CONST>
1

>  <SCORE.INTER.POLAR>
0

>  <SCORE.INTER.ROT>
10

>  <SCORE.INTER.SOLV>
11.4082

>  <SCORE.INTER.VDW>
-20.1597

>  <SCORE.INTER.norm>
-0.268689

>  <SCORE.INTRA>
-6.82429

>  <SCORE.INTRA.DIHEDRAL>
-4.44698

>  <SCORE.INTRA.DIHEDRAL.0>
12.2703

>  <SCORE.INTRA.POLAR>
0

>  <SCORE.INTRA.POLAR.0>
0

>  <SCORE.INTRA.REPUL>
0

>  <SCORE.INTRA.REPUL.0>
0

>  <SCORE.INTRA.SOLV>
0.843315

>  <SCORE.INTRA.SOLV.lig_0>
-64.3214

>  <SCORE.INTRA.VDW>
-5.02246

>  <SCORE.INTRA.VDW.0>
-1.67301

>  <SCORE.INTRA.norm>
-0.200714

>  <SCORE.RESTR>
0.0209228

>  <SCORE.RESTR.CAVITY>
0.0209228

>  <SCORE.RESTR.norm>
0.000615378

>  <SCORE.SYSTEM>
0

>  <SCORE.SYSTEM.CONST>
0

>  <SCORE.SYSTEM.DIHEDRAL>
0

>  <SCORE.SYSTEM.SOLV>
0

>  <SCORE.SYSTEM.norm>
0

>  <SCORE.heavy>
34

>  <SCORE.norm>
-0.468788

>  <RMSD>
5.939

$$$$
ligand
 OpenBabel11021811483D
libRbt.so/2013.1/901 2013/11/27
 34 36  0  0  0  0  0  0  0  0999 V2000
    6.1323   45.4808   72.5035 N   0  0  0  0  0  0  0  0  0  0  0  0
    4.8946   45.9910   73.1381 C   0  0  1  0  0  0  0  0  0  0  0  0
    6.4955   45.7593   71.2447 C   0  0  0  0  0  0  0  0  0  0  0  0
    5.8426   46.4679   70.4735 O   0  0  0  0  0  0  0  0  0  0  0  0
    7.3034   38.7743   72.7695 N   0  0  0  0  0  0  0  0  0  0  0  0
    4.3173   44.9245   74.0837 C   0  0  0  0  0  0  0  0  0  0  0  0
    2.8831   45.2650   74.5109 C   0  0  0  0  0  0  0  0  0  0  0  0
    2.2725   44.1382   75.3581 C   0  0  0  0  0  0  0  0  0  0  0  0
    2.5064   44.1572   76.5893 O   0  0  0  0  0  0  0  0  0  0  0  0
    1.5829   43.2835   74.7558 O   0  0  0  0  0  0  0  0  0  0  0  0
    9.3980   39.1256   71.8489 N   0  0  0  0  0  0  0  0  0  0  0  0
    6.2269   47.4131   74.5346 O   0  0  0  0  0  0  0  0  0  0  0  0
    8.0706   39.3384   71.8402 C   0  0  0  0  0  0  0  0  0  0  0  0
    4.2289   48.1615   73.8738 O   0  0  0  0  0  0  0  0  0  0  0  0
    7.4827   40.1499   70.8617 N   0  0  0  0  0  0  0  0  0  0  0  0
    8.2938   40.7373   69.9001 C   0  0  0  0  0  0  0  0  0  0  0  0
    9.6646   40.5229   69.9566 C   0  0  0  0  0  0  0  0  0  0  0  0
    7.8028   41.4613   69.0376 O   0  0  0  0  0  0  0  0  0  0  0  0
   10.0570   41.1485   67.7301 C   0  0  0  0  0  0  0  0  0  0  0  0
   10.5075   41.0340   68.9758 N   0  0  0  0  0  0  0  0  0  0  0  0
   10.3682   42.1174   67.0411 O   0  0  0  0  0  0  0  0  0  0  0  0
   11.9265   41.2486   69.2801 C   0  0  2  0  0  0  0  0  0  0  0  0
   12.4890   39.9779   69.9222 C   0  0  0  0  0  0  0  0  0  0  0  0
   10.1966   39.6851   70.9274 C   0  0  0  0  0  0  0  0  0  0  0  0
   11.5730   39.4351   70.9556 N   0  0  0  0  0  0  0  0  0  0  0  0
   12.0979   42.4407   70.2277 C   0  0  0  0  0  0  0  0  0  0  0  0
   11.5031   43.6402   69.6255 N   0  0  0  0  0  0  0  0  0  0  0  0
    7.8484   45.1599   70.8200 C   0  0  0  0  0  0  0  0  0  0  0  0
    8.0045   44.5872   69.5601 C   0  0  0  0  0  0  0  0  0  0  0  0
    9.2441   44.0953   69.1563 C   0  0  0  0  0  0  0  0  0  0  0  0
   10.3298   44.1298   70.0249 C   0  0  0  0  0  0  0  0  0  0  0  0
   10.1735   44.6933   71.2868 C   0  0  0  0  0  0  0  0  0  0  0  0
    8.9426   45.2180   71.6785 C   0  0  0  0  0  0  0  0  0  0  0  0
    5.1413   47.3004   73.9155 C   0  0  0  0  0  0  0  0  0  0  0  0
  1  3  1  0  0  0  0
  2  1  1  1  0  0  0
  2  6  1  0  0  0  0
  2 34  1  0  0  0  0
  3  4  2  0  0  0  0
  3 28  1  0  0  0  0
  5 13  1  0  0  0  0
  6  7  1  0  0  0  0
  7  8  1  0  0  0  0
  8  9  1  0  0  0  0
  8 10  1  0  0  0  0
 11 13  2  0  0  0  0
 11 24  1  0  0  0  0
 12 34  1  0  0  0  0
 13 15  1  0  0  0  0
 14 34  1  0  0  0  0
 15 16  1  0  0  0  0
 16 17  1  0  0  0  0
 16 18  2  0  0  0  0
 17 20  1  0  0  0  0
 17 24  2  0  0  0  0
 19 21  1  0  0  0  0
 19 20  1  0  0  0  0
 20 22  1  0  0  0  0
 22 23  1  0  0  0  0
 22 26  1  1  0  0  0
 23 25  1  0  0  0  0
 24 25  1  0  0  0  0
 26 27  1  0  0  0  0
 27 31  1  0  0  0  0
 28 29  2  0  0  0  0
 28 33  1  0  0  0  0
 29 30  1  0  0  0  0
 30 31  2  0  0  0  0
 31 32  1  0  0  0  0
 32 33  2  0  0  0  0
M  END
>  <CHROM.1>
144.41135161,-166.79088747,-37.25407244,175.20639661,85.65550778,141.81590012
-57.39051763,104.02330056,-113.18539347,138.16829906,7.73244816,43.17519319
71.46424560,-2.70072775,-0.65812655,3.01723824

>  <Name>
ligand

>  <RI>
0

>  <Rbt.Current_Directory>
/home/itssahil/PROJECTS/Mol_Feturizer/New_Systems/rnas/3SUH

>  <Rbt.Executable>
rbdock ($Id: //depot/dev/client3/rdock/2013.1/src/exe/rbdock.cxx#4 $)

>  <Rbt.Library>
libRbt.so (2013.1, Build901 2013/11/27)

>  <Rbt.Parameter_File>
/export/apps/rDock/src/rDock_2013.1_src/data/scripts/dock_solv.prm

>  <Rbt.Receptor>
prm/pocket_docking_7.prm

>  <SCORE>
-11.604

>  <SCORE.INTER>
-6.44105

>  <SCORE.INTER.CONST>
1

>  <SCORE.INTER.POLAR>
0

>  <SCORE.INTER.ROT>
10

>  <SCORE.INTER.SOLV>
12.8343

>  <SCORE.INTER.VDW>
-18.8388

>  <SCORE.INTER.norm>
-0.189443

>  <SCORE.INTRA>
-5.16299

>  <SCORE.INTRA.DIHEDRAL>
-3.59912

>  <SCORE.INTRA.DIHEDRAL.0>
12.2703

>  <SCORE.INTRA.POLAR>
0

>  <SCORE.INTRA.POLAR.0>
0

>  <SCORE.INTRA.REPUL>
0

>  <SCORE.INTRA.REPUL.0>
0

>  <SCORE.INTRA.SOLV>
0.298729

>  <SCORE.INTRA.SOLV.lig_0>
-64.3214

>  <SCORE.INTRA.VDW>
-3.51279

>  <SCORE.INTRA.VDW.0>
-1.67301

>  <SCORE.INTRA.norm>
-0.151853

>  <SCORE.RESTR>
0

>  <SCORE.RESTR.CAVITY>
0

>  <SCORE.RESTR.norm>
0

>  <SCORE.SYSTEM>
0

>  <SCORE.SYSTEM.CONST>
0

>  <SCORE.SYSTEM.DIHEDRAL>
0

>  <SCORE.SYSTEM.SOLV>
0

>  <SCORE.SYSTEM.norm>
0

>  <SCORE.heavy>
34

>  <SCORE.norm>
-0.341295

>  <RMSD>
6.023

$$$$
ligand
 OpenBabel11021811483D
libRbt.so/2013.1/901 2013/11/27
 34 36  0  0  0  0  0  0  0  0999 V2000
    7.1152   38.2498   71.5121 N   0  0  0  0  0  0  0  0  0  0  0  0
    7.1125   36.8490   71.9944 C   0  0  1  0  0  0  0  0  0  0  0  0
    8.2120   38.8919   71.0893 C   0  0  0  0  0  0  0  0  0  0  0  0
    9.3401   38.3924   71.0553 O   0  0  0  0  0  0  0  0  0  0  0  0
   11.6884   43.3913   75.0002 N   0  0  0  0  0  0  0  0  0  0  0  0
    6.1511   36.7114   73.1869 C   0  0  0  0  0  0  0  0  0  0  0  0
    4.7880   37.3514   72.8904 C   0  0  0  0  0  0  0  0  0  0  0  0
    3.8496   37.2482   74.1024 C   0  0  0  0  0  0  0  0  0  0  0  0
    2.8821   36.4566   74.0112 O   0  0  0  0  0  0  0  0  0  0  0  0
    4.1221   37.9617   75.0951 O   0  0  0  0  0  0  0  0  0  0  0  0
   10.9926   44.8790   73.3689 N   0  0  0  0  0  0  0  0  0  0  0  0
    7.5718   35.0186   70.5158 O   0  0  0  0  0  0  0  0  0  0  0  0
   11.3215   43.6305   73.7438 C   0  0  0  0  0  0  0  0  0  0  0  0
    5.5497   35.9628   70.4235 O   0  0  0  0  0  0  0  0  0  0  0  0
   11.2825   42.5741   72.8249 N   0  0  0  0  0  0  0  0  0  0  0  0
   10.8934   42.8347   71.5179 C   0  0  0  0  0  0  0  0  0  0  0  0
   10.5292   44.1293   71.1717 C   0  0  0  0  0  0  0  0  0  0  0  0
   10.8415   41.9229   70.6964 O   0  0  0  0  0  0  0  0  0  0  0  0
   10.7958   43.8018   68.8643 C   0  0  0  0  0  0  0  0  0  0  0  0
   10.1991   44.4506   69.8597 N   0  0  0  0  0  0  0  0  0  0  0  0
   10.2108   43.6208   67.7988 O   0  0  0  0  0  0  0  0  0  0  0  0
    9.3588   45.6225   69.5904 C   0  0  2  0  0  0  0  0  0  0  0  0
    9.9274   46.8210   70.3545 C   0  0  0  0  0  0  0  0  0  0  0  0
   10.6143   45.1487   72.1103 C   0  0  0  0  0  0  0  0  0  0  0  0
   10.2894   46.4604   71.7475 N   0  0  0  0  0  0  0  0  0  0  0  0
    7.9128   45.3570   70.0231 C   0  0  0  0  0  0  0  0  0  0  0  0
    7.3794   44.2058   69.2845 N   0  0  0  0  0  0  0  0  0  0  0  0
    7.9621   40.3250   70.5856 C   0  0  0  0  0  0  0  0  0  0  0  0
    7.3602   41.2708   71.4121 C   0  0  0  0  0  0  0  0  0  0  0  0
    7.1853   42.5821   70.9745 C   0  0  0  0  0  0  0  0  0  0  0  0
    7.5694   42.9505   69.6895 C   0  0  0  0  0  0  0  0  0  0  0  0
    8.1624   42.0050   68.8597 C   0  0  0  0  0  0  0  0  0  0  0  0
    8.3703   40.7018   69.3093 C   0  0  0  0  0  0  0  0  0  0  0  0
    6.7128   35.8561   70.8835 C   0  0  0  0  0  0  0  0  0  0  0  0
  1  3  1  0  0  0  0
  2  1  1  6  0  0  0
  2  6  1  0  0  0  0
  2 34  1  0  0  0  0
  3  4  2  0  0  0  0
  3 28  1  0  0  0  0
  5 13  1  0  0  0  0
  6  7  1  0  0  0  0
  7  8  1  0  0  0  0
  8  9  1  0  0  0  0
  8 10  1  0  0  0  0
 11 13  2  0  0  0  0
 11 24  1  0  0  0  0
 12 34  1  0  0  0  0
 13 15  1  0  0  0  0
 14 34  1  0  0  0  0
 15 16  1  0  0  0  0
 16 17  1  0  0  0  0
 16 18  2  0  0  0  0
 17 20  1  0  0  0  0
 17 24  2  0  0  0  0
 19 21  1  0  0  0  0
 19 20  1  0  0  0  0
 20 22  1  0  0  0  0
 22 23  1  0  0  0  0
 22 26  1  1  0  0  0
 23 25  1  0  0  0  0
 24 25  1  0  0  0  0
 26 27  1  0  0  0  0
 27 31  1  0  0  0  0
 28 29  2  0  0  0  0
 28 33  1  0  0  0  0
 29 30  1  0  0  0  0
 30 31  2  0  0  0  0
 31 32  1  0  0  0  0
 32 33  2  0  0  0  0
M  END
>  <CHROM.1>
141.45371464,48.47558388,116.05644932,-178.20942043,-109.06863729,149.71858240
-59.78723104,85.30320604,55.33542833,56.91888611,8.32609254,41.19522124,71.35133899
3.06132427,1.04613802,1.46760729

>  <Name>
ligand

>  <RI>
0

>  <Rbt.Current_Directory>
/home/itssahil/PROJECTS/Mol_Feturizer/New_Systems/rnas/3SUH

>  <Rbt.Executable>
rbdock ($Id: //depot/dev/client3/rdock/2013.1/src/exe/rbdock.cxx#4 $)

>  <Rbt.Library>
libRbt.so (2013.1, Build901 2013/11/27)

>  <Rbt.Parameter_File>
/export/apps/rDock/src/rDock_2013.1_src/data/scripts/dock_solv.prm

>  <Rbt.Receptor>
prm/pocket_docking_7.prm

>  <SCORE>
-14.6934

>  <SCORE.INTER>
-9.78059

>  <SCORE.INTER.CONST>
1

>  <SCORE.INTER.POLAR>
0

>  <SCORE.INTER.ROT>
10

>  <SCORE.INTER.SOLV>
11.5809

>  <SCORE.INTER.VDW>
-20.6474

>  <SCORE.INTER.norm>
-0.287664

>  <SCORE.INTRA>
-4.91977

>  <SCORE.INTRA.DIHEDRAL>
-4.30615

>  <SCORE.INTRA.DIHEDRAL.0>
12.2703

>  <SCORE.INTRA.POLAR>
0

>  <SCORE.INTRA.POLAR.0>
0

>  <SCORE.INTRA.REPUL>
0

>  <SCORE.INTRA.REPUL.0>
0

>  <SCORE.INTRA.SOLV>
0.901692

>  <SCORE.INTRA.SOLV.lig_0>
-64.3214

>  <SCORE.INTRA.VDW>
-3.21754

>  <SCORE.INTRA.VDW.0>
-1.67301

>  <SCORE.INTRA.norm>
-0.144699

>  <SCORE.RESTR>
0.00699405

>  <SCORE.RESTR.CAVITY>
0.00699405

>  <SCORE.RESTR.norm>
0.000205707

>  <SCORE.SYSTEM>
0

>  <SCORE.SYSTEM.CONST>
0

>  <SCORE.SYSTEM.DIHEDRAL>
0

>  <SCORE.SYSTEM.SOLV>
0

>  <SCORE.SYSTEM.norm>
0

>  <SCORE.heavy>
34

>  <SCORE.norm>
-0.432158

>  <RMSD>
6.197

$$$$
ligand
 OpenBabel11021811483D
libRbt.so/2013.1/901 2013/11/27
 34 36  0  0  0  0  0  0  0  0999 V2000
    7.0991   37.3750   70.9792 N   0  0  0  0  0  0  0  0  0  0  0  0
    7.2861   35.9064   70.9240 C   0  0  1  0  0  0  0  0  0  0  0  0
    8.0836   38.2438   71.2437 C   0  0  0  0  0  0  0  0  0  0  0  0
    9.2527   37.9209   71.4720 O   0  0  0  0  0  0  0  0  0  0  0  0
   12.6255   49.0035   71.5189 N   0  0  0  0  0  0  0  0  0  0  0  0
    7.3281   35.3334   72.3505 C   0  0  0  0  0  0  0  0  0  0  0  0
    6.0522   35.6723   73.1332 C   0  0  0  0  0  0  0  0  0  0  0  0
    6.0749   35.0419   74.5340 C   0  0  0  0  0  0  0  0  0  0  0  0
    6.5514   35.7329   75.4648 O   0  0  0  0  0  0  0  0  0  0  0  0
    5.6125   33.8830   74.6438 O   0  0  0  0  0  0  0  0  0  0  0  0
   10.6127   48.2293   70.6777 N   0  0  0  0  0  0  0  0  0  0  0  0
    6.4863   34.2011   69.4408 O   0  0  0  0  0  0  0  0  0  0  0  0
   11.8845   48.0027   71.0501 C   0  0  0  0  0  0  0  0  0  0  0  0
    5.0243   35.7157   70.1872 O   0  0  0  0  0  0  0  0  0  0  0  0
   12.4414   46.7215   70.9507 N   0  0  0  0  0  0  0  0  0  0  0  0
   11.6573   45.6840   70.4647 C   0  0  0  0  0  0  0  0  0  0  0  0
   10.3379   45.9452   70.1191 C   0  0  0  0  0  0  0  0  0  0  0  0
   12.1202   44.5494   70.3778 O   0  0  0  0  0  0  0  0  0  0  0  0
   10.0947   44.0257   68.7929 C   0  0  0  0  0  0  0  0  0  0  0  0
    9.5363   44.9538   69.5641 N   0  0  0  0  0  0  0  0  0  0  0  0
   10.1211   42.8505   69.1513 O   0  0  0  0  0  0  0  0  0  0  0  0
    8.0769   45.0587   69.6698 C   0  0  2  0  0  0  0  0  0  0  0  0
    7.6518   46.4615   69.2284 C   0  0  0  0  0  0  0  0  0  0  0  0
    9.8407   47.2385   70.2061 C   0  0  0  0  0  0  0  0  0  0  0  0
    8.5244   47.5080   69.8154 N   0  0  0  0  0  0  0  0  0  0  0  0
    7.6228   44.7968   71.1098 C   0  0  0  0  0  0  0  0  0  0  0  0
    6.6207   43.7241   71.1247 N   0  0  0  0  0  0  0  0  0  0  0  0
    7.6629   39.7238   71.1960 C   0  0  0  0  0  0  0  0  0  0  0  0
    7.0180   40.3116   72.2816 C   0  0  0  0  0  0  0  0  0  0  0  0
    6.6877   41.6651   72.2589 C   0  0  0  0  0  0  0  0  0  0  0  0
    6.9583   42.4350   71.1326 C   0  0  0  0  0  0  0  0  0  0  0  0
    7.5943   41.8476   70.0442 C   0  0  0  0  0  0  0  0  0  0  0  0
    7.9572   40.5019   70.0799 C   0  0  0  0  0  0  0  0  0  0  0  0
    6.1717   35.2119   70.1144 C   0  0  0  0  0  0  0  0  0  0  0  0
  1  3  1  0  0  0  0
  2  1  1  1  0  0  0
  2  6  1  0  0  0  0
  2 34  1  0  0  0  0
  3  4  2  0  0  0  0
  3 28  1  0  0  0  0
  5 13  1  0  0  0  0
  6  7  1  0  0  0  0
  7  8  1  0  0  0  0
  8  9  1  0  0  0  0
  8 10  1  0  0  0  0
 11 13  2  0  0  0  0
 11 24  1  0  0  0  0
 12 34  1  0  0  0  0
 13 15  1  0  0  0  0
 14 34  1  0  0  0  0
 15 16  1  0  0  0  0
 16 17  1  0  0  0  0
 16 18  2  0  0  0  0
 17 20  1  0  0  0  0
 17 24  2  0  0  0  0
 19 21  1  0  0  0  0
 19 20  1  0  0  0  0
 20 22  1  0  0  0  0
 22 23  1  0  0  0  0
 22 26  1  1  0  0  0
 23 25  1  0  0  0  0
 24 25  1  0  0  0  0
 26 27  1  0  0  0  0
 27 31  1  0  0  0  0
 28 29  2  0  0  0  0
 28 33  1  0  0  0  0
 29 30  1  0  0  0  0
 30 31  2  0  0  0  0
 31 32  1  0  0  0  0
 32 33  2  0  0  0  0
M  END
>  <CHROM.1>
78.92737358,57.71030769,145.44353169,177.39426662,91.32130721,113.98373034
-125.30213728,83.94626003,112.62198467,80.84693526,8.36459044,41.39802974
71.05110794,2.25853841,1.01581568,2.35950992

>  <Name>
ligand

>  <RI>
0

>  <Rbt.Current_Directory>
/home/itssahil/PROJECTS/Mol_Feturizer/New_Systems/rnas/3SUH

>  <Rbt.Executable>
rbdock ($Id: //depot/dev/client3/rdock/2013.1/src/exe/rbdock.cxx#4 $)

>  <Rbt.Library>
libRbt.so (2013.1, Build901 2013/11/27)

>  <Rbt.Parameter_File>
/export/apps/rDock/src/rDock_2013.1_src/data/scripts/dock_solv.prm

>  <Rbt.Receptor>
prm/pocket_docking_8.prm

>  <SCORE>
-14.2949

>  <SCORE.INTER>
-12.0865

>  <SCORE.INTER.CONST>
1

>  <SCORE.INTER.POLAR>
0

>  <SCORE.INTER.ROT>
10

>  <SCORE.INTER.SOLV>
14.3287

>  <SCORE.INTER.VDW>
-23.1005

>  <SCORE.INTER.norm>
-0.355484

>  <SCORE.INTRA>
-2.20848

>  <SCORE.INTRA.DIHEDRAL>
0.279269

>  <SCORE.INTRA.DIHEDRAL.0>
12.2703

>  <SCORE.INTRA.POLAR>
0

>  <SCORE.INTRA.POLAR.0>
0

>  <SCORE.INTRA.REPUL>
0

>  <SCORE.INTRA.REPUL.0>
0

>  <SCORE.INTRA.SOLV>
-0.743232

>  <SCORE.INTRA.SOLV.lig_0>
-64.3214

>  <SCORE.INTRA.VDW>
-1.97649

>  <SCORE.INTRA.VDW.0>
-1.67301

>  <SCORE.INTRA.norm>
-0.0649552

>  <SCORE.RESTR>
0

>  <SCORE.RESTR.CAVITY>
0

>  <SCORE.RESTR.norm>
0

>  <SCORE.SYSTEM>
0

>  <SCORE.SYSTEM.CONST>
0

>  <SCORE.SYSTEM.DIHEDRAL>
0

>  <SCORE.SYSTEM.SOLV>
0

>  <SCORE.SYSTEM.norm>
0

>  <SCORE.heavy>
34

>  <SCORE.norm>
-0.420439

>  <RMSD>
6.212

$$$$
ligand
 OpenBabel11021811483D
libRbt.so/2013.1/901 2013/11/27
 34 36  0  0  0  0  0  0  0  0999 V2000
    6.3408   38.7911   71.8943 N   0  0  0  0  0  0  0  0  0  0  0  0
    5.9014   37.5228   72.5211 C   0  0  1  0  0  0  0  0  0  0  0  0
    7.5394   38.9655   71.3225 C   0  0  0  0  0  0  0  0  0  0  0  0
    8.4106   38.0938   71.2546 O   0  0  0  0  0  0  0  0  0  0  0  0
    4.5062   45.1363   75.1849 N   0  0  0  0  0  0  0  0  0  0  0  0
    5.1388   37.8226   73.8225 C   0  0  0  0  0  0  0  0  0  0  0  0
    6.0531   38.4560   74.8800 C   0  0  0  0  0  0  0  0  0  0  0  0
    6.5189   39.8544   74.4469 C   0  0  0  0  0  0  0  0  0  0  0  0
    5.6810   40.7839   74.5176 O   0  0  0  0  0  0  0  0  0  0  0  0
    7.7042   39.9638   74.0570 O   0  0  0  0  0  0  0  0  0  0  0  0
    5.6466   46.1595   73.4497 N   0  0  0  0  0  0  0  0  0  0  0  0
    3.8202   37.0486   71.4295 O   0  0  0  0  0  0  0  0  0  0  0  0
    5.5170   45.1427   74.3196 C   0  0  0  0  0  0  0  0  0  0  0  0
    5.5532   35.7003   71.0202 O   0  0  0  0  0  0  0  0  0  0  0  0
    6.4359   44.0858   74.3264 N   0  0  0  0  0  0  0  0  0  0  0  0
    7.4837   44.1007   73.4157 C   0  0  0  0  0  0  0  0  0  0  0  0
    7.5703   45.1494   72.5096 C   0  0  0  0  0  0  0  0  0  0  0  0
    8.2965   43.1798   73.3955 O   0  0  0  0  0  0  0  0  0  0  0  0
    9.8318   44.7890   72.0019 C   0  0  0  0  0  0  0  0  0  0  0  0
    8.6397   45.2419   71.6257 N   0  0  0  0  0  0  0  0  0  0  0  0
   10.4388   45.3244   72.9267 O   0  0  0  0  0  0  0  0  0  0  0  0
    8.4893   46.0092   70.3845 C   0  0  2  0  0  0  0  0  0  0  0  0
    7.8976   47.3799   70.7227 C   0  0  0  0  0  0  0  0  0  0  0  0
    6.6529   46.1901   72.5628 C   0  0  0  0  0  0  0  0  0  0  0  0
    6.7679   47.2679   71.6780 N   0  0  0  0  0  0  0  0  0  0  0  0
    7.5770   45.2671   69.4018 C   0  0  0  0  0  0  0  0  0  0  0  0
    8.2516   44.0555   68.9198 N   0  0  0  0  0  0  0  0  0  0  0  0
    7.7529   40.3529   70.6905 C   0  0  0  0  0  0  0  0  0  0  0  0
    8.5551   40.5006   69.5616 C   0  0  0  0  0  0  0  0  0  0  0  0
    8.7025   41.7478   68.9580 C   0  0  0  0  0  0  0  0  0  0  0  0
    8.0857   42.8689   69.5031 C   0  0  0  0  0  0  0  0  0  0  0  0
    7.2914   42.7247   70.6356 C   0  0  0  0  0  0  0  0  0  0  0  0
    7.1145   41.4711   71.2195 C   0  0  0  0  0  0  0  0  0  0  0  0
    5.0132   36.6881   71.5754 C   0  0  0  0  0  0  0  0  0  0  0  0
  1  3  1  0  0  0  0
  2  1  1  6  0  0  0
  2  6  1  0  0  0  0
  2 34  1  0  0  0  0
  3  4  2  0  0  0  0
  3 28  1  0  0  0  0
  5 13  1  0  0  0  0
  6  7  1  0  0  0  0
  7  8  1  0  0  0  0
  8  9  1  0  0  0  0
  8 10  1  0  0  0  0
 11 13  2  0  0  0  0
 11 24  1  0  0  0  0
 12 34  1  0  0  0  0
 13 15  1  0  0  0  0
 14 34  1  0  0  0  0
 15 16  1  0  0  0  0
 16 17  1  0  0  0  0
 16 18  2  0  0  0  0
 17 20  1  0  0  0  0
 17 24  2  0  0  0  0
 19 21  1  0  0  0  0
 19 20  1  0  0  0  0
 20 22  1  0  0  0  0
 22 23  1  0  0  0  0
 22 26  1  6  0  0  0
 23 25  1  0  0  0  0
 24 25  1  0  0  0  0
 26 27  1  0  0  0  0
 27 31  1  0  0  0  0
 28 29  2  0  0  0  0
 28 33  1  0  0  0  0
 29 30  1  0  0  0  0
 30 31  2  0  0  0  0
 31 32  1  0  0  0  0
 32 33  2  0  0  0  0
M  END
>  <CHROM.1>
139.16350954,-65.48770087,-76.87123065,66.56651719,74.70859048,-65.11554206
-68.80727785,93.23655144,176.89377150,-147.94274984,7.08737651,42.11907387
72.10968606,-1.99679442,1.02144557,0.32793563

>  <Name>
ligand

>  <RI>
0

>  <Rbt.Current_Directory>
/home/itssahil/PROJECTS/Mol_Feturizer/New_Systems/rnas/3SUH

>  <Rbt.Executable>
rbdock ($Id: //depot/dev/client3/rdock/2013.1/src/exe/rbdock.cxx#4 $)

>  <Rbt.Library>
libRbt.so (2013.1, Build901 2013/11/27)

>  <Rbt.Parameter_File>
/export/apps/rDock/src/rDock_2013.1_src/data/scripts/dock_solv.prm

>  <Rbt.Receptor>
prm/pocket_docking_8.prm

>  <SCORE>
-12.0876

>  <SCORE.INTER>
-6.78832

>  <SCORE.INTER.CONST>
1

>  <SCORE.INTER.POLAR>
0

>  <SCORE.INTER.ROT>
10

>  <SCORE.INTER.SOLV>
10.1435

>  <SCORE.INTER.VDW>
-18.1734

>  <SCORE.INTER.norm>
-0.199656

>  <SCORE.INTRA>
-5.29925

>  <SCORE.INTRA.DIHEDRAL>
-3.70626

>  <SCORE.INTRA.DIHEDRAL.0>
12.2703

>  <SCORE.INTRA.POLAR>
0

>  <SCORE.INTRA.POLAR.0>
0

>  <SCORE.INTRA.REPUL>
0

>  <SCORE.INTRA.REPUL.0>
0

>  <SCORE.INTRA.SOLV>
0.506801

>  <SCORE.INTRA.SOLV.lig_0>
-64.3214

>  <SCORE.INTRA.VDW>
-3.69952

>  <SCORE.INTRA.VDW.0>
-1.67301

>  <SCORE.INTRA.norm>
-0.15586

>  <SCORE.RESTR>
0

>  <SCORE.RESTR.CAVITY>
0

>  <SCORE.RESTR.norm>
0

>  <SCORE.SYSTEM>
0

>  <SCORE.SYSTEM.CONST>
0

>  <SCORE.SYSTEM.DIHEDRAL>
0

>  <SCORE.SYSTEM.SOLV>
0

>  <SCORE.SYSTEM.norm>
0

>  <SCORE.heavy>
34

>  <SCORE.norm>
-0.355517

>  <RMSD>
6.482

$$$$
ligand
 OpenBabel11021811483D
libRbt.so/2013.1/901 2013/11/27
 34 36  0  0  0  0  0  0  0  0999 V2000
    4.3632   47.1170   71.6917 N   0  0  0  0  0  0  0  0  0  0  0  0
    3.2566   47.9052   72.2825 C   0  0  1  0  0  0  0  0  0  0  0  0
    5.3026   47.6340   70.8890 C   0  0  0  0  0  0  0  0  0  0  0  0
    5.3519   48.8199   70.5506 O   0  0  0  0  0  0  0  0  0  0  0  0
   13.8261   45.8879   71.2325 N   0  0  0  0  0  0  0  0  0  0  0  0
    2.2262   46.9582   72.9201 C   0  0  0  0  0  0  0  0  0  0  0  0
    1.4043   46.2185   71.8558 C   0  0  0  0  0  0  0  0  0  0  0  0
    0.4515   45.1988   72.4982 C   0  0  0  0  0  0  0  0  0  0  0  0
    0.9096   44.0555   72.7310 O   0  0  0  0  0  0  0  0  0  0  0  0
   -0.7138   45.5860   72.7448 O   0  0  0  0  0  0  0  0  0  0  0  0
   12.7410   44.9584   69.4113 N   0  0  0  0  0  0  0  0  0  0  0  0
    4.7734   48.5928   74.0071 O   0  0  0  0  0  0  0  0  0  0  0  0
   13.1357   44.8859   70.6944 C   0  0  0  0  0  0  0  0  0  0  0  0
    3.1185   49.9842   73.4462 O   0  0  0  0  0  0  0  0  0  0  0  0
   12.8279   43.7645   71.4751 N   0  0  0  0  0  0  0  0  0  0  0  0
   12.1027   42.7272   70.9044 C   0  0  0  0  0  0  0  0  0  0  0  0
   11.6828   42.8479   69.5863 C   0  0  0  0  0  0  0  0  0  0  0  0
   11.8117   41.7378   71.5719 O   0  0  0  0  0  0  0  0  0  0  0  0
   11.3048   40.5525   69.2857 C   0  0  0  0  0  0  0  0  0  0  0  0
   11.0142   41.8064   68.9525 N   0  0  0  0  0  0  0  0  0  0  0  0
   10.4807   39.8568   69.8750 O   0  0  0  0  0  0  0  0  0  0  0  0
   10.1547   42.0931   67.7987 C   0  0  2  0  0  0  0  0  0  0  0  0
   10.9326   42.9672   66.8117 C   0  0  0  0  0  0  0  0  0  0  0  0
   12.0396   43.9654   68.8438 C   0  0  0  0  0  0  0  0  0  0  0  0
   11.6532   44.0649   67.5026 N   0  0  0  0  0  0  0  0  0  0  0  0
    8.8764   42.8099   68.2465 C   0  0  0  0  0  0  0  0  0  0  0  0
    9.2207   43.9216   69.1414 N   0  0  0  0  0  0  0  0  0  0  0  0
    6.3821   46.6336   70.4379 C   0  0  0  0  0  0  0  0  0  0  0  0
    6.2435   45.2739   70.7062 C   0  0  0  0  0  0  0  0  0  0  0  0
    7.1937   44.3631   70.2488 C   0  0  0  0  0  0  0  0  0  0  0  0
    8.3157   44.8070   69.5571 C   0  0  0  0  0  0  0  0  0  0  0  0
    8.4602   46.1654   69.2959 C   0  0  0  0  0  0  0  0  0  0  0  0
    7.4922   47.0735   69.7223 C   0  0  0  0  0  0  0  0  0  0  0  0
    3.7626   48.9125   73.3357 C   0  0  0  0  0  0  0  0  0  0  0  0
  1  3  1  0  0  0  0
  2  1  1  1  0  0  0
  2  6  1  0  0  0  0
  2 34  1  0  0  0  0
  3  4  2  0  0  0  0
  3 28  1  0  0  0  0
  5 13  1  0  0  0  0
  6  7  1  0  0  0  0
  7  8  1  0  0  0  0
  8  9  1  0  0  0  0
  8 10  1  0  0  0  0
 11 13  2  0  0  0  0
 11 24  1  0  0  0  0
 12 34  1  0  0  0  0
 13 15  1  0  0  0  0
 14 34  1  0  0  0  0
 15 16  1  0  0  0  0
 16 17  1  0  0  0  0
 16 18  2  0  0  0  0
 17 20  1  0  0  0  0
 17 24  2  0  0  0  0
 19 21  1  0  0  0  0
 19 20  1  0  0  0  0
 20 22  1  0  0  0  0
 22 23  1  0  0  0  0
 22 26  1  1  0  0  0
 23 25  1  0  0  0  0
 24 25  1  0  0  0  0
 26 27  1  0  0  0  0
 27 31  1  0  0  0  0
 28 29  2  0  0  0  0
 28 33  1  0  0  0  0
 29 30  1  0  0  0  0
 30 31  2  0  0  0  0
 31 32  1  0  0  0  0
 32 33  2  0  0  0  0
M  END
>  <CHROM.1>
169.23598876,-72.88953008,-31.93883305,175.75193064,-86.53086589,111.90058248
48.29580895,172.14511169,58.03942837,8.78624139,7.62418167,44.99617555,70.64871812
-2.66638045,-0.18191290,-2.84521819

>  <Name>
ligand

>  <RI>
0

>  <Rbt.Current_Directory>
/home/itssahil/PROJECTS/Mol_Feturizer/New_Systems/rnas/3SUH

>  <Rbt.Executable>
rbdock ($Id: //depot/dev/client3/rdock/2013.1/src/exe/rbdock.cxx#4 $)

>  <Rbt.Library>
libRbt.so (2013.1, Build901 2013/11/27)

>  <Rbt.Parameter_File>
/export/apps/rDock/src/rDock_2013.1_src/data/scripts/dock_solv.prm

>  <Rbt.Receptor>
prm/pocket_docking_7.prm

>  <SCORE>
-11.8885

>  <SCORE.INTER>
-8.92337

>  <SCORE.INTER.CONST>
1

>  <SCORE.INTER.POLAR>
0

>  <SCORE.INTER.ROT>
10

>  <SCORE.INTER.SOLV>
19.2121

>  <SCORE.INTER.VDW>
-22.6196

>  <SCORE.INTER.norm>
-0.262452

>  <SCORE.INTRA>
-2.96511

>  <SCORE.INTRA.DIHEDRAL>
-4.36604

>  <SCORE.INTRA.DIHEDRAL.0>
12.2703

>  <SCORE.INTRA.POLAR>
0

>  <SCORE.INTRA.POLAR.0>
0

>  <SCORE.INTRA.REPUL>
0

>  <SCORE.INTRA.REPUL.0>
0

>  <SCORE.INTRA.SOLV>
1.98584

>  <SCORE.INTRA.SOLV.lig_0>
-64.3214

>  <SCORE.INTRA.VDW>
-1.77501

>  <SCORE.INTRA.VDW.0>
-1.67301

>  <SCORE.INTRA.norm>
-0.0872092

>  <SCORE.RESTR>
0

>  <SCORE.RESTR.CAVITY>
0

>  <SCORE.RESTR.norm>
0

>  <SCORE.SYSTEM>
0

>  <SCORE.SYSTEM.CONST>
0

>  <SCORE.SYSTEM.DIHEDRAL>
0

>  <SCORE.SYSTEM.SOLV>
0

>  <SCORE.SYSTEM.norm>
0

>  <SCORE.heavy>
34

>  <SCORE.norm>
-0.349661

>  <RMSD>
6.502

$$$$
ligand
 OpenBabel11021811483D
libRbt.so/2013.1/901 2013/11/27
 34 36  0  0  0  0  0  0  0  0999 V2000
    8.2323   38.2189   71.0256 N   0  0  0  0  0  0  0  0  0  0  0  0
    7.4835   37.1498   71.7265 C   0  0  1  0  0  0  0  0  0  0  0  0
    9.4892   38.5705   71.3264 C   0  0  0  0  0  0  0  0  0  0  0  0
   10.1627   38.0474   72.2186 O   0  0  0  0  0  0  0  0  0  0  0  0
    7.2760   45.7473   72.8561 N   0  0  0  0  0  0  0  0  0  0  0  0
    6.0802   37.6566   72.0997 C   0  0  0  0  0  0  0  0  0  0  0  0
    6.1445   38.7831   73.1399 C   0  0  0  0  0  0  0  0  0  0  0  0
    6.9835   39.9645   72.6294 C   0  0  0  0  0  0  0  0  0  0  0  0
    6.6943   40.4260   71.5004 O   0  0  0  0  0  0  0  0  0  0  0  0
    7.8944   40.3820   73.3808 O   0  0  0  0  0  0  0  0  0  0  0  0
    9.1509   46.0276   71.5278 N   0  0  0  0  0  0  0  0  0  0  0  0
    6.2331   35.5699   70.4273 O   0  0  0  0  0  0  0  0  0  0  0  0
    8.3849   45.2510   72.3136 C   0  0  0  0  0  0  0  0  0  0  0  0
    8.4234   35.2179   70.6874 O   0  0  0  0  0  0  0  0  0  0  0  0
    8.7406   43.9206   72.5692 N   0  0  0  0  0  0  0  0  0  0  0  0
    9.8973   43.4121   71.9937 C   0  0  0  0  0  0  0  0  0  0  0  0
   10.6487   44.2312   71.1614 C   0  0  0  0  0  0  0  0  0  0  0  0
   10.2247   42.2453   72.1948 O   0  0  0  0  0  0  0  0  0  0  0  0
   12.5983   42.9357   71.3127 C   0  0  0  0  0  0  0  0  0  0  0  0
   11.8494   43.7873   70.6186 N   0  0  0  0  0  0  0  0  0  0  0  0
   13.2297   43.3182   72.2953 O   0  0  0  0  0  0  0  0  0  0  0  0
   12.3652   44.4100   69.3945 C   0  0  2  0  0  0  0  0  0  0  0  0
   12.3346   45.9308   69.5663 C   0  0  0  0  0  0  0  0  0  0  0  0
   10.2717   45.5527   70.9636 C   0  0  0  0  0  0  0  0  0  0  0  0
   11.0544   46.3890   70.1601 N   0  0  0  0  0  0  0  0  0  0  0  0
   11.5196   43.9970   68.1850 C   0  0  0  0  0  0  0  0  0  0  0  0
   11.6798   42.5588   67.9378 N   0  0  0  0  0  0  0  0  0  0  0  0
   10.0794   39.6724   70.4279 C   0  0  0  0  0  0  0  0  0  0  0  0
   11.4586   39.8218   70.3045 C   0  0  0  0  0  0  0  0  0  0  0  0
   11.9912   40.7833   69.4480 C   0  0  0  0  0  0  0  0  0  0  0  0
   11.1506   41.6356   68.7400 C   0  0  0  0  0  0  0  0  0  0  0  0
    9.7731   41.4937   68.8688 C   0  0  0  0  0  0  0  0  0  0  0  0
    9.2391   40.5086   69.6983 C   0  0  0  0  0  0  0  0  0  0  0  0
    7.3672   35.8705   70.8724 C   0  0  0  0  0  0  0  0  0  0  0  0
  1  3  1  0  0  0  0
  2  1  1  6  0  0  0
  2  6  1  0  0  0  0
  2 34  1  0  0  0  0
  3  4  2  0  0  0  0
  3 28  1  0  0  0  0
  5 13  1  0  0  0  0
  6  7  1  0  0  0  0
  7  8  1  0  0  0  0
  8  9  1  0  0  0  0
  8 10  1  0  0  0  0
 11 13  2  0  0  0  0
 11 24  1  0  0  0  0
 12 34  1  0  0  0  0
 13 15  1  0  0  0  0
 14 34  1  0  0  0  0
 15 16  1  0  0  0  0
 16 17  1  0  0  0  0
 16 18  2  0  0  0  0
 17 20  1  0  0  0  0
 17 24  2  0  0  0  0
 19 21  1  0  0  0  0
 19 20  1  0  0  0  0
 20 22  1  0  0  0  0
 22 23  1  0  0  0  0
 22 26  1  6  0  0  0
 23 25  1  0  0  0  0
 24 25  1  0  0  0  0
 26 27  1  0  0  0  0
 27 31  1  0  0  0  0
 28 29  2  0  0  0  0
 28 33  1  0  0  0  0
 29 30  1  0  0  0  0
 30 31  2  0  0  0  0
 31 32  1  0  0  0  0
 32 33  2  0  0  0  0
M  END
>  <CHROM.1>
132.39763144,-66.08564224,-110.53989406,58.03261012,51.60045038,-73.40581653
-66.28102236,71.77019756,-115.61743610,-157.98703996,9.56269724,41.40319859
71.03182953,-2.11281604,0.59365084,0.21193734

>  <Name>
ligand

>  <RI>
0

>  <Rbt.Current_Directory>
/home/itssahil/PROJECTS/Mol_Feturizer/New_Systems/rnas/3SUH

>  <Rbt.Executable>
rbdock ($Id: //depot/dev/client3/rdock/2013.1/src/exe/rbdock.cxx#4 $)

>  <Rbt.Library>
libRbt.so (2013.1, Build901 2013/11/27)

>  <Rbt.Parameter_File>
/export/apps/rDock/src/rDock_2013.1_src/data/scripts/dock_solv.prm

>  <Rbt.Receptor>
prm/pocket_docking_7.prm

>  <SCORE>
-15.6585

>  <SCORE.INTER>
-10.6647

>  <SCORE.INTER.CONST>
1

>  <SCORE.INTER.POLAR>
0

>  <SCORE.INTER.ROT>
10

>  <SCORE.INTER.SOLV>
11.4365

>  <SCORE.INTER.VDW>
-21.1886

>  <SCORE.INTER.norm>
-0.313668

>  <SCORE.INTRA>
-4.99375

>  <SCORE.INTRA.DIHEDRAL>
-4.52254

>  <SCORE.INTRA.DIHEDRAL.0>
12.2703

>  <SCORE.INTRA.POLAR>
0

>  <SCORE.INTRA.POLAR.0>
0

>  <SCORE.INTRA.REPUL>
0

>  <SCORE.INTRA.REPUL.0>
0

>  <SCORE.INTRA.SOLV>
1.08646

>  <SCORE.INTRA.SOLV.lig_0>
-64.3214

>  <SCORE.INTRA.VDW>
-3.27571

>  <SCORE.INTRA.VDW.0>
-1.67301

>  <SCORE.INTRA.norm>
-0.146875

>  <SCORE.RESTR>
0

>  <SCORE.RESTR.CAVITY>
0

>  <SCORE.RESTR.norm>
0

>  <SCORE.SYSTEM>
0

>  <SCORE.SYSTEM.CONST>
0

>  <SCORE.SYSTEM.DIHEDRAL>
0

>  <SCORE.SYSTEM.SOLV>
0

>  <SCORE.SYSTEM.norm>
0

>  <SCORE.heavy>
34

>  <SCORE.norm>
-0.460543

>  <RMSD>
6.580

$$$$
ligand
 OpenBabel11021811483D
libRbt.so/2013.1/901 2013/11/27
 34 36  0  0  0  0  0  0  0  0999 V2000
    6.9213   37.8885   71.5966 N   0  0  0  0  0  0  0  0  0  0  0  0
    6.8210   36.4916   72.0798 C   0  0  1  0  0  0  0  0  0  0  0  0
    8.0796   38.5020   71.3212 C   0  0  0  0  0  0  0  0  0  0  0  0
    9.1899   37.9763   71.4398 O   0  0  0  0  0  0  0  0  0  0  0  0
   12.1592   42.7400   74.4787 N   0  0  0  0  0  0  0  0  0  0  0  0
    5.3680   36.1819   72.4776 C   0  0  0  0  0  0  0  0  0  0  0  0
    4.4198   36.2802   71.2749 C   0  0  0  0  0  0  0  0  0  0  0  0
    2.9576   36.0794   71.7015 C   0  0  0  0  0  0  0  0  0  0  0  0
    2.6425   34.9528   72.1515 O   0  0  0  0  0  0  0  0  0  0  0  0
    2.1873   37.0583   71.5706 O   0  0  0  0  0  0  0  0  0  0  0  0
   11.2934   44.3258   73.0317 N   0  0  0  0  0  0  0  0  0  0  0  0
    7.9610   35.9201   70.0496 O   0  0  0  0  0  0  0  0  0  0  0  0
   11.6891   43.0646   73.2770 C   0  0  0  0  0  0  0  0  0  0  0  0
    6.9879   34.2765   71.2075 O   0  0  0  0  0  0  0  0  0  0  0  0
   11.6122   42.0841   72.2798 N   0  0  0  0  0  0  0  0  0  0  0  0
   11.1154   42.4333   71.0313 C   0  0  0  0  0  0  0  0  0  0  0  0
   10.6853   43.7368   70.8208 C   0  0  0  0  0  0  0  0  0  0  0  0
   11.0287   41.5886   70.1436 O   0  0  0  0  0  0  0  0  0  0  0  0
   10.7829   43.6045   68.4809 C   0  0  0  0  0  0  0  0  0  0  0  0
   10.2450   44.1491   69.5680 N   0  0  0  0  0  0  0  0  0  0  0  0
   11.9814   43.7384   68.2442 O   0  0  0  0  0  0  0  0  0  0  0  0
    9.3502   45.3065   69.4594 C   0  0  2  0  0  0  0  0  0  0  0  0
    9.9384   46.4607   70.2750 C   0  0  0  0  0  0  0  0  0  0  0  0
   10.8108   44.6807   71.8312 C   0  0  0  0  0  0  0  0  0  0  0  0
   10.4180   46.0041   71.6028 N   0  0  0  0  0  0  0  0  0  0  0  0
    7.9509   44.9535   69.9752 C   0  0  0  0  0  0  0  0  0  0  0  0
    7.4551   43.7589   69.2807 N   0  0  0  0  0  0  0  0  0  0  0  0
    7.9333   39.9368   70.7830 C   0  0  0  0  0  0  0  0  0  0  0  0
    8.4189   40.2725   69.5215 C   0  0  0  0  0  0  0  0  0  0  0  0
    8.2363   41.5570   69.0131 C   0  0  0  0  0  0  0  0  0  0  0  0
    7.6062   42.5321   69.7789 C   0  0  0  0  0  0  0  0  0  0  0  0
    7.1286   42.2011   71.0424 C   0  0  0  0  0  0  0  0  0  0  0  0
    7.2792   40.9066   71.5376 C   0  0  0  0  0  0  0  0  0  0  0  0
    7.3001   35.4778   71.0203 C   0  0  0  0  0  0  0  0  0  0  0  0
  1  3  1  0  0  0  0
  2  1  1  6  0  0  0
  2  6  1  0  0  0  0
  2 34  1  0  0  0  0
  3  4  2  0  0  0  0
  3 28  1  0  0  0  0
  5 13  1  0  0  0  0
  6  7  1  0  0  0  0
  7  8  1  0  0  0  0
  8  9  1  0  0  0  0
  8 10  1  0  0  0  0
 11 13  2  0  0  0  0
 11 24  1  0  0  0  0
 12 34  1  0  0  0  0
 13 15  1  0  0  0  0
 14 34  1  0  0  0  0
 15 16  1  0  0  0  0
 16 17  1  0  0  0  0
 16 18  2  0  0  0  0
 17 20  1  0  0  0  0
 17 24  2  0  0  0  0
 19 21  1  0  0  0  0
 19 20  1  0  0  0  0
 20 22  1  0  0  0  0
 22 23  1  0  0  0  0
 22 26  1  1  0  0  0
 23 25  1  0  0  0  0
 24 25  1  0  0  0  0
 26 27  1  0  0  0  0
 27 31  1  0  0  0  0
 28 29  2  0  0  0  0
 28 33  1  0  0  0  0
 29 30  1  0  0  0  0
 30 31  2  0  0  0  0
 31 32  1  0  0  0  0
 32 33  2  0  0  0  0
M  END
>  <CHROM.1>
172.13250594,62.89579996,14.97070034,-175.49371106,-65.12703215,-62.27603112
-53.96526740,93.93372810,-124.36680917,-119.57103600,8.38235073,40.70650689
70.97305321,-2.17977389,-0.27933410,-0.28742442

>  <Name>
ligand

>  <RI>
0

>  <Rbt.Current_Directory>
/home/itssahil/PROJECTS/Mol_Feturizer/New_Systems/rnas/3SUH

>  <Rbt.Executable>
rbdock ($Id: //depot/dev/client3/rdock/2013.1/src/exe/rbdock.cxx#4 $)

>  <Rbt.Library>
libRbt.so (2013.1, Build901 2013/11/27)

>  <Rbt.Parameter_File>
/export/apps/rDock/src/rDock_2013.1_src/data/scripts/dock_solv.prm

>  <Rbt.Receptor>
prm/pocket_docking_8.prm

>  <SCORE>
-16.7487

>  <SCORE.INTER>
-11.3783

>  <SCORE.INTER.CONST>
1

>  <SCORE.INTER.POLAR>
0

>  <SCORE.INTER.ROT>
10

>  <SCORE.INTER.SOLV>
11.6373

>  <SCORE.INTER.VDW>
-21.7313

>  <SCORE.INTER.norm>
-0.334657

>  <SCORE.INTRA>
-5.37036

>  <SCORE.INTRA.DIHEDRAL>
-4.93278

>  <SCORE.INTRA.DIHEDRAL.0>
12.2703

>  <SCORE.INTRA.POLAR>
0

>  <SCORE.INTRA.POLAR.0>
0

>  <SCORE.INTRA.REPUL>
0

>  <SCORE.INTRA.REPUL.0>
0

>  <SCORE.INTRA.SOLV>
0.286598

>  <SCORE.INTRA.SOLV.lig_0>
-64.3214

>  <SCORE.INTRA.VDW>
-3.04726

>  <SCORE.INTRA.VDW.0>
-1.67301

>  <SCORE.INTRA.norm>
-0.157952

>  <SCORE.RESTR>
0

>  <SCORE.RESTR.CAVITY>
0

>  <SCORE.RESTR.norm>
0

>  <SCORE.SYSTEM>
0

>  <SCORE.SYSTEM.CONST>
0

>  <SCORE.SYSTEM.DIHEDRAL>
0

>  <SCORE.SYSTEM.SOLV>
0

>  <SCORE.SYSTEM.norm>
0

>  <SCORE.heavy>
34

>  <SCORE.norm>
-0.492609

>  <RMSD>
6.624

$$$$
ligand
 OpenBabel11021811483D
libRbt.so/2013.1/901 2013/11/27
 34 36  0  0  0  0  0  0  0  0999 V2000
    9.0469   38.4953   72.3215 N   0  0  0  0  0  0  0  0  0  0  0  0
    9.4729   37.1801   72.8538 C   0  0  1  0  0  0  0  0  0  0  0  0
    7.9681   38.6739   71.5480 C   0  0  0  0  0  0  0  0  0  0  0  0
    7.2108   37.7670   71.1911 O   0  0  0  0  0  0  0  0  0  0  0  0
    5.1521   44.0105   75.2720 N   0  0  0  0  0  0  0  0  0  0  0  0
    8.3117   36.5301   73.6248 C   0  0  0  0  0  0  0  0  0  0  0  0
    7.9140   37.3605   74.8527 C   0  0  0  0  0  0  0  0  0  0  0  0
    6.7159   36.7348   75.5829 C   0  0  0  0  0  0  0  0  0  0  0  0
    5.5761   36.9684   75.1168 O   0  0  0  0  0  0  0  0  0  0  0  0
    6.9665   36.0341   76.5904 O   0  0  0  0  0  0  0  0  0  0  0  0
    5.4937   45.1330   73.2766 N   0  0  0  0  0  0  0  0  0  0  0  0
    9.1058   35.8521   70.8918 O   0  0  0  0  0  0  0  0  0  0  0  0
    5.9836   44.4873   74.3491 C   0  0  0  0  0  0  0  0  0  0  0  0
   11.1652   35.9057   71.7549 O   0  0  0  0  0  0  0  0  0  0  0  0
    7.3637   44.3092   74.5080 N   0  0  0  0  0  0  0  0  0  0  0  0
    8.2215   44.8066   73.5362 C   0  0  0  0  0  0  0  0  0  0  0  0
    7.6812   45.4403   72.4250 C   0  0  0  0  0  0  0  0  0  0  0  0
    9.4353   44.6539   73.6482 O   0  0  0  0  0  0  0  0  0  0  0  0
    9.6699   46.5332   71.8311 C   0  0  0  0  0  0  0  0  0  0  0  0
    8.5030   46.0141   71.4613 N   0  0  0  0  0  0  0  0  0  0  0  0
    9.7239   47.6575   72.3243 O   0  0  0  0  0  0  0  0  0  0  0  0
    7.9919   46.2177   70.1014 C   0  0  2  0  0  0  0  0  0  0  0  0
    6.6293   46.9101   70.1870 C   0  0  0  0  0  0  0  0  0  0  0  0
    6.3080   45.6200   72.3280 C   0  0  0  0  0  0  0  0  0  0  0  0
    5.7687   46.2979   71.2291 N   0  0  0  0  0  0  0  0  0  0  0  0
    7.8589   44.8766   69.3716 C   0  0  0  0  0  0  0  0  0  0  0  0
    6.8693   44.0367   70.0576 N   0  0  0  0  0  0  0  0  0  0  0  0
    7.6939   40.1376   71.1577 C   0  0  0  0  0  0  0  0  0  0  0  0
    8.0426   40.6106   69.8950 C   0  0  0  0  0  0  0  0  0  0  0  0
    7.7435   41.9199   69.5236 C   0  0  0  0  0  0  0  0  0  0  0  0
    7.1330   42.7837   70.4268 C   0  0  0  0  0  0  0  0  0  0  0  0
    6.7922   42.3156   71.6913 C   0  0  0  0  0  0  0  0  0  0  0  0
    7.0589   40.9954   72.0513 C   0  0  0  0  0  0  0  0  0  0  0  0
    9.9532   36.2321   71.7356 C   0  0  0  0  0  0  0  0  0  0  0  0
  1  3  1  0  0  0  0
  2  1  1  6  0  0  0
  2  6  1  0  0  0  0
  2 34  1  0  0  0  0
  3  4  2  0  0  0  0
  3 28  1  0  0  0  0
  5 13  1  0  0  0  0
  6  7  1  0  0  0  0
  7  8  1  0  0  0  0
  8  9  1  0  0  0  0
  8 10  1  0  0  0  0
 11 13  2  0  0  0  0
 11 24  1  0  0  0  0
 12 34  1  0  0  0  0
 13 15  1  0  0  0  0
 14 34  1  0  0  0  0
 15 16  1  0  0  0  0
 16 17  1  0  0  0  0
 16 18  2  0  0  0  0
 17 20  1  0  0  0  0
 17 24  2  0  0  0  0
 19 21  1  0  0  0  0
 19 20  1  0  0  0  0
 20 22  1  0  0  0  0
 22 23  1  0  0  0  0
 22 26  1  1  0  0  0
 23 25  1  0  0  0  0
 24 25  1  0  0  0  0
 26 27  1  0  0  0  0
 27 31  1  0  0  0  0
 28 29  2  0  0  0  0
 28 33  1  0  0  0  0
 29 30  1  0  0  0  0
 30 31  2  0  0  0  0
 31 32  1  0  0  0  0
 32 33  2  0  0  0  0
M  END
>  <CHROM.1>
-54.75213214,-63.39734460,-65.51937140,177.63094857,-81.23651553,-80.68835241
63.35129764,-128.34851766,-46.59981706,101.45250902,7.75251372,41.68396562
72.35819531,-1.40376814,1.07858548,-0.30379039

>  <Name>
ligand

>  <RI>
0

>  <Rbt.Current_Directory>
/home/itssahil/PROJECTS/Mol_Feturizer/New_Systems/rnas/3SUH

>  <Rbt.Executable>
rbdock ($Id: //depot/dev/client3/rdock/2013.1/src/exe/rbdock.cxx#4 $)

>  <Rbt.Library>
libRbt.so (2013.1, Build901 2013/11/27)

>  <Rbt.Parameter_File>
/export/apps/rDock/src/rDock_2013.1_src/data/scripts/dock_solv.prm

>  <Rbt.Receptor>
prm/pocket_docking_7.prm

>  <SCORE>
-11.4011

>  <SCORE.INTER>
-7.78667

>  <SCORE.INTER.CONST>
1

>  <SCORE.INTER.POLAR>
0

>  <SCORE.INTER.ROT>
10

>  <SCORE.INTER.SOLV>
9.70329

>  <SCORE.INTER.VDW>
-18.6922

>  <SCORE.INTER.norm>
-0.22902

>  <SCORE.INTRA>
-3.61447

>  <SCORE.INTRA.DIHEDRAL>
-4.79345

>  <SCORE.INTRA.DIHEDRAL.0>
12.2703

>  <SCORE.INTRA.POLAR>
0

>  <SCORE.INTRA.POLAR.0>
0

>  <SCORE.INTRA.REPUL>
0

>  <SCORE.INTRA.REPUL.0>
0

>  <SCORE.INTRA.SOLV>
2.4157

>  <SCORE.INTRA.SOLV.lig_0>
-64.3214

>  <SCORE.INTRA.VDW>
-2.42559

>  <SCORE.INTRA.VDW.0>
-1.67301

>  <SCORE.INTRA.norm>
-0.106308

>  <SCORE.RESTR>
0

>  <SCORE.RESTR.CAVITY>
0

>  <SCORE.RESTR.norm>
0

>  <SCORE.SYSTEM>
0

>  <SCORE.SYSTEM.CONST>
0

>  <SCORE.SYSTEM.DIHEDRAL>
0

>  <SCORE.SYSTEM.SOLV>
0

>  <SCORE.SYSTEM.norm>
0

>  <SCORE.heavy>
34

>  <SCORE.norm>
-0.335328

>  <RMSD>
6.821

$$$$
ligand
 OpenBabel11021811483D
libRbt.so/2013.1/901 2013/11/27
 34 36  0  0  0  0  0  0  0  0999 V2000
    7.2449   37.2248   71.3032 N   0  0  0  0  0  0  0  0  0  0  0  0
    7.1398   35.7490   71.2272 C   0  0  1  0  0  0  0  0  0  0  0  0
    8.4049   37.8935   71.2697 C   0  0  0  0  0  0  0  0  0  0  0  0
    9.5130   37.3587   71.1740 O   0  0  0  0  0  0  0  0  0  0  0  0
    2.2648   48.0831   71.5825 N   0  0  0  0  0  0  0  0  0  0  0  0
    6.8161   35.1783   72.6182 C   0  0  0  0  0  0  0  0  0  0  0  0
    7.8066   35.6783   73.6785 C   0  0  0  0  0  0  0  0  0  0  0  0
    7.4599   35.1243   75.0688 C   0  0  0  0  0  0  0  0  0  0  0  0
    8.0701   34.0955   75.4433 O   0  0  0  0  0  0  0  0  0  0  0  0
    6.5935   35.7436   75.7280 O   0  0  0  0  0  0  0  0  0  0  0  0
    4.2475   47.5555   70.5107 N   0  0  0  0  0  0  0  0  0  0  0  0
    4.9322   35.8261   70.2953 O   0  0  0  0  0  0  0  0  0  0  0  0
    3.5259   47.6627   71.6399 C   0  0  0  0  0  0  0  0  0  0  0  0
    6.4114   34.4248   69.3802 O   0  0  0  0  0  0  0  0  0  0  0  0
    4.0869   47.3358   72.8809 N   0  0  0  0  0  0  0  0  0  0  0  0
    5.4021   46.8935   72.9280 C   0  0  0  0  0  0  0  0  0  0  0  0
    6.1093   46.7636   71.7400 C   0  0  0  0  0  0  0  0  0  0  0  0
    5.9130   46.5911   74.0035 O   0  0  0  0  0  0  0  0  0  0  0  0
    8.2201   46.7581   72.7631 C   0  0  0  0  0  0  0  0  0  0  0  0
    7.4487   46.3905   71.7445 N   0  0  0  0  0  0  0  0  0  0  0  0
    8.8166   47.8323   72.7377 O   0  0  0  0  0  0  0  0  0  0  0  0
    8.0342   45.7781   70.5468 C   0  0  2  0  0  0  0  0  0  0  0  0
    7.6764   46.6367   69.3310 C   0  0  0  0  0  0  0  0  0  0  0  0
    5.5196   47.1299   70.5377 C   0  0  0  0  0  0  0  0  0  0  0  0
    6.2487   47.0402   69.3468 N   0  0  0  0  0  0  0  0  0  0  0  0
    7.5063   44.3514   70.3608 C   0  0  0  0  0  0  0  0  0  0  0  0
    7.8658   43.5355   71.5270 N   0  0  0  0  0  0  0  0  0  0  0  0
    8.2632   39.4259   71.3109 C   0  0  0  0  0  0  0  0  0  0  0  0
    7.0037   40.0200   71.3282 C   0  0  0  0  0  0  0  0  0  0  0  0
    6.8768   41.4045   71.4216 C   0  0  0  0  0  0  0  0  0  0  0  0
    8.0084   42.2126   71.4532 C   0  0  0  0  0  0  0  0  0  0  0  0
    9.2670   41.6214   71.4270 C   0  0  0  0  0  0  0  0  0  0  0  0
    9.3949   40.2344   71.3694 C   0  0  0  0  0  0  0  0  0  0  0  0
    6.0673   35.2973   70.2145 C   0  0  0  0  0  0  0  0  0  0  0  0
  1  3  1  0  0  0  0
  2  1  1  1  0  0  0
  2  6  1  0  0  0  0
  2 34  1  0  0  0  0
  3  4  2  0  0  0  0
  3 28  1  0  0  0  0
  5 13  1  0  0  0  0
  6  7  1  0  0  0  0
  7  8  1  0  0  0  0
  8  9  1  0  0  0  0
  8 10  1  0  0  0  0
 11 13  2  0  0  0  0
 11 24  1  0  0  0  0
 12 34  1  0  0  0  0
 13 15  1  0  0  0  0
 14 34  1  0  0  0  0
 15 16  1  0  0  0  0
 16 17  1  0  0  0  0
 16 18  2  0  0  0  0
 17 20  1  0  0  0  0
 17 24  2  0  0  0  0
 19 21  1  0  0  0  0
 19 20  1  0  0  0  0
 20 22  1  0  0  0  0
 22 23  1  0  0  0  0
 22 26  1  6  0  0  0
 23 25  1  0  0  0  0
 24 25  1  0  0  0  0
 26 27  1  0  0  0  0
 27 31  1  0  0  0  0
 28 29  2  0  0  0  0
 28 33  1  0  0  0  0
 29 30  1  0  0  0  0
 30 31  2  0  0  0  0
 31 32  1  0  0  0  0
 32 33  2  0  0  0  0
M  END
>  <CHROM.1>
104.95747823,-52.70062688,-49.61071587,178.93421580,96.08822291,-88.92321772
-60.32127310,-153.78181784,-77.73224053,-2.35371642,6.88536292,41.71189520
71.79812543,0.81613791,1.40194156,-2.46874930

>  <Name>
ligand

>  <RI>
0

>  <Rbt.Current_Directory>
/home/itssahil/PROJECTS/Mol_Feturizer/New_Systems/rnas/3SUH

>  <Rbt.Executable>
rbdock ($Id: //depot/dev/client3/rdock/2013.1/src/exe/rbdock.cxx#4 $)

>  <Rbt.Library>
libRbt.so (2013.1, Build901 2013/11/27)

>  <Rbt.Parameter_File>
/export/apps/rDock/src/rDock_2013.1_src/data/scripts/dock_solv.prm

>  <Rbt.Receptor>
prm/pocket_docking_8.prm

>  <SCORE>
-10.756

>  <SCORE.INTER>
-6.89474

>  <SCORE.INTER.CONST>
1

>  <SCORE.INTER.POLAR>
0

>  <SCORE.INTER.ROT>
10

>  <SCORE.INTER.SOLV>
11.4215

>  <SCORE.INTER.VDW>
-18.6703

>  <SCORE.INTER.norm>
-0.202787

>  <SCORE.INTRA>
-3.8811

>  <SCORE.INTRA.DIHEDRAL>
-4.40667

>  <SCORE.INTRA.DIHEDRAL.0>
12.2703

>  <SCORE.INTRA.POLAR>
0

>  <SCORE.INTRA.POLAR.0>
0

>  <SCORE.INTRA.REPUL>
0

>  <SCORE.INTRA.REPUL.0>
0

>  <SCORE.INTRA.SOLV>
-0.414337

>  <SCORE.INTRA.SOLV.lig_0>
-64.3214

>  <SCORE.INTRA.VDW>
-1.47059

>  <SCORE.INTRA.VDW.0>
-1.67301

>  <SCORE.INTRA.norm>
-0.11415

>  <SCORE.RESTR>
0.0197887

>  <SCORE.RESTR.CAVITY>
0.0197887

>  <SCORE.RESTR.norm>
0.000582021

>  <SCORE.SYSTEM>
0

>  <SCORE.SYSTEM.CONST>
0

>  <SCORE.SYSTEM.DIHEDRAL>
0

>  <SCORE.SYSTEM.SOLV>
0

>  <SCORE.SYSTEM.norm>
0

>  <SCORE.heavy>
34

>  <SCORE.norm>
-0.316354

>  <RMSD>
7.391

$$$$
ligand
 OpenBabel11021811483D
libRbt.so/2013.1/901 2013/11/27
 34 36  0  0  0  0  0  0  0  0999 V2000
    6.0549   38.7388   72.2995 N   0  0  0  0  0  0  0  0  0  0  0  0
    5.8024   37.3222   72.6520 C   0  0  1  0  0  0  0  0  0  0  0  0
    7.1028   39.1527   71.5751 C   0  0  0  0  0  0  0  0  0  0  0  0
    7.9738   38.4046   71.1226 O   0  0  0  0  0  0  0  0  0  0  0  0
    1.4547   44.2181   75.2119 N   0  0  0  0  0  0  0  0  0  0  0  0
    4.7311   37.2431   73.7526 C   0  0  0  0  0  0  0  0  0  0  0  0
    5.1660   37.9927   75.0192 C   0  0  0  0  0  0  0  0  0  0  0  0
    4.0973   37.8942   76.1185 C   0  0  0  0  0  0  0  0  0  0  0  0
    4.1204   36.8761   76.8493 O   0  0  0  0  0  0  0  0  0  0  0  0
    3.2819   38.8409   76.2056 O   0  0  0  0  0  0  0  0  0  0  0  0
    2.8171   45.6424   73.9980 N   0  0  0  0  0  0  0  0  0  0  0  0
    4.1583   36.5816   71.0720 O   0  0  0  0  0  0  0  0  0  0  0  0
    2.6619   44.5435   74.7567 C   0  0  0  0  0  0  0  0  0  0  0  0
    6.2353   35.7825   70.8808 O   0  0  0  0  0  0  0  0  0  0  0  0
    3.7592   43.7333   75.0750 N   0  0  0  0  0  0  0  0  0  0  0  0
    5.0132   44.0800   74.5904 C   0  0  0  0  0  0  0  0  0  0  0  0
    5.1335   45.2034   73.7830 C   0  0  0  0  0  0  0  0  0  0  0  0
    5.9891   43.3796   74.8475 O   0  0  0  0  0  0  0  0  0  0  0  0
    7.4469   45.4294   74.0980 C   0  0  0  0  0  0  0  0  0  0  0  0
    6.3784   45.6274   73.3318 N   0  0  0  0  0  0  0  0  0  0  0  0
    8.5193   45.0964   73.5986 O   0  0  0  0  0  0  0  0  0  0  0  0
    6.4678   46.4562   72.1246 C   0  0  2  0  0  0  0  0  0  0  0  0
    5.4719   47.6123   72.2475 C   0  0  0  0  0  0  0  0  0  0  0  0
    4.0214   45.9922   73.5213 C   0  0  0  0  0  0  0  0  0  0  0  0
    4.1530   47.1483   72.7441 N   0  0  0  0  0  0  0  0  0  0  0  0
    6.1586   45.6220   70.8768 C   0  0  0  0  0  0  0  0  0  0  0  0
    7.2910   44.7354   70.5820 N   0  0  0  0  0  0  0  0  0  0  0  0
    7.1288   40.6654   71.2911 C   0  0  0  0  0  0  0  0  0  0  0  0
    6.7104   41.5747   72.2597 C   0  0  0  0  0  0  0  0  0  0  0  0
    6.7868   42.9455   72.0216 C   0  0  0  0  0  0  0  0  0  0  0  0
    7.2400   43.4210   70.7957 C   0  0  0  0  0  0  0  0  0  0  0  0
    7.6498   42.5142   69.8241 C   0  0  0  0  0  0  0  0  0  0  0  0
    7.6072   41.1434   70.0744 C   0  0  0  0  0  0  0  0  0  0  0  0
    5.3579   36.4929   71.4295 C   0  0  0  0  0  0  0  0  0  0  0  0
  1  3  1  0  0  0  0
  2  1  1  6  0  0  0
  2  6  1  0  0  0  0
  2 34  1  0  0  0  0
  3  4  2  0  0  0  0
  3 28  1  0  0  0  0
  5 13  1  0  0  0  0
  6  7  1  0  0  0  0
  7  8  1  0  0  0  0
  8  9  1  0  0  0  0
  8 10  1  0  0  0  0
 11 13  2  0  0  0  0
 11 24  1  0  0  0  0
 12 34  1  0  0  0  0
 13 15  1  0  0  0  0
 14 34  1  0  0  0  0
 15 16  1  0  0  0  0
 16 17  1  0  0  0  0
 16 18  2  0  0  0  0
 17 20  1  0  0  0  0
 17 24  2  0  0  0  0
 19 21  1  0  0  0  0
 19 20  1  0  0  0  0
 20 22  1  0  0  0  0
 22 23  1  0  0  0  0
 22 26  1  6  0  0  0
 23 25  1  0  0  0  0
 24 25  1  0  0  0  0
 26 27  1  0  0  0  0
 27 31  1  0  0  0  0
 28 29  2  0  0  0  0
 28 33  1  0  0  0  0
 29 30  1  0  0  0  0
 30 31  2  0  0  0  0
 31 32  1  0  0  0  0
 32 33  2  0  0  0  0
M  END
>  <CHROM.1>
166.39362451,-59.54423452,-79.77202171,-179.32499114,84.76974529,140.82178914
-73.74567248,107.11782303,-48.91959850,37.51140296,5.57250771,41.92342381
73.00662884,-1.58632036,0.86687288,0.01406224

>  <Name>
ligand

>  <RI>
0

>  <Rbt.Current_Directory>
/home/itssahil/PROJECTS/Mol_Feturizer/New_Systems/rnas/3SUH

>  <Rbt.Executable>
rbdock ($Id: //depot/dev/client3/rdock/2013.1/src/exe/rbdock.cxx#4 $)

>  <Rbt.Library>
libRbt.so (2013.1, Build901 2013/11/27)

>  <Rbt.Parameter_File>
/export/apps/rDock/src/rDock_2013.1_src/data/scripts/dock_solv.prm

>  <Rbt.Receptor>
prm/pocket_docking_7.prm

>  <SCORE>
-11.9083

>  <SCORE.INTER>
-7.51729

>  <SCORE.INTER.CONST>
1

>  <SCORE.INTER.POLAR>
0

>  <SCORE.INTER.ROT>
10

>  <SCORE.INTER.SOLV>
9.90523

>  <SCORE.INTER.VDW>
-18.5799

>  <SCORE.INTER.norm>
-0.221097

>  <SCORE.INTRA>
-4.39096

>  <SCORE.INTRA.DIHEDRAL>
-4.27426

>  <SCORE.INTRA.DIHEDRAL.0>
12.2703

>  <SCORE.INTRA.POLAR>
0

>  <SCORE.INTRA.POLAR.0>
0

>  <SCORE.INTRA.REPUL>
0

>  <SCORE.INTRA.REPUL.0>
0

>  <SCORE.INTRA.SOLV>
0.413733

>  <SCORE.INTRA.SOLV.lig_0>
-64.3214

>  <SCORE.INTRA.VDW>
-2.4607

>  <SCORE.INTRA.VDW.0>
-1.67301

>  <SCORE.INTRA.norm>
-0.129146

>  <SCORE.RESTR>
0

>  <SCORE.RESTR.CAVITY>
0

>  <SCORE.RESTR.norm>
0

>  <SCORE.SYSTEM>
0

>  <SCORE.SYSTEM.CONST>
0

>  <SCORE.SYSTEM.DIHEDRAL>
0

>  <SCORE.SYSTEM.SOLV>
0

>  <SCORE.SYSTEM.norm>
0

>  <SCORE.heavy>
34

>  <SCORE.norm>
-0.350243

>  <RMSD>
7.396

$$$$
ligand
 OpenBabel11021811483D
libRbt.so/2013.1/901 2013/11/27
 34 36  0  0  0  0  0  0  0  0999 V2000
    6.8943   38.0767   71.6131 N   0  0  0  0  0  0  0  0  0  0  0  0
    6.8891   36.6335   71.9476 C   0  0  1  0  0  0  0  0  0  0  0  0
    7.9667   38.7321   71.1502 C   0  0  0  0  0  0  0  0  0  0  0  0
    9.0678   38.2110   70.9522 O   0  0  0  0  0  0  0  0  0  0  0  0
    7.7864   49.5198   75.3749 N   0  0  0  0  0  0  0  0  0  0  0  0
    5.7259   36.3257   72.9054 C   0  0  0  0  0  0  0  0  0  0  0  0
    5.7583   34.8676   73.3833 C   0  0  0  0  0  0  0  0  0  0  0  0
    4.6109   34.5776   74.3628 C   0  0  0  0  0  0  0  0  0  0  0  0
    4.8185   34.8194   75.5750 O   0  0  0  0  0  0  0  0  0  0  0  0
    3.5498   34.1227   73.8772 O   0  0  0  0  0  0  0  0  0  0  0  0
    6.8624   48.4483   73.5428 N   0  0  0  0  0  0  0  0  0  0  0  0
    7.8201   35.1806   70.2831 O   0  0  0  0  0  0  0  0  0  0  0  0
    7.8974   49.0792   74.1243 C   0  0  0  0  0  0  0  0  0  0  0  0
    5.6434   35.6654   70.1569 O   0  0  0  0  0  0  0  0  0  0  0  0
    9.0959   49.2792   73.4276 N   0  0  0  0  0  0  0  0  0  0  0  0
    9.2019   48.8107   72.1250 C   0  0  0  0  0  0  0  0  0  0  0  0
    8.1255   48.1351   71.5652 C   0  0  0  0  0  0  0  0  0  0  0  0
   10.2464   48.9651   71.4971 O   0  0  0  0  0  0  0  0  0  0  0  0
    8.8381   48.4245   69.3492 C   0  0  0  0  0  0  0  0  0  0  0  0
    8.1609   47.7090   70.2421 N   0  0  0  0  0  0  0  0  0  0  0  0
    8.6221   49.6275   69.2208 O   0  0  0  0  0  0  0  0  0  0  0  0
    7.2974   46.6031   69.8139 C   0  0  2  0  0  0  0  0  0  0  0  0
    5.8706   46.8788   70.2954 C   0  0  0  0  0  0  0  0  0  0  0  0
    6.9474   47.9892   72.2850 C   0  0  0  0  0  0  0  0  0  0  0  0
    5.8488   47.3471   71.7031 N   0  0  0  0  0  0  0  0  0  0  0  0
    7.8020   45.2748   70.3879 C   0  0  0  0  0  0  0  0  0  0  0  0
    6.9674   44.1734   69.8924 N   0  0  0  0  0  0  0  0  0  0  0  0
    7.7198   40.2160   70.8232 C   0  0  0  0  0  0  0  0  0  0  0  0
    8.0725   40.7350   69.5799 C   0  0  0  0  0  0  0  0  0  0  0  0
    7.7977   42.0644   69.2654 C   0  0  0  0  0  0  0  0  0  0  0  0
    7.2080   42.9010   70.2071 C   0  0  0  0  0  0  0  0  0  0  0  0
    6.8632   42.3867   71.4524 C   0  0  0  0  0  0  0  0  0  0  0  0
    7.1054   41.0476   71.7553 C   0  0  0  0  0  0  0  0  0  0  0  0
    6.7774   35.7489   70.6886 C   0  0  0  0  0  0  0  0  0  0  0  0
  1  3  1  0  0  0  0
  2  1  1  6  0  0  0
  2  6  1  0  0  0  0
  2 34  1  0  0  0  0
  3  4  2  0  0  0  0
  3 28  1  0  0  0  0
  5 13  1  0  0  0  0
  6  7  1  0  0  0  0
  7  8  1  0  0  0  0
  8  9  1  0  0  0  0
  8 10  1  0  0  0  0
 11 13  2  0  0  0  0
 11 24  1  0  0  0  0
 12 34  1  0  0  0  0
 13 15  1  0  0  0  0
 14 34  1  0  0  0  0
 15 16  1  0  0  0  0
 16 17  1  0  0  0  0
 16 18  2  0  0  0  0
 17 20  1  0  0  0  0
 17 24  2  0  0  0  0
 19 21  1  0  0  0  0
 19 20  1  0  0  0  0
 20 22  1  0  0  0  0
 22 23  1  0  0  0  0
 22 26  1  1  0  0  0
 23 25  1  0  0  0  0
 24 25  1  0  0  0  0
 26 27  1  0  0  0  0
 27 31  1  0  0  0  0
 28 29  2  0  0  0  0
 28 33  1  0  0  0  0
 29 30  1  0  0  0  0
 30 31  2  0  0  0  0
 31 32  1  0  0  0  0
 32 33  2  0  0  0  0
M  END
>  <CHROM.1>
159.17741311,-174.69355141,103.49928163,178.77878222,-86.96459038,-53.07102979
-177.08128468,178.12873036,-103.87518591,-127.99602934,7.21810789,42.52228825
71.62356964,-1.99946149,1.16767170,0.33991236

>  <Name>
ligand

>  <RI>
0

>  <Rbt.Current_Directory>
/home/itssahil/PROJECTS/Mol_Feturizer/New_Systems/rnas/3SUH

>  <Rbt.Executable>
rbdock ($Id: //depot/dev/client3/rdock/2013.1/src/exe/rbdock.cxx#4 $)

>  <Rbt.Library>
libRbt.so (2013.1, Build901 2013/11/27)

>  <Rbt.Parameter_File>
/export/apps/rDock/src/rDock_2013.1_src/data/scripts/dock_solv.prm

>  <Rbt.Receptor>
prm/pocket_docking_8.prm

>  <SCORE>
-14.2129

>  <SCORE.INTER>
-10.1361

>  <SCORE.INTER.CONST>
1

>  <SCORE.INTER.POLAR>
0

>  <SCORE.INTER.ROT>
10

>  <SCORE.INTER.SOLV>
11.7277

>  <SCORE.INTER.VDW>
-20.9333

>  <SCORE.INTER.norm>
-0.298122

>  <SCORE.INTRA>
-4.07676

>  <SCORE.INTRA.DIHEDRAL>
-5.32304

>  <SCORE.INTRA.DIHEDRAL.0>
12.2703

>  <SCORE.INTRA.POLAR>
0

>  <SCORE.INTRA.POLAR.0>
0

>  <SCORE.INTRA.REPUL>
0

>  <SCORE.INTRA.REPUL.0>
0

>  <SCORE.INTRA.SOLV>
-1.0076

>  <SCORE.INTRA.SOLV.lig_0>
-64.3214

>  <SCORE.INTRA.VDW>
-0.911439

>  <SCORE.INTRA.VDW.0>
-1.67301

>  <SCORE.INTRA.norm>
-0.119905

>  <SCORE.RESTR>
0

>  <SCORE.RESTR.CAVITY>
0

>  <SCORE.RESTR.norm>
0

>  <SCORE.SYSTEM>
0

>  <SCORE.SYSTEM.CONST>
0

>  <SCORE.SYSTEM.DIHEDRAL>
0

>  <SCORE.SYSTEM.SOLV>
0

>  <SCORE.SYSTEM.norm>
0

>  <SCORE.heavy>
34

>  <SCORE.norm>
-0.418027

>  <RMSD>
7.401

$$$$
ligand
 OpenBabel11021811483D
libRbt.so/2013.1/901 2013/11/27
 34 36  0  0  0  0  0  0  0  0999 V2000
    6.6395   37.6703   71.3229 N   0  0  0  0  0  0  0  0  0  0  0  0
    6.4023   36.2098   71.3978 C   0  0  1  0  0  0  0  0  0  0  0  0
    6.4843   38.5060   72.3581 C   0  0  0  0  0  0  0  0  0  0  0  0
    6.1261   38.1562   73.4862 O   0  0  0  0  0  0  0  0  0  0  0  0
    8.2267   49.6414   75.1985 N   0  0  0  0  0  0  0  0  0  0  0  0
    4.9257   35.9064   71.0935 C   0  0  0  0  0  0  0  0  0  0  0  0
    3.9897   36.5880   72.1008 C   0  0  0  0  0  0  0  0  0  0  0  0
    2.5232   36.4861   71.6547 C   0  0  0  0  0  0  0  0  0  0  0  0
    2.0538   37.4510   71.0068 O   0  0  0  0  0  0  0  0  0  0  0  0
    1.9040   35.4437   71.9692 O   0  0  0  0  0  0  0  0  0  0  0  0
    7.2499   48.8082   73.2723 N   0  0  0  0  0  0  0  0  0  0  0  0
    6.7681   34.9087   69.4176 O   0  0  0  0  0  0  0  0  0  0  0  0
    8.2999   48.8814   74.1088 C   0  0  0  0  0  0  0  0  0  0  0  0
    8.5270   35.3622   70.7174 O   0  0  0  0  0  0  0  0  0  0  0  0
    9.4743   48.1647   73.8467 N   0  0  0  0  0  0  0  0  0  0  0  0
    9.5374   47.3712   72.7092 C   0  0  0  0  0  0  0  0  0  0  0  0
    8.4239   47.2927   71.8833 C   0  0  0  0  0  0  0  0  0  0  0  0
   10.5530   46.7253   72.4633 O   0  0  0  0  0  0  0  0  0  0  0  0
    9.6087   46.4870   70.0261 C   0  0  0  0  0  0  0  0  0  0  0  0
    8.4645   46.5659   70.6986 N   0  0  0  0  0  0  0  0  0  0  0  0
    9.9456   45.4336   69.4901 O   0  0  0  0  0  0  0  0  0  0  0  0
    7.2155   46.0710   70.1092 C   0  0  2  0  0  0  0  0  0  0  0  0
    6.2107   47.2242   70.0468 C   0  0  0  0  0  0  0  0  0  0  0  0
    7.2935   48.0465   72.1687 C   0  0  0  0  0  0  0  0  0  0  0  0
    6.1888   48.0002   71.3113 N   0  0  0  0  0  0  0  0  0  0  0  0
    6.6473   44.9188   70.9448 C   0  0  0  0  0  0  0  0  0  0  0  0
    7.6982   43.9246   71.1949 N   0  0  0  0  0  0  0  0  0  0  0  0
    6.8390   39.9733   72.0565 C   0  0  0  0  0  0  0  0  0  0  0  0
    7.3548   40.3359   70.8146 C   0  0  0  0  0  0  0  0  0  0  0  0
    7.6231   41.6720   70.5239 C   0  0  0  0  0  0  0  0  0  0  0  0
    7.4209   42.6544   71.4874 C   0  0  0  0  0  0  0  0  0  0  0  0
    6.9143   42.2930   72.7312 C   0  0  0  0  0  0  0  0  0  0  0  0
    6.6120   40.9610   73.0108 C   0  0  0  0  0  0  0  0  0  0  0  0
    7.3080   35.4267   70.4249 C   0  0  0  0  0  0  0  0  0  0  0  0
  1  3  1  0  0  0  0
  2  1  1  6  0  0  0
  2  6  1  0  0  0  0
  2 34  1  0  0  0  0
  3  4  2  0  0  0  0
  3 28  1  0  0  0  0
  5 13  1  0  0  0  0
  6  7  1  0  0  0  0
  7  8  1  0  0  0  0
  8  9  1  0  0  0  0
  8 10  1  0  0  0  0
 11 13  2  0  0  0  0
 11 24  1  0  0  0  0
 12 34  1  0  0  0  0
 13 15  1  0  0  0  0
 14 34  1  0  0  0  0
 15 16  1  0  0  0  0
 16 17  1  0  0  0  0
 16 18  2  0  0  0  0
 17 20  1  0  0  0  0
 17 24  2  0  0  0  0
 19 21  1  0  0  0  0
 19 20  1  0  0  0  0
 20 22  1  0  0  0  0
 22 23  1  0  0  0  0
 22 26  1  1  0  0  0
 23 25  1  0  0  0  0
 24 25  1  0  0  0  0
 26 27  1  0  0  0  0
 27 31  1  0  0  0  0
 28 29  2  0  0  0  0
 28 33  1  0  0  0  0
 29 30  1  0  0  0  0
 30 31  2  0  0  0  0
 31 32  1  0  0  0  0
 32 33  2  0  0  0  0
M  END
>  <CHROM.1>
88.25445061,-60.44668559,-108.57481836,170.11967682,-94.54754893,140.46580740
-49.97222121,-157.14920311,105.93227282,-3.73451407,6.96359957,42.24868487
71.65005679,-1.85802798,0.32578682,0.17513925

>  <Name>
ligand

>  <RI>
0

>  <Rbt.Current_Directory>
/home/itssahil/PROJECTS/Mol_Feturizer/New_Systems/rnas/3SUH

>  <Rbt.Executable>
rbdock ($Id: //depot/dev/client3/rdock/2013.1/src/exe/rbdock.cxx#4 $)

>  <Rbt.Library>
libRbt.so (2013.1, Build901 2013/11/27)

>  <Rbt.Parameter_File>
/export/apps/rDock/src/rDock_2013.1_src/data/scripts/dock_solv.prm

>  <Rbt.Receptor>
prm/pocket_docking_8.prm

>  <SCORE>
-13.893

>  <SCORE.INTER>
-11.7825

>  <SCORE.INTER.CONST>
1

>  <SCORE.INTER.POLAR>
0

>  <SCORE.INTER.ROT>
10

>  <SCORE.INTER.SOLV>
8.31008

>  <SCORE.INTER.VDW>
-20.8917

>  <SCORE.INTER.norm>
-0.346544

>  <SCORE.INTRA>
-2.11054

>  <SCORE.INTRA.DIHEDRAL>
-4.3716

>  <SCORE.INTRA.DIHEDRAL.0>
12.2703

>  <SCORE.INTRA.POLAR>
0

>  <SCORE.INTRA.POLAR.0>
0

>  <SCORE.INTRA.REPUL>
0

>  <SCORE.INTRA.REPUL.0>
0

>  <SCORE.INTRA.SOLV>
0.601063

>  <SCORE.INTRA.SOLV.lig_0>
-64.3214

>  <SCORE.INTRA.VDW>
-0.225269

>  <SCORE.INTRA.VDW.0>
-1.67301

>  <SCORE.INTRA.norm>
-0.0620746

>  <SCORE.RESTR>
0

>  <SCORE.RESTR.CAVITY>
0

>  <SCORE.RESTR.norm>
0

>  <SCORE.SYSTEM>
0

>  <SCORE.SYSTEM.CONST>
0

>  <SCORE.SYSTEM.DIHEDRAL>
0

>  <SCORE.SYSTEM.SOLV>
0

>  <SCORE.SYSTEM.norm>
0

>  <SCORE.heavy>
34

>  <SCORE.norm>
-0.408619

>  <RMSD>
7.408

$$$$
ligand
 OpenBabel11021811483D
libRbt.so/2013.1/901 2013/11/27
 34 36  0  0  0  0  0  0  0  0999 V2000
    7.5229   37.2285   70.8573 N   0  0  0  0  0  0  0  0  0  0  0  0
    7.5467   35.7799   71.1668 C   0  0  1  0  0  0  0  0  0  0  0  0
    8.5524   38.0564   71.0788 C   0  0  0  0  0  0  0  0  0  0  0  0
    9.6320   37.7084   71.5651 O   0  0  0  0  0  0  0  0  0  0  0  0
    3.4735   43.3578   75.7819 N   0  0  0  0  0  0  0  0  0  0  0  0
    7.1414   35.5546   72.6332 C   0  0  0  0  0  0  0  0  0  0  0  0
    8.2230   36.0531   73.6012 C   0  0  0  0  0  0  0  0  0  0  0  0
    7.8234   35.7958   75.0621 C   0  0  0  0  0  0  0  0  0  0  0  0
    8.1006   34.6714   75.5416 O   0  0  0  0  0  0  0  0  0  0  0  0
    7.2514   36.7307   75.6685 O   0  0  0  0  0  0  0  0  0  0  0  0
    4.8953   44.5814   74.4255 N   0  0  0  0  0  0  0  0  0  0  0  0
    5.4297   35.3702   70.1188 O   0  0  0  0  0  0  0  0  0  0  0  0
    4.5508   43.4174   75.0033 C   0  0  0  0  0  0  0  0  0  0  0  0
    7.1141   33.9746   69.6672 O   0  0  0  0  0  0  0  0  0  0  0  0
    5.3145   42.2619   74.7949 N   0  0  0  0  0  0  0  0  0  0  0  0
    6.4337   42.3349   73.9766 C   0  0  0  0  0  0  0  0  0  0  0  0
    6.7433   43.5449   73.3696 C   0  0  0  0  0  0  0  0  0  0  0  0
    7.1135   41.3327   73.7705 O   0  0  0  0  0  0  0  0  0  0  0  0
    8.9726   42.9752   72.9134 C   0  0  0  0  0  0  0  0  0  0  0  0
    7.8917   43.6824   72.5978 N   0  0  0  0  0  0  0  0  0  0  0  0
    9.8106   43.4298   73.6889 O   0  0  0  0  0  0  0  0  0  0  0  0
    7.9604   44.7396   71.5831 C   0  0  2  0  0  0  0  0  0  0  0  0
    7.5302   46.0626   72.2219 C   0  0  0  0  0  0  0  0  0  0  0  0
    5.9734   44.6700   73.6319 C   0  0  0  0  0  0  0  0  0  0  0  0
    6.3131   45.8984   73.0543 N   0  0  0  0  0  0  0  0  0  0  0  0
    7.0502   44.4045   70.3965 C   0  0  0  0  0  0  0  0  0  0  0  0
    7.7241   43.4459   69.5120 N   0  0  0  0  0  0  0  0  0  0  0  0
    8.3150   39.5094   70.6291 C   0  0  0  0  0  0  0  0  0  0  0  0
    7.2367   40.2371   71.1267 C   0  0  0  0  0  0  0  0  0  0  0  0
    7.0551   41.5696   70.7617 C   0  0  0  0  0  0  0  0  0  0  0  0
    7.9239   42.1753   69.8603 C   0  0  0  0  0  0  0  0  0  0  0  0
    8.9962   41.4473   69.3555 C   0  0  0  0  0  0  0  0  0  0  0  0
    9.1992   40.1250   69.7476 C   0  0  0  0  0  0  0  0  0  0  0  0
    6.6148   34.9751   70.2375 C   0  0  0  0  0  0  0  0  0  0  0  0
  1  3  1  0  0  0  0
  2  1  1  6  0  0  0
  2  6  1  0  0  0  0
  2 34  1  0  0  0  0
  3  4  2  0  0  0  0
  3 28  1  0  0  0  0
  5 13  1  0  0  0  0
  6  7  1  0  0  0  0
  7  8  1  0  0  0  0
  8  9  1  0  0  0  0
  8 10  1  0  0  0  0
 11 13  2  0  0  0  0
 11 24  1  0  0  0  0
 12 34  1  0  0  0  0
 13 15  1  0  0  0  0
 14 34  1  0  0  0  0
 15 16  1  0  0  0  0
 16 17  1  0  0  0  0
 16 18  2  0  0  0  0
 17 20  1  0  0  0  0
 17 24  2  0  0  0  0
 19 21  1  0  0  0  0
 19 20  1  0  0  0  0
 20 22  1  0  0  0  0
 22 23  1  0  0  0  0
 22 26  1  6  0  0  0
 23 25  1  0  0  0  0
 24 25  1  0  0  0  0
 26 27  1  0  0  0  0
 27 31  1  0  0  0  0
 28 29  2  0  0  0  0
 28 33  1  0  0  0  0
 29 30  1  0  0  0  0
 30 31  2  0  0  0  0
 31 32  1  0  0  0  0
 32 33  2  0  0  0  0
M  END
>  <CHROM.1>
86.10210377,-70.01512930,-51.07234737,-178.74315507,85.88523485,-90.18391421
-80.19562537,70.73800108,27.21206124,57.14517157,7.28703684,40.41092533,72.38340986
-1.33567954,1.18866754,-0.11803935

>  <Name>
ligand

>  <RI>
0

>  <Rbt.Current_Directory>
/home/itssahil/PROJECTS/Mol_Feturizer/New_Systems/rnas/3SUH

>  <Rbt.Executable>
rbdock ($Id: //depot/dev/client3/rdock/2013.1/src/exe/rbdock.cxx#4 $)

>  <Rbt.Library>
libRbt.so (2013.1, Build901 2013/11/27)

>  <Rbt.Parameter_File>
/export/apps/rDock/src/rDock_2013.1_src/data/scripts/dock_solv.prm

>  <Rbt.Receptor>
prm/pocket_docking_8.prm

>  <SCORE>
-14.7967

>  <SCORE.INTER>
-10.4166

>  <SCORE.INTER.CONST>
1

>  <SCORE.INTER.POLAR>
0

>  <SCORE.INTER.ROT>
10

>  <SCORE.INTER.SOLV>
13.2337

>  <SCORE.INTER.VDW>
-21.6223

>  <SCORE.INTER.norm>
-0.306372

>  <SCORE.INTRA>
-4.3801

>  <SCORE.INTRA.DIHEDRAL>
-3.82076

>  <SCORE.INTRA.DIHEDRAL.0>
12.2703

>  <SCORE.INTRA.POLAR>
0

>  <SCORE.INTRA.POLAR.0>
0

>  <SCORE.INTRA.REPUL>
0

>  <SCORE.INTRA.REPUL.0>
0

>  <SCORE.INTRA.SOLV>
-0.0747598

>  <SCORE.INTRA.SOLV.lig_0>
-64.3214

>  <SCORE.INTRA.VDW>
-2.43234

>  <SCORE.INTRA.VDW.0>
-1.67301

>  <SCORE.INTRA.norm>
-0.128826

>  <SCORE.RESTR>
0

>  <SCORE.RESTR.CAVITY>
0

>  <SCORE.RESTR.norm>
0

>  <SCORE.SYSTEM>
0

>  <SCORE.SYSTEM.CONST>
0

>  <SCORE.SYSTEM.DIHEDRAL>
0

>  <SCORE.SYSTEM.SOLV>
0

>  <SCORE.SYSTEM.norm>
0

>  <SCORE.heavy>
34

>  <SCORE.norm>
-0.435198

>  <RMSD>
7.447

$$$$
ligand
 OpenBabel11021811483D
libRbt.so/2013.1/901 2013/11/27
 34 36  0  0  0  0  0  0  0  0999 V2000
    7.0471   38.1867   71.3769 N   0  0  0  0  0  0  0  0  0  0  0  0
    7.1042   36.7547   71.7525 C   0  0  1  0  0  0  0  0  0  0  0  0
    8.1261   38.9276   71.0923 C   0  0  0  0  0  0  0  0  0  0  0  0
    9.2851   38.5039   71.1123 O   0  0  0  0  0  0  0  0  0  0  0  0
    7.9629   48.6352   75.8622 N   0  0  0  0  0  0  0  0  0  0  0  0
    5.6811   36.1740   71.8061 C   0  0  0  0  0  0  0  0  0  0  0  0
    5.6784   34.7335   72.3356 C   0  0  0  0  0  0  0  0  0  0  0  0
    6.2269   34.6667   73.7691 C   0  0  0  0  0  0  0  0  0  0  0  0
    5.3919   34.6988   74.7033 O   0  0  0  0  0  0  0  0  0  0  0  0
    7.4698   34.5823   73.8992 O   0  0  0  0  0  0  0  0  0  0  0  0
    6.9509   47.7903   73.9595 N   0  0  0  0  0  0  0  0  0  0  0  0
    9.1911   35.8255   71.0251 O   0  0  0  0  0  0  0  0  0  0  0  0
    7.9654   48.4505   74.5445 C   0  0  0  0  0  0  0  0  0  0  0  0
    7.3763   35.4344   69.7831 O   0  0  0  0  0  0  0  0  0  0  0  0
    9.0293   48.9482   73.7815 N   0  0  0  0  0  0  0  0  0  0  0  0
    9.0236   48.7453   72.4081 C   0  0  0  0  0  0  0  0  0  0  0  0
    7.9768   48.0315   71.8396 C   0  0  0  0  0  0  0  0  0  0  0  0
    9.9506   49.1634   71.7189 O   0  0  0  0  0  0  0  0  0  0  0  0
    8.3550   48.8208   69.6633 C   0  0  0  0  0  0  0  0  0  0  0  0
    7.8937   47.8630   70.4619 N   0  0  0  0  0  0  0  0  0  0  0  0
    9.2777   48.5925   68.8843 O   0  0  0  0  0  0  0  0  0  0  0  0
    7.1270   46.7385   69.9145 C   0  0  2  0  0  0  0  0  0  0  0  0
    5.7514   46.7087   70.5854 C   0  0  0  0  0  0  0  0  0  0  0  0
    6.9292   47.5852   72.6338 C   0  0  0  0  0  0  0  0  0  0  0  0
    5.8535   46.9048   72.0526 N   0  0  0  0  0  0  0  0  0  0  0  0
    7.8636   45.4170   70.1592 C   0  0  0  0  0  0  0  0  0  0  0  0
    7.0753   44.3039   69.6162 N   0  0  0  0  0  0  0  0  0  0  0  0
    7.8172   40.3775   70.6776 C   0  0  0  0  0  0  0  0  0  0  0  0
    7.1897   41.2490   71.5645 C   0  0  0  0  0  0  0  0  0  0  0  0
    6.9610   42.5764   71.2077 C   0  0  0  0  0  0  0  0  0  0  0  0
    7.3166   43.0349   69.9437 C   0  0  0  0  0  0  0  0  0  0  0  0
    7.9352   42.1636   69.0535 C   0  0  0  0  0  0  0  0  0  0  0  0
    8.1967   40.8448   69.4224 C   0  0  0  0  0  0  0  0  0  0  0  0
    7.9670   35.9339   70.7717 C   0  0  0  0  0  0  0  0  0  0  0  0
  1  3  1  0  0  0  0
  2  1  1  6  0  0  0
  2  6  1  0  0  0  0
  2 34  1  0  0  0  0
  3  4  2  0  0  0  0
  3 28  1  0  0  0  0
  5 13  1  0  0  0  0
  6  7  1  0  0  0  0
  7  8  1  0  0  0  0
  8  9  1  0  0  0  0
  8 10  1  0  0  0  0
 11 13  2  0  0  0  0
 11 24  1  0  0  0  0
 12 34  1  0  0  0  0
 13 15  1  0  0  0  0
 14 34  1  0  0  0  0
 15 16  1  0  0  0  0
 16 17  1  0  0  0  0
 16 18  2  0  0  0  0
 17 20  1  0  0  0  0
 17 24  2  0  0  0  0
 19 21  1  0  0  0  0
 19 20  1  0  0  0  0
 20 22  1  0  0  0  0
 22 23  1  0  0  0  0
 22 26  1  1  0  0  0
 23 25  1  0  0  0  0
 24 25  1  0  0  0  0
 26 27  1  0  0  0  0
 27 31  1  0  0  0  0
 28 29  2  0  0  0  0
 28 33  1  0  0  0  0
 29 30  1  0  0  0  0
 30 31  2  0  0  0  0
 31 32  1  0  0  0  0
 32 33  2  0  0  0  0
M  END
>  <CHROM.1>
-171.71816419,-173.94713344,89.91471642,61.41301841,94.77218221,118.45903703
179.46271257,-164.60680631,73.34915681,62.31200760,7.57471428,42.48530372
71.58006168,-1.92264545,1.33812798,0.32685034

>  <Name>
ligand

>  <RI>
0

>  <Rbt.Current_Directory>
/home/itssahil/PROJECTS/Mol_Feturizer/New_Systems/rnas/3SUH

>  <Rbt.Executable>
rbdock ($Id: //depot/dev/client3/rdock/2013.1/src/exe/rbdock.cxx#4 $)

>  <Rbt.Library>
libRbt.so (2013.1, Build901 2013/11/27)

>  <Rbt.Parameter_File>
/export/apps/rDock/src/rDock_2013.1_src/data/scripts/dock_solv.prm

>  <Rbt.Receptor>
prm/pocket_docking_8.prm

>  <SCORE>
-16.2776

>  <SCORE.INTER>
-12.616

>  <SCORE.INTER.CONST>
1

>  <SCORE.INTER.POLAR>
0

>  <SCORE.INTER.ROT>
10

>  <SCORE.INTER.SOLV>
12.3395

>  <SCORE.INTER.VDW>
-22.7905

>  <SCORE.INTER.norm>
-0.371057

>  <SCORE.INTRA>
-3.66166

>  <SCORE.INTRA.DIHEDRAL>
-5.39536

>  <SCORE.INTRA.DIHEDRAL.0>
12.2703

>  <SCORE.INTRA.POLAR>
0

>  <SCORE.INTRA.POLAR.0>
0

>  <SCORE.INTRA.REPUL>
0

>  <SCORE.INTRA.REPUL.0>
0

>  <SCORE.INTRA.SOLV>
-0.703631

>  <SCORE.INTRA.SOLV.lig_0>
-64.3214

>  <SCORE.INTRA.VDW>
-0.612162

>  <SCORE.INTRA.VDW.0>
-1.67301

>  <SCORE.INTRA.norm>
-0.107696

>  <SCORE.RESTR>
0

>  <SCORE.RESTR.CAVITY>
0

>  <SCORE.RESTR.norm>
0

>  <SCORE.SYSTEM>
0

>  <SCORE.SYSTEM.CONST>
0

>  <SCORE.SYSTEM.DIHEDRAL>
0

>  <SCORE.SYSTEM.SOLV>
0

>  <SCORE.SYSTEM.norm>
0

>  <SCORE.heavy>
34

>  <SCORE.norm>
-0.478753

>  <RMSD>
7.502

$$$$
ligand
 OpenBabel11021811483D
libRbt.so/2013.1/901 2013/11/27
 34 36  0  0  0  0  0  0  0  0999 V2000
    8.0737   37.9408   70.8150 N   0  0  0  0  0  0  0  0  0  0  0  0
    8.2421   36.4792   70.9891 C   0  0  1  0  0  0  0  0  0  0  0  0
    7.3794   38.7179   71.6564 C   0  0  0  0  0  0  0  0  0  0  0  0
    6.8023   38.3064   72.6668 O   0  0  0  0  0  0  0  0  0  0  0  0
    5.9109   47.4420   76.9056 N   0  0  0  0  0  0  0  0  0  0  0  0
    9.0663   36.1980   72.2568 C   0  0  0  0  0  0  0  0  0  0  0  0
   10.4668   36.8194   72.1695 C   0  0  0  0  0  0  0  0  0  0  0  0
   10.3984   38.3536   72.2115 C   0  0  0  0  0  0  0  0  0  0  0  0
    9.9313   38.8772   73.2501 O   0  0  0  0  0  0  0  0  0  0  0  0
   10.8173   38.9695   71.2045 O   0  0  0  0  0  0  0  0  0  0  0  0
    5.5990   47.5467   74.6143 N   0  0  0  0  0  0  0  0  0  0  0  0
    5.8553   36.3982   70.7790 O   0  0  0  0  0  0  0  0  0  0  0  0
    6.3829   47.2768   75.6726 C   0  0  0  0  0  0  0  0  0  0  0  0
    6.9162   34.5464   71.4379 O   0  0  0  0  0  0  0  0  0  0  0  0
    7.6953   46.8218   75.4930 N   0  0  0  0  0  0  0  0  0  0  0  0
    8.1754   46.6484   74.2019 C   0  0  0  0  0  0  0  0  0  0  0  0
    7.3292   46.9056   73.1312 C   0  0  0  0  0  0  0  0  0  0  0  0
    9.3196   46.2407   74.0188 O   0  0  0  0  0  0  0  0  0  0  0  0
    9.0557   47.1099   71.5564 C   0  0  0  0  0  0  0  0  0  0  0  0
    7.7873   46.8120   71.8217 N   0  0  0  0  0  0  0  0  0  0  0  0
    9.3767   48.2569   71.2537 O   0  0  0  0  0  0  0  0  0  0  0  0
    6.8298   46.5845   70.7338 C   0  0  2  0  0  0  0  0  0  0  0  0
    5.6792   47.5844   70.8747 C   0  0  0  0  0  0  0  0  0  0  0  0
    6.0465   47.3848   73.3599 C   0  0  0  0  0  0  0  0  0  0  0  0
    5.2106   47.6855   72.2788 N   0  0  0  0  0  0  0  0  0  0  0  0
    6.2929   45.1499   70.7826 C   0  0  0  0  0  0  0  0  0  0  0  0
    7.3154   44.2223   70.2833 N   0  0  0  0  0  0  0  0  0  0  0  0
    7.3861   40.2154   71.2997 C   0  0  0  0  0  0  0  0  0  0  0  0
    7.8953   40.6498   70.0783 C   0  0  0  0  0  0  0  0  0  0  0  0
    7.8499   41.9992   69.7337 C   0  0  0  0  0  0  0  0  0  0  0  0
    7.3358   42.9346   70.6254 C   0  0  0  0  0  0  0  0  0  0  0  0
    6.8350   42.5036   71.8493 C   0  0  0  0  0  0  0  0  0  0  0  0
    6.8475   41.1494   72.1802 C   0  0  0  0  0  0  0  0  0  0  0  0
    6.8868   35.7473   71.0739 C   0  0  0  0  0  0  0  0  0  0  0  0
  1  3  1  0  0  0  0
  2  1  1  1  0  0  0
  2  6  1  0  0  0  0
  2 34  1  0  0  0  0
  3  4  2  0  0  0  0
  3 28  1  0  0  0  0
  5 13  1  0  0  0  0
  6  7  1  0  0  0  0
  7  8  1  0  0  0  0
  8  9  1  0  0  0  0
  8 10  1  0  0  0  0
 11 13  2  0  0  0  0
 11 24  1  0  0  0  0
 12 34  1  0  0  0  0
 13 15  1  0  0  0  0
 14 34  1  0  0  0  0
 15 16  1  0  0  0  0
 16 17  1  0  0  0  0
 16 18  2  0  0  0  0
 17 20  1  0  0  0  0
 17 24  2  0  0  0  0
 19 21  1  0  0  0  0
 19 20  1  0  0  0  0
 20 22  1  0  0  0  0
 22 23  1  0  0  0  0
 22 26  1  1  0  0  0
 23 25  1  0  0  0  0
 24 25  1  0  0  0  0
 26 27  1  0  0  0  0
 27 31  1  0  0  0  0
 28 29  2  0  0  0  0
 28 33  1  0  0  0  0
 29 30  1  0  0  0  0
 30 31  2  0  0  0  0
 31 32  1  0  0  0  0
 32 33  2  0  0  0  0
M  END
>  <CHROM.1>
-65.62089171,-60.80118149,11.10457009,68.52973290,62.46828833,-90.61307558
-75.40428186,156.05704752,150.05866322,9.94346727,7.65224758,42.48906919
72.16209340,1.05659183,1.35079873,-2.47627046

>  <Name>
ligand

>  <RI>
0

>  <Rbt.Current_Directory>
/home/itssahil/PROJECTS/Mol_Feturizer/New_Systems/rnas/3SUH

>  <Rbt.Executable>
rbdock ($Id: //depot/dev/client3/rdock/2013.1/src/exe/rbdock.cxx#4 $)

>  <Rbt.Library>
libRbt.so (2013.1, Build901 2013/11/27)

>  <Rbt.Parameter_File>
/export/apps/rDock/src/rDock_2013.1_src/data/scripts/dock_solv.prm

>  <Rbt.Receptor>
prm/pocket_docking_8.prm

>  <SCORE>
-12.423

>  <SCORE.INTER>
-9.00625

>  <SCORE.INTER.CONST>
1

>  <SCORE.INTER.POLAR>
0

>  <SCORE.INTER.ROT>
10

>  <SCORE.INTER.SOLV>
8.51133

>  <SCORE.INTER.VDW>
-19.1079

>  <SCORE.INTER.norm>
-0.26489

>  <SCORE.INTRA>
-3.41674

>  <SCORE.INTRA.DIHEDRAL>
-4.59415

>  <SCORE.INTRA.DIHEDRAL.0>
12.2703

>  <SCORE.INTRA.POLAR>
0

>  <SCORE.INTRA.POLAR.0>
0

>  <SCORE.INTRA.REPUL>
0

>  <SCORE.INTRA.REPUL.0>
0

>  <SCORE.INTRA.SOLV>
0.466486

>  <SCORE.INTRA.SOLV.lig_0>
-64.3214

>  <SCORE.INTRA.VDW>
-1.3529

>  <SCORE.INTRA.VDW.0>
-1.67301

>  <SCORE.INTRA.norm>
-0.100492

>  <SCORE.RESTR>
0

>  <SCORE.RESTR.CAVITY>
0

>  <SCORE.RESTR.norm>
0

>  <SCORE.SYSTEM>
0

>  <SCORE.SYSTEM.CONST>
0

>  <SCORE.SYSTEM.DIHEDRAL>
0

>  <SCORE.SYSTEM.SOLV>
0

>  <SCORE.SYSTEM.norm>
0

>  <SCORE.heavy>
34

>  <SCORE.norm>
-0.365382

>  <RMSD>
7.644

$$$$
ligand
 OpenBabel11021811483D
libRbt.so/2013.1/901 2013/11/27
 34 36  0  0  0  0  0  0  0  0999 V2000
    8.9091   43.3676   69.8244 N   0  0  0  0  0  0  0  0  0  0  0  0
    7.8184   44.3137   69.4928 C   0  0  1  0  0  0  0  0  0  0  0  0
    9.7525   42.8535   68.9197 C   0  0  0  0  0  0  0  0  0  0  0  0
    9.7158   43.1070   67.7124 O   0  0  0  0  0  0  0  0  0  0  0  0
    9.5011   42.5896   75.8043 N   0  0  0  0  0  0  0  0  0  0  0  0
    6.6885   44.1887   70.5287 C   0  0  0  0  0  0  0  0  0  0  0  0
    7.2085   44.3893   71.9586 C   0  0  0  0  0  0  0  0  0  0  0  0
    6.1131   44.0956   72.9951 C   0  0  0  0  0  0  0  0  0  0  0  0
    6.1013   42.9513   73.5064 O   0  0  0  0  0  0  0  0  0  0  0  0
    5.3129   45.0233   73.2553 O   0  0  0  0  0  0  0  0  0  0  0  0
   11.0814   40.9251   75.5036 N   0  0  0  0  0  0  0  0  0  0  0  0
    7.5353   46.6355   68.9665 O   0  0  0  0  0  0  0  0  0  0  0  0
   10.0343   41.6341   75.0472 C   0  0  0  0  0  0  0  0  0  0  0  0
    9.4762   45.9898   69.8636 O   0  0  0  0  0  0  0  0  0  0  0  0
    9.4955   41.3788   73.7799 N   0  0  0  0  0  0  0  0  0  0  0  0
   10.0631   40.3828   72.9968 C   0  0  0  0  0  0  0  0  0  0  0  0
   11.1639   39.6910   73.4850 C   0  0  0  0  0  0  0  0  0  0  0  0
    9.6147   40.1473   71.8776 O   0  0  0  0  0  0  0  0  0  0  0  0
   10.9339   37.8821   72.0095 C   0  0  0  0  0  0  0  0  0  0  0  0
   11.7221   38.6400   72.7659 N   0  0  0  0  0  0  0  0  0  0  0  0
   10.1313   37.1077   72.5258 O   0  0  0  0  0  0  0  0  0  0  0  0
   13.1190   38.2605   73.0041 C   0  0  2  0  0  0  0  0  0  0  0  0
   13.3372   38.1107   74.5119 C   0  0  0  0  0  0  0  0  0  0  0  0
   11.6422   39.9591   74.7604 C   0  0  0  0  0  0  0  0  0  0  0  0
   12.7237   39.2304   75.2677 N   0  0  0  0  0  0  0  0  0  0  0  0
   14.0678   39.3210   72.4350 C   0  0  0  0  0  0  0  0  0  0  0  0
   13.8187   39.4867   70.9977 N   0  0  0  0  0  0  0  0  0  0  0  0
   10.8382   41.9328   69.5056 C   0  0  0  0  0  0  0  0  0  0  0  0
   11.0320   40.6521   68.9935 C   0  0  0  0  0  0  0  0  0  0  0  0
   12.0515   39.8406   69.4873 C   0  0  0  0  0  0  0  0  0  0  0  0
   12.8592   40.2839   70.5291 C   0  0  0  0  0  0  0  0  0  0  0  0
   12.6613   41.5591   71.0477 C   0  0  0  0  0  0  0  0  0  0  0  0
   11.6646   42.3852   70.5303 C   0  0  0  0  0  0  0  0  0  0  0  0
    8.3162   45.7727   69.4359 C   0  0  0  0  0  0  0  0  0  0  0  0
  1  3  1  0  0  0  0
  2  1  1  1  0  0  0
  2  6  1  0  0  0  0
  2 34  1  0  0  0  0
  3  4  2  0  0  0  0
  3 28  1  0  0  0  0
  5 13  1  0  0  0  0
  6  7  1  0  0  0  0
  7  8  1  0  0  0  0
  8  9  1  0  0  0  0
  8 10  1  0  0  0  0
 11 13  2  0  0  0  0
 11 24  1  0  0  0  0
 12 34  1  0  0  0  0
 13 15  1  0  0  0  0
 14 34  1  0  0  0  0
 15 16  1  0  0  0  0
 16 17  1  0  0  0  0
 16 18  2  0  0  0  0
 17 20  1  0  0  0  0
 17 24  2  0  0  0  0
 19 21  1  0  0  0  0
 19 20  1  0  0  0  0
 20 22  1  0  0  0  0
 22 23  1  0  0  0  0
 22 26  1  1  0  0  0
 23 25  1  0  0  0  0
 24 25  1  0  0  0  0
 26 27  1  0  0  0  0
 27 31  1  0  0  0  0
 28 29  2  0  0  0  0
 28 33  1  0  0  0  0
 29 30  1  0  0  0  0
 30 31  2  0  0  0  0
 31 32  1  0  0  0  0
 32 33  2  0  0  0  0
M  END
>  <CHROM.1>
153.27181373,55.22454492,169.33282803,-173.11491397,96.39062576,-70.57552127
-57.98127317,84.15827925,-136.44079145,127.54661821,10.10756639,41.63276623
71.87022067,-2.49314927,-0.72263868,2.00466346

>  <Name>
ligand

>  <RI>
0

>  <Rbt.Current_Directory>
/home/itssahil/PROJECTS/Mol_Feturizer/New_Systems/rnas/3SUH

>  <Rbt.Executable>
rbdock ($Id: //depot/dev/client3/rdock/2013.1/src/exe/rbdock.cxx#4 $)

>  <Rbt.Library>
libRbt.so (2013.1, Build901 2013/11/27)

>  <Rbt.Parameter_File>
/export/apps/rDock/src/rDock_2013.1_src/data/scripts/dock_solv.prm

>  <Rbt.Receptor>
prm/pocket_docking_8.prm

>  <SCORE>
-11.2568

>  <SCORE.INTER>
-4.50384

>  <SCORE.INTER.CONST>
1

>  <SCORE.INTER.POLAR>
0

>  <SCORE.INTER.ROT>
10

>  <SCORE.INTER.SOLV>
8.50028

>  <SCORE.INTER.VDW>
-16.1026

>  <SCORE.INTER.norm>
-0.132466

>  <SCORE.INTRA>
-6.75296

>  <SCORE.INTRA.DIHEDRAL>
-4.85626

>  <SCORE.INTRA.DIHEDRAL.0>
12.2703

>  <SCORE.INTRA.POLAR>
0

>  <SCORE.INTRA.POLAR.0>
0

>  <SCORE.INTRA.REPUL>
0

>  <SCORE.INTRA.REPUL.0>
0

>  <SCORE.INTRA.SOLV>
0.351699

>  <SCORE.INTRA.SOLV.lig_0>
-64.3214

>  <SCORE.INTRA.VDW>
-4.50068

>  <SCORE.INTRA.VDW.0>
-1.67301

>  <SCORE.INTRA.norm>
-0.198617

>  <SCORE.RESTR>
0

>  <SCORE.RESTR.CAVITY>
0

>  <SCORE.RESTR.norm>
0

>  <SCORE.SYSTEM>
0

>  <SCORE.SYSTEM.CONST>
0

>  <SCORE.SYSTEM.DIHEDRAL>
0

>  <SCORE.SYSTEM.SOLV>
0

>  <SCORE.SYSTEM.norm>
0

>  <SCORE.heavy>
34

>  <SCORE.norm>
-0.331082

>  <RMSD>
8.000

$$$$
ligand
 OpenBabel11021811483D
libRbt.so/2013.1/901 2013/11/27
 34 36  0  0  0  0  0  0  0  0999 V2000
    5.6441   45.8820   72.2659 N   0  0  0  0  0  0  0  0  0  0  0  0
    5.2377   47.2961   72.4393 C   0  0  1  0  0  0  0  0  0  0  0  0
    6.2591   45.4104   71.1735 C   0  0  0  0  0  0  0  0  0  0  0  0
    6.5541   46.0967   70.1910 O   0  0  0  0  0  0  0  0  0  0  0  0
    3.5228   37.8142   74.4695 N   0  0  0  0  0  0  0  0  0  0  0  0
    4.4067   47.4445   73.7249 C   0  0  0  0  0  0  0  0  0  0  0  0
    3.0597   46.7174   73.6139 C   0  0  0  0  0  0  0  0  0  0  0  0
    2.2272   46.8903   74.8934 C   0  0  0  0  0  0  0  0  0  0  0  0
    1.1608   47.5422   74.7984 O   0  0  0  0  0  0  0  0  0  0  0  0
    2.6744   46.3644   75.9385 O   0  0  0  0  0  0  0  0  0  0  0  0
    5.7876   38.0590   74.0583 N   0  0  0  0  0  0  0  0  0  0  0  0
    6.2813   49.4303   72.1172 O   0  0  0  0  0  0  0  0  0  0  0  0
    4.5742   37.6244   73.6763 C   0  0  0  0  0  0  0  0  0  0  0  0
    7.5336   47.7552   72.9013 O   0  0  0  0  0  0  0  0  0  0  0  0
    4.4018   36.9719   72.4490 N   0  0  0  0  0  0  0  0  0  0  0  0
    5.5051   36.7838   71.6275 C   0  0  0  0  0  0  0  0  0  0  0  0
    6.7383   37.2733   72.0375 C   0  0  0  0  0  0  0  0  0  0  0  0
    5.3774   36.2233   70.5418 O   0  0  0  0  0  0  0  0  0  0  0  0
    7.9845   35.9229   70.5796 C   0  0  0  0  0  0  0  0  0  0  0  0
    7.8825   37.0482   71.2804 N   0  0  0  0  0  0  0  0  0  0  0  0
    7.7780   34.8352   71.1132 O   0  0  0  0  0  0  0  0  0  0  0  0
    9.0328   37.9479   71.4209 C   0  0  2  0  0  0  0  0  0  0  0  0
    9.3472   38.1145   72.9098 C   0  0  0  0  0  0  0  0  0  0  0  0
    6.8645   37.8858   73.2770 C   0  0  0  0  0  0  0  0  0  0  0  0
    8.1164   38.3387   73.7075 N   0  0  0  0  0  0  0  0  0  0  0  0
    8.7289   39.3104   70.7886 C   0  0  0  0  0  0  0  0  0  0  0  0
    7.5284   39.8857   71.4075 N   0  0  0  0  0  0  0  0  0  0  0  0
    6.6315   43.9182   71.2409 C   0  0  0  0  0  0  0  0  0  0  0  0
    6.4488   43.1956   72.4175 C   0  0  0  0  0  0  0  0  0  0  0  0
    6.7340   41.8324   72.4608 C   0  0  0  0  0  0  0  0  0  0  0  0
    7.2476   41.1867   71.3411 C   0  0  0  0  0  0  0  0  0  0  0  0
    7.4391   41.9087   70.1679 C   0  0  0  0  0  0  0  0  0  0  0  0
    7.1205   43.2649   70.1132 C   0  0  0  0  0  0  0  0  0  0  0  0
    6.4532   48.2446   72.4903 C   0  0  0  0  0  0  0  0  0  0  0  0
  1  3  1  0  0  0  0
  2  1  1  1  0  0  0
  2  6  1  0  0  0  0
  2 34  1  0  0  0  0
  3  4  2  0  0  0  0
  3 28  1  0  0  0  0
  5 13  1  0  0  0  0
  6  7  1  0  0  0  0
  7  8  1  0  0  0  0
  8  9  1  0  0  0  0
  8 10  1  0  0  0  0
 11 13  2  0  0  0  0
 11 24  1  0  0  0  0
 12 34  1  0  0  0  0
 13 15  1  0  0  0  0
 14 34  1  0  0  0  0
 15 16  1  0  0  0  0
 16 17  1  0  0  0  0
 16 18  2  0  0  0  0
 17 20  1  0  0  0  0
 17 24  2  0  0  0  0
 19 21  1  0  0  0  0
 19 20  1  0  0  0  0
 20 22  1  0  0  0  0
 22 23  1  0  0  0  0
 22 26  1  1  0  0  0
 23 25  1  0  0  0  0
 24 25  1  0  0  0  0
 26 27  1  0  0  0  0
 27 31  1  0  0  0  0
 28 29  2  0  0  0  0
 28 33  1  0  0  0  0
 29 30  1  0  0  0  0
 30 31  2  0  0  0  0
 31 32  1  0  0  0  0
 32 33  2  0  0  0  0
M  END
>  <CHROM.1>
172.91180241,-66.82410365,152.84199362,-179.07047808,114.24125302,-50.51559823
57.15735152,160.51363416,-139.62331771,-6.26537369,6.09538313,41.83152062
72.36436648,-1.83922174,-0.61520668,3.10532086

>  <Name>
ligand

>  <RI>
0

>  <Rbt.Current_Directory>
/home/itssahil/PROJECTS/Mol_Feturizer/New_Systems/rnas/3SUH

>  <Rbt.Executable>
rbdock ($Id: //depot/dev/client3/rdock/2013.1/src/exe/rbdock.cxx#4 $)

>  <Rbt.Library>
libRbt.so (2013.1, Build901 2013/11/27)

>  <Rbt.Parameter_File>
/export/apps/rDock/src/rDock_2013.1_src/data/scripts/dock_solv.prm

>  <Rbt.Receptor>
prm/pocket_docking_7.prm

>  <SCORE>
-10.5726

>  <SCORE.INTER>
-7.67547

>  <SCORE.INTER.CONST>
1

>  <SCORE.INTER.POLAR>
0

>  <SCORE.INTER.ROT>
10

>  <SCORE.INTER.SOLV>
15.0086

>  <SCORE.INTER.VDW>
-20.3865

>  <SCORE.INTER.norm>
-0.225749

>  <SCORE.INTRA>
-2.90949

>  <SCORE.INTRA.DIHEDRAL>
-5.19734

>  <SCORE.INTRA.DIHEDRAL.0>
12.2703

>  <SCORE.INTRA.POLAR>
0

>  <SCORE.INTRA.POLAR.0>
0

>  <SCORE.INTRA.REPUL>
0

>  <SCORE.INTRA.REPUL.0>
0

>  <SCORE.INTRA.SOLV>
2.02844

>  <SCORE.INTRA.SOLV.lig_0>
-64.3214

>  <SCORE.INTRA.VDW>
-1.32504

>  <SCORE.INTRA.VDW.0>
-1.67301

>  <SCORE.INTRA.norm>
-0.0855733

>  <SCORE.RESTR>
0.0123836

>  <SCORE.RESTR.CAVITY>
0.0123836

>  <SCORE.RESTR.norm>
0.000364224

>  <SCORE.SYSTEM>
0

>  <SCORE.SYSTEM.CONST>
0

>  <SCORE.SYSTEM.DIHEDRAL>
0

>  <SCORE.SYSTEM.SOLV>
0

>  <SCORE.SYSTEM.norm>
0

>  <SCORE.heavy>
34

>  <SCORE.norm>
-0.310958

>  <RMSD>
8.095

$$$$
ligand
 OpenBabel11021811483D
libRbt.so/2013.1/901 2013/11/27
 34 36  0  0  0  0  0  0  0  0999 V2000
    8.6747   41.9285   69.6657 N   0  0  0  0  0  0  0  0  0  0  0  0
    9.3029   40.6467   69.2694 C   0  0  1  0  0  0  0  0  0  0  0  0
    7.5672   42.0175   70.4137 C   0  0  0  0  0  0  0  0  0  0  0  0
    6.9461   41.0463   70.8542 O   0  0  0  0  0  0  0  0  0  0  0  0
    9.5065   44.4086   74.7528 N   0  0  0  0  0  0  0  0  0  0  0  0
   10.6406   40.9199   68.5616 C   0  0  0  0  0  0  0  0  0  0  0  0
   10.4459   41.7537   67.2879 C   0  0  0  0  0  0  0  0  0  0  0  0
   10.7212   43.2423   67.5501 C   0  0  0  0  0  0  0  0  0  0  0  0
    9.9100   43.8534   68.2846 O   0  0  0  0  0  0  0  0  0  0  0  0
   11.7388   43.7359   67.0120 O   0  0  0  0  0  0  0  0  0  0  0  0
    8.6241   46.4539   74.1232 N   0  0  0  0  0  0  0  0  0  0  0  0
   10.5370   39.9356   71.1979 O   0  0  0  0  0  0  0  0  0  0  0  0
    9.3170   45.3416   73.8233 C   0  0  0  0  0  0  0  0  0  0  0  0
    8.6914   38.8014   70.6537 O   0  0  0  0  0  0  0  0  0  0  0  0
    9.8439   45.1515   72.5395 N   0  0  0  0  0  0  0  0  0  0  0  0
    9.6356   46.1294   71.5763 C   0  0  0  0  0  0  0  0  0  0  0  0
    8.8883   47.2513   71.9098 C   0  0  0  0  0  0  0  0  0  0  0  0
   10.0791   45.9808   70.4404 O   0  0  0  0  0  0  0  0  0  0  0  0
    9.6804   48.5562   70.1287 C   0  0  0  0  0  0  0  0  0  0  0  0
    8.7121   48.2874   70.9994 N   0  0  0  0  0  0  0  0  0  0  0  0
    9.4107   48.9841   69.0087 O   0  0  0  0  0  0  0  0  0  0  0  0
    7.5627   49.1880   71.1403 C   0  0  2  0  0  0  0  0  0  0  0  0
    7.4937   49.6736   72.5905 C   0  0  0  0  0  0  0  0  0  0  0  0
    8.4134   47.4090   73.2048 C   0  0  0  0  0  0  0  0  0  0  0  0
    7.6984   48.5610   73.5506 N   0  0  0  0  0  0  0  0  0  0  0  0
    6.2652   48.4655   70.7621 C   0  0  0  0  0  0  0  0  0  0  0  0
    6.0449   47.3358   71.6733 N   0  0  0  0  0  0  0  0  0  0  0  0
    7.1288   43.4563   70.7418 C   0  0  0  0  0  0  0  0  0  0  0  0
    6.6124   43.7700   71.9967 C   0  0  0  0  0  0  0  0  0  0  0  0
    6.2681   45.0832   72.3107 C   0  0  0  0  0  0  0  0  0  0  0  0
    6.3941   46.0890   71.3584 C   0  0  0  0  0  0  0  0  0  0  0  0
    6.9013   45.7758   70.1017 C   0  0  0  0  0  0  0  0  0  0  0  0
    7.2794   44.4687   69.7984 C   0  0  0  0  0  0  0  0  0  0  0  0
    9.5320   39.7171   70.4790 C   0  0  0  0  0  0  0  0  0  0  0  0
  1  3  1  0  0  0  0
  2  1  1  1  0  0  0
  2  6  1  0  0  0  0
  2 34  1  0  0  0  0
  3  4  2  0  0  0  0
  3 28  1  0  0  0  0
  5 13  1  0  0  0  0
  6  7  1  0  0  0  0
  7  8  1  0  0  0  0
  8  9  1  0  0  0  0
  8 10  1  0  0  0  0
 11 13  2  0  0  0  0
 11 24  1  0  0  0  0
 12 34  1  0  0  0  0
 13 15  1  0  0  0  0
 14 34  1  0  0  0  0
 15 16  1  0  0  0  0
 16 17  1  0  0  0  0
 16 18  2  0  0  0  0
 17 20  1  0  0  0  0
 17 24  2  0  0  0  0
 19 21  1  0  0  0  0
 19 20  1  0  0  0  0
 20 22  1  0  0  0  0
 22 23  1  0  0  0  0
 22 26  1  1  0  0  0
 23 25  1  0  0  0  0
 24 25  1  0  0  0  0
 26 27  1  0  0  0  0
 27 31  1  0  0  0  0
 28 29  2  0  0  0  0
 28 33  1  0  0  0  0
 29 30  1  0  0  0  0
 30 31  2  0  0  0  0
 31 32  1  0  0  0  0
 32 33  2  0  0  0  0
M  END
>  <CHROM.1>
-173.28991165,-60.83510952,-80.33706991,97.70493435,-68.45764195,147.80199119
62.07174343,-97.05653276,174.30026837,-141.52897988,8.66431812,44.76925520
70.82380759,1.12920858,-1.05990450,3.07689918

>  <Name>
ligand

>  <RI>
0

>  <Rbt.Current_Directory>
/home/itssahil/PROJECTS/Mol_Feturizer/New_Systems/rnas/3SUH

>  <Rbt.Executable>
rbdock ($Id: //depot/dev/client3/rdock/2013.1/src/exe/rbdock.cxx#4 $)

>  <Rbt.Library>
libRbt.so (2013.1, Build901 2013/11/27)

>  <Rbt.Parameter_File>
/export/apps/rDock/src/rDock_2013.1_src/data/scripts/dock_solv.prm

>  <Rbt.Receptor>
prm/pocket_docking_8.prm

>  <SCORE>
-12.1333

>  <SCORE.INTER>
-9.32759

>  <SCORE.INTER.CONST>
1

>  <SCORE.INTER.POLAR>
0

>  <SCORE.INTER.ROT>
10

>  <SCORE.INTER.SOLV>
8.66538

>  <SCORE.INTER.VDW>
-19.3735

>  <SCORE.INTER.norm>
-0.274341

>  <SCORE.INTRA>
-2.80571

>  <SCORE.INTRA.DIHEDRAL>
-0.911175

>  <SCORE.INTRA.DIHEDRAL.0>
12.2703

>  <SCORE.INTRA.POLAR>
0

>  <SCORE.INTRA.POLAR.0>
0

>  <SCORE.INTRA.REPUL>
0

>  <SCORE.INTRA.REPUL.0>
0

>  <SCORE.INTRA.SOLV>
2.89383

>  <SCORE.INTRA.SOLV.lig_0>
-64.3214

>  <SCORE.INTRA.VDW>
-3.79703

>  <SCORE.INTRA.VDW.0>
-1.67301

>  <SCORE.INTRA.norm>
-0.0825208

>  <SCORE.RESTR>
0

>  <SCORE.RESTR.CAVITY>
0

>  <SCORE.RESTR.norm>
0

>  <SCORE.SYSTEM>
0

>  <SCORE.SYSTEM.CONST>
0

>  <SCORE.SYSTEM.DIHEDRAL>
0

>  <SCORE.SYSTEM.SOLV>
0

>  <SCORE.SYSTEM.norm>
0

>  <SCORE.heavy>
34

>  <SCORE.norm>
-0.356862

>  <RMSD>
8.272

$$$$
ligand
 OpenBabel11021811483D
libRbt.so/2013.1/901 2013/11/27
 34 36  0  0  0  0  0  0  0  0999 V2000
    7.7638   40.2217   71.9351 N   0  0  0  0  0  0  0  0  0  0  0  0
    7.9895   38.7832   72.2083 C   0  0  1  0  0  0  0  0  0  0  0  0
    7.8066   40.7651   70.7115 C   0  0  0  0  0  0  0  0  0  0  0  0
    8.0395   40.1323   69.6778 O   0  0  0  0  0  0  0  0  0  0  0  0
    0.8086   44.0232   74.7660 N   0  0  0  0  0  0  0  0  0  0  0  0
    6.6742   38.0069   72.0275 C   0  0  0  0  0  0  0  0  0  0  0  0
    5.7109   38.2473   73.1978 C   0  0  0  0  0  0  0  0  0  0  0  0
    4.5128   37.2875   73.1381 C   0  0  0  0  0  0  0  0  0  0  0  0
    3.3894   37.7890   72.8983 O   0  0  0  0  0  0  0  0  0  0  0  0
    4.7471   36.0724   73.3312 O   0  0  0  0  0  0  0  0  0  0  0  0
    1.8106   45.8067   73.6828 N   0  0  0  0  0  0  0  0  0  0  0  0
    8.9239   37.0040   70.9011 O   0  0  0  0  0  0  0  0  0  0  0  0
    1.9101   44.6714   74.3959 C   0  0  0  0  0  0  0  0  0  0  0  0
   10.0497   38.9298   71.0127 O   0  0  0  0  0  0  0  0  0  0  0  0
    3.1635   44.1601   74.7554 N   0  0  0  0  0  0  0  0  0  0  0  0
    4.3060   44.8423   74.3595 C   0  0  0  0  0  0  0  0  0  0  0  0
    4.1689   45.9945   73.5964 C   0  0  0  0  0  0  0  0  0  0  0  0
    5.4168   44.4082   74.6540 O   0  0  0  0  0  0  0  0  0  0  0  0
    6.3234   46.7985   74.0594 C   0  0  0  0  0  0  0  0  0  0  0  0
    5.2808   46.7475   73.2357 N   0  0  0  0  0  0  0  0  0  0  0  0
    7.4408   46.4641   73.6723 O   0  0  0  0  0  0  0  0  0  0  0  0
    5.2115   47.6257   72.0627 C   0  0  2  0  0  0  0  0  0  0  0  0
    3.9427   48.4767   72.1603 C   0  0  0  0  0  0  0  0  0  0  0  0
    2.9040   46.4788   73.2918 C   0  0  0  0  0  0  0  0  0  0  0  0
    2.7678   47.6639   72.5606 N   0  0  0  0  0  0  0  0  0  0  0  0
    5.1955   46.7982   70.7729 C   0  0  0  0  0  0  0  0  0  0  0  0
    6.5450   46.2922   70.4936 N   0  0  0  0  0  0  0  0  0  0  0  0
    7.4888   42.2707   70.6669 C   0  0  0  0  0  0  0  0  0  0  0  0
    7.7643   43.0186   69.5248 C   0  0  0  0  0  0  0  0  0  0  0  0
    7.4251   44.3689   69.4658 C   0  0  0  0  0  0  0  0  0  0  0  0
    6.8479   44.9964   70.5646 C   0  0  0  0  0  0  0  0  0  0  0  0
    6.5802   44.2530   71.7092 C   0  0  0  0  0  0  0  0  0  0  0  0
    6.8867   42.8938   71.7564 C   0  0  0  0  0  0  0  0  0  0  0  0
    9.0791   38.1854   71.2945 C   0  0  0  0  0  0  0  0  0  0  0  0
  1  3  1  0  0  0  0
  2  1  1  6  0  0  0
  2  6  1  0  0  0  0
  2 34  1  0  0  0  0
  3  4  2  0  0  0  0
  3 28  1  0  0  0  0
  5 13  1  0  0  0  0
  6  7  1  0  0  0  0
  7  8  1  0  0  0  0
  8  9  1  0  0  0  0
  8 10  1  0  0  0  0
 11 13  2  0  0  0  0
 11 24  1  0  0  0  0
 12 34  1  0  0  0  0
 13 15  1  0  0  0  0
 14 34  1  0  0  0  0
 15 16  1  0  0  0  0
 16 17  1  0  0  0  0
 16 18  2  0  0  0  0
 17 20  1  0  0  0  0
 17 24  2  0  0  0  0
 19 21  1  0  0  0  0
 19 20  1  0  0  0  0
 20 22  1  0  0  0  0
 22 23  1  0  0  0  0
 22 26  1  6  0  0  0
 23 25  1  0  0  0  0
 24 25  1  0  0  0  0
 26 27  1  0  0  0  0
 27 31  1  0  0  0  0
 28 29  2  0  0  0  0
 28 33  1  0  0  0  0
 29 30  1  0  0  0  0
 30 31  2  0  0  0  0
 31 32  1  0  0  0  0
 32 33  2  0  0  0  0
M  END
>  <CHROM.1>
-85.31107887,-74.65854938,-143.90697573,-170.02315875,-112.25001349,123.40035476
-75.85011064,111.98931838,125.25268460,166.56664862,5.74819176,42.86166479
72.33467998,-1.15269869,0.56909066,-0.08172342

>  <Name>
ligand

>  <RI>
0

>  <Rbt.Current_Directory>
/home/itssahil/PROJECTS/Mol_Feturizer/New_Systems/rnas/3SUH

>  <Rbt.Executable>
rbdock ($Id: //depot/dev/client3/rdock/2013.1/src/exe/rbdock.cxx#4 $)

>  <Rbt.Library>
libRbt.so (2013.1, Build901 2013/11/27)

>  <Rbt.Parameter_File>
/export/apps/rDock/src/rDock_2013.1_src/data/scripts/dock_solv.prm

>  <Rbt.Receptor>
prm/pocket_docking_6.prm

>  <SCORE>
-10.2442

>  <SCORE.INTER>
-8.0585

>  <SCORE.INTER.CONST>
1

>  <SCORE.INTER.POLAR>
0

>  <SCORE.INTER.ROT>
10

>  <SCORE.INTER.SOLV>
9.40669

>  <SCORE.INTER.VDW>
-18.7746

>  <SCORE.INTER.norm>
-0.237015

>  <SCORE.INTRA>
-2.18747

>  <SCORE.INTRA.DIHEDRAL>
-2.20389

>  <SCORE.INTRA.DIHEDRAL.0>
12.2703

>  <SCORE.INTRA.POLAR>
0

>  <SCORE.INTRA.POLAR.0>
0

>  <SCORE.INTRA.REPUL>
0

>  <SCORE.INTRA.REPUL.0>
0

>  <SCORE.INTRA.SOLV>
0.716029

>  <SCORE.INTRA.SOLV.lig_0>
-64.3214

>  <SCORE.INTRA.VDW>
-1.44354

>  <SCORE.INTRA.VDW.0>
-1.67301

>  <SCORE.INTRA.norm>
-0.0643373

>  <SCORE.RESTR>
0.00173008

>  <SCORE.RESTR.CAVITY>
0.00173008

>  <SCORE.RESTR.norm>
5.08847e-05

>  <SCORE.SYSTEM>
0

>  <SCORE.SYSTEM.CONST>
0

>  <SCORE.SYSTEM.DIHEDRAL>
0

>  <SCORE.SYSTEM.SOLV>
0

>  <SCORE.SYSTEM.norm>
0

>  <SCORE.heavy>
34

>  <SCORE.norm>
-0.301301

>  <RMSD>
8.291

$$$$
ligand
 OpenBabel11021811483D
libRbt.so/2013.1/901 2013/11/27
 34 36  0  0  0  0  0  0  0  0999 V2000
    6.1500   46.1302   70.9111 N   0  0  0  0  0  0  0  0  0  0  0  0
    5.6707   47.5083   71.1679 C   0  0  1  0  0  0  0  0  0  0  0  0
    6.1386   45.1529   71.8269 C   0  0  0  0  0  0  0  0  0  0  0  0
    5.7311   45.2892   72.9839 O   0  0  0  0  0  0  0  0  0  0  0  0
    9.3478   39.8891   77.2466 N   0  0  0  0  0  0  0  0  0  0  0  0
    6.5227   48.5119   70.3728 C   0  0  0  0  0  0  0  0  0  0  0  0
    8.0029   48.4365   70.7711 C   0  0  0  0  0  0  0  0  0  0  0  0
    8.8307   49.5046   70.0402 C   0  0  0  0  0  0  0  0  0  0  0  0
    9.5359   49.1219   69.0772 O   0  0  0  0  0  0  0  0  0  0  0  0
    8.7380   50.6813   70.4591 O   0  0  0  0  0  0  0  0  0  0  0  0
    9.5833   38.7781   75.2295 N   0  0  0  0  0  0  0  0  0  0  0  0
    3.5855   48.6885   71.2503 O   0  0  0  0  0  0  0  0  0  0  0  0
    8.8624   39.5596   76.0523 C   0  0  0  0  0  0  0  0  0  0  0  0
    3.6734   46.7900   70.0770 O   0  0  0  0  0  0  0  0  0  0  0  0
    7.6022   40.0335   75.6666 N   0  0  0  0  0  0  0  0  0  0  0  0
    7.1081   39.6873   74.4161 C   0  0  0  0  0  0  0  0  0  0  0  0
    7.8918   38.9051   73.5781 C   0  0  0  0  0  0  0  0  0  0  0  0
    6.0097   40.0991   74.0512 O   0  0  0  0  0  0  0  0  0  0  0  0
    6.1107   38.2343   72.2070 C   0  0  0  0  0  0  0  0  0  0  0  0
    7.4106   38.4770   72.3458 N   0  0  0  0  0  0  0  0  0  0  0  0
    5.6916   37.0794   72.1781 O   0  0  0  0  0  0  0  0  0  0  0  0
    8.3566   38.1099   71.2864 C   0  0  2  0  0  0  0  0  0  0  0  0
    9.3964   37.1484   71.8676 C   0  0  0  0  0  0  0  0  0  0  0  0
    9.1214   38.4338   74.0179 C   0  0  0  0  0  0  0  0  0  0  0  0
    9.8899   37.6092   73.1889 N   0  0  0  0  0  0  0  0  0  0  0  0
    9.0458   39.3587   70.7260 C   0  0  0  0  0  0  0  0  0  0  0  0
    8.0780   40.1573   69.9638 N   0  0  0  0  0  0  0  0  0  0  0  0
    6.6375   43.7892   71.3158 C   0  0  0  0  0  0  0  0  0  0  0  0
    7.1403   43.6585   70.0235 C   0  0  0  0  0  0  0  0  0  0  0  0
    7.6429   42.4364   69.5812 C   0  0  0  0  0  0  0  0  0  0  0  0
    7.6066   41.3208   70.4109 C   0  0  0  0  0  0  0  0  0  0  0  0
    7.0967   41.4473   71.6987 C   0  0  0  0  0  0  0  0  0  0  0  0
    6.6264   42.6781   72.1543 C   0  0  0  0  0  0  0  0  0  0  0  0
    4.1822   47.6803   70.8009 C   0  0  0  0  0  0  0  0  0  0  0  0
  1  3  1  0  0  0  0
  2  1  1  6  0  0  0
  2  6  1  0  0  0  0
  2 34  1  0  0  0  0
  3  4  2  0  0  0  0
  3 28  1  0  0  0  0
  5 13  1  0  0  0  0
  6  7  1  0  0  0  0
  7  8  1  0  0  0  0
  8  9  1  0  0  0  0
  8 10  1  0  0  0  0
 11 13  2  0  0  0  0
 11 24  1  0  0  0  0
 12 34  1  0  0  0  0
 13 15  1  0  0  0  0
 14 34  1  0  0  0  0
 15 16  1  0  0  0  0
 16 17  1  0  0  0  0
 16 18  2  0  0  0  0
 17 20  1  0  0  0  0
 17 24  2  0  0  0  0
 19 21  1  0  0  0  0
 19 20  1  0  0  0  0
 20 22  1  0  0  0  0
 22 23  1  0  0  0  0
 22 26  1  1  0  0  0
 23 25  1  0  0  0  0
 24 25  1  0  0  0  0
 26 27  1  0  0  0  0
 27 31  1  0  0  0  0
 28 29  2  0  0  0  0
 28 33  1  0  0  0  0
 29 30  1  0  0  0  0
 30 31  2  0  0  0  0
 31 32  1  0  0  0  0
 32 33  2  0  0  0  0
M  END
>  <CHROM.1>
145.75148510,-60.02284922,163.97958337,-176.25394567,-103.45645964,-103.92105765
-69.81936765,108.29396169,129.31601572,4.33759444,7.29112596,42.74151291
72.01519911,1.75974878,-0.64700753,-0.17431395

>  <Name>
ligand

>  <RI>
0

>  <Rbt.Current_Directory>
/home/itssahil/PROJECTS/Mol_Feturizer/New_Systems/rnas/3SUH

>  <Rbt.Executable>
rbdock ($Id: //depot/dev/client3/rdock/2013.1/src/exe/rbdock.cxx#4 $)

>  <Rbt.Library>
libRbt.so (2013.1, Build901 2013/11/27)

>  <Rbt.Parameter_File>
/export/apps/rDock/src/rDock_2013.1_src/data/scripts/dock_solv.prm

>  <Rbt.Receptor>
prm/pocket_docking_8.prm

>  <SCORE>
-13.1935

>  <SCORE.INTER>
-8.58433

>  <SCORE.INTER.CONST>
1

>  <SCORE.INTER.POLAR>
0

>  <SCORE.INTER.ROT>
10

>  <SCORE.INTER.SOLV>
10.8181

>  <SCORE.INTER.VDW>
-19.5956

>  <SCORE.INTER.norm>
-0.25248

>  <SCORE.INTRA>
-4.60916

>  <SCORE.INTRA.DIHEDRAL>
-3.80322

>  <SCORE.INTRA.DIHEDRAL.0>
12.2703

>  <SCORE.INTRA.POLAR>
0

>  <SCORE.INTRA.POLAR.0>
0

>  <SCORE.INTRA.REPUL>
0

>  <SCORE.INTRA.REPUL.0>
0

>  <SCORE.INTRA.SOLV>
-0.33044

>  <SCORE.INTRA.SOLV.lig_0>
-64.3214

>  <SCORE.INTRA.VDW>
-2.54233

>  <SCORE.INTRA.VDW.0>
-1.67301

>  <SCORE.INTRA.norm>
-0.135564

>  <SCORE.RESTR>
0

>  <SCORE.RESTR.CAVITY>
0

>  <SCORE.RESTR.norm>
0

>  <SCORE.SYSTEM>
0

>  <SCORE.SYSTEM.CONST>
0

>  <SCORE.SYSTEM.DIHEDRAL>
0

>  <SCORE.SYSTEM.SOLV>
0

>  <SCORE.SYSTEM.norm>
0

>  <SCORE.heavy>
34

>  <SCORE.norm>
-0.388044

>  <RMSD>
8.528

$$$$
ligand
 OpenBabel11021811483D
libRbt.so/2013.1/901 2013/11/27
 34 36  0  0  0  0  0  0  0  0999 V2000
    7.6482   41.4670   70.3709 N   0  0  0  0  0  0  0  0  0  0  0  0
    7.7464   42.7650   69.6636 C   0  0  1  0  0  0  0  0  0  0  0  0
    8.3928   40.3948   70.0708 C   0  0  0  0  0  0  0  0  0  0  0  0
    9.2402   40.3661   69.1740 O   0  0  0  0  0  0  0  0  0  0  0  0
   13.3374   39.4947   75.6944 N   0  0  0  0  0  0  0  0  0  0  0  0
    6.8753   43.8130   70.3763 C   0  0  0  0  0  0  0  0  0  0  0  0
    7.2342   43.9286   71.8640 C   0  0  0  0  0  0  0  0  0  0  0  0
    6.2550   44.8539   72.6023 C   0  0  0  0  0  0  0  0  0  0  0  0
    6.2454   46.0615   72.2665 O   0  0  0  0  0  0  0  0  0  0  0  0
    5.5352   44.3325   73.4848 O   0  0  0  0  0  0  0  0  0  0  0  0
   11.6498   38.0291   76.2964 N   0  0  0  0  0  0  0  0  0  0  0  0
    9.5613   43.8293   68.5141 O   0  0  0  0  0  0  0  0  0  0  0  0
   12.0701   39.1002   75.6010 C   0  0  0  0  0  0  0  0  0  0  0  0
    9.9272   43.0717   70.5831 O   0  0  0  0  0  0  0  0  0  0  0  0
   11.1874   39.8088   74.7761 N   0  0  0  0  0  0  0  0  0  0  0  0
    9.8686   39.3850   74.6827 C   0  0  0  0  0  0  0  0  0  0  0  0
    9.4750   38.2560   75.3890 C   0  0  0  0  0  0  0  0  0  0  0  0
    9.0781   39.9840   73.9579 O   0  0  0  0  0  0  0  0  0  0  0  0
    7.1828   38.7427   75.2828 C   0  0  0  0  0  0  0  0  0  0  0  0
    8.1497   37.8353   75.3801 N   0  0  0  0  0  0  0  0  0  0  0  0
    6.9271   39.4853   76.2281 O   0  0  0  0  0  0  0  0  0  0  0  0
    7.8325   36.4341   75.6769 C   0  0  2  0  0  0  0  0  0  0  0  0
    8.5608   36.0265   76.9603 C   0  0  0  0  0  0  0  0  0  0  0  0
   10.3791   37.6058   76.2180 C   0  0  0  0  0  0  0  0  0  0  0  0
    9.9687   36.4948   76.9631 N   0  0  0  0  0  0  0  0  0  0  0  0
    8.2600   35.5295   74.5160 C   0  0  0  0  0  0  0  0  0  0  0  0
    7.4602   35.8423   73.3254 N   0  0  0  0  0  0  0  0  0  0  0  0
    8.1525   39.1732   70.9762 C   0  0  0  0  0  0  0  0  0  0  0  0
    6.9091   38.9647   71.5682 C   0  0  0  0  0  0  0  0  0  0  0  0
    6.6766   37.8296   72.3421 C   0  0  0  0  0  0  0  0  0  0  0  0
    7.6983   36.9136   72.5695 C   0  0  0  0  0  0  0  0  0  0  0  0
    8.9431   37.1249   71.9865 C   0  0  0  0  0  0  0  0  0  0  0  0
    9.1663   38.2420   71.1828 C   0  0  0  0  0  0  0  0  0  0  0  0
    9.2025   43.2673   69.5771 C   0  0  0  0  0  0  0  0  0  0  0  0
  1  3  1  0  0  0  0
  2  1  1  1  0  0  0
  2  6  1  0  0  0  0
  2 34  1  0  0  0  0
  3  4  2  0  0  0  0
  3 28  1  0  0  0  0
  5 13  1  0  0  0  0
  6  7  1  0  0  0  0
  7  8  1  0  0  0  0
  8  9  1  0  0  0  0
  8 10  1  0  0  0  0
 11 13  2  0  0  0  0
 11 24  1  0  0  0  0
 12 34  1  0  0  0  0
 13 15  1  0  0  0  0
 14 34  1  0  0  0  0
 15 16  1  0  0  0  0
 16 17  1  0  0  0  0
 16 18  2  0  0  0  0
 17 20  1  0  0  0  0
 17 24  2  0  0  0  0
 19 21  1  0  0  0  0
 19 20  1  0  0  0  0
 20 22  1  0  0  0  0
 22 23  1  0  0  0  0
 22 26  1  6  0  0  0
 23 25  1  0  0  0  0
 24 25  1  0  0  0  0
 26 27  1  0  0  0  0
 27 31  1  0  0  0  0
 28 29  2  0  0  0  0
 28 33  1  0  0  0  0
 29 30  1  0  0  0  0
 30 31  2  0  0  0  0
 31 32  1  0  0  0  0
 32 33  2  0  0  0  0
M  END
>  <CHROM.1>
-173.13263544,54.68496787,141.41605967,-173.38464307,-64.72189476,-71.67154936
-65.36502384,77.31699826,-123.91175107,29.20851791,8.59339357,39.94579029
73.11542716,2.83095886,-1.35251709,0.59531585

>  <Name>
ligand

>  <RI>
0

>  <Rbt.Current_Directory>
/home/itssahil/PROJECTS/Mol_Feturizer/New_Systems/rnas/3SUH

>  <Rbt.Executable>
rbdock ($Id: //depot/dev/client3/rdock/2013.1/src/exe/rbdock.cxx#4 $)

>  <Rbt.Library>
libRbt.so (2013.1, Build901 2013/11/27)

>  <Rbt.Parameter_File>
/export/apps/rDock/src/rDock_2013.1_src/data/scripts/dock_solv.prm

>  <Rbt.Receptor>
prm/pocket_docking_7.prm

>  <SCORE>
-8.47987

>  <SCORE.INTER>
-2.36745

>  <SCORE.INTER.CONST>
1

>  <SCORE.INTER.POLAR>
0

>  <SCORE.INTER.ROT>
10

>  <SCORE.INTER.SOLV>
6.0027

>  <SCORE.INTER.VDW>
-13.8459

>  <SCORE.INTER.norm>
-0.0696309

>  <SCORE.INTRA>
-6.11243

>  <SCORE.INTRA.DIHEDRAL>
-5.4744

>  <SCORE.INTRA.DIHEDRAL.0>
12.2703

>  <SCORE.INTRA.POLAR>
0

>  <SCORE.INTRA.POLAR.0>
0

>  <SCORE.INTRA.REPUL>
0

>  <SCORE.INTRA.REPUL.0>
0

>  <SCORE.INTRA.SOLV>
0.370369

>  <SCORE.INTRA.SOLV.lig_0>
-64.3214

>  <SCORE.INTRA.VDW>
-3.56041

>  <SCORE.INTRA.VDW.0>
-1.67301

>  <SCORE.INTRA.norm>
-0.179777

>  <SCORE.RESTR>
0

>  <SCORE.RESTR.CAVITY>
0

>  <SCORE.RESTR.norm>
0

>  <SCORE.SYSTEM>
0

>  <SCORE.SYSTEM.CONST>
0

>  <SCORE.SYSTEM.DIHEDRAL>
0

>  <SCORE.SYSTEM.SOLV>
0

>  <SCORE.SYSTEM.norm>
0

>  <SCORE.heavy>
34

>  <SCORE.norm>
-0.249408

>  <RMSD>
8.543

$$$$
ligand
 OpenBabel11021811483D
libRbt.so/2013.1/901 2013/11/27
 34 36  0  0  0  0  0  0  0  0999 V2000
    8.4356   42.3102   69.6538 N   0  0  0  0  0  0  0  0  0  0  0  0
    8.8716   43.2939   68.6355 C   0  0  1  0  0  0  0  0  0  0  0  0
    8.2479   41.0081   69.4019 C   0  0  0  0  0  0  0  0  0  0  0  0
    8.4144   40.4827   68.2976 O   0  0  0  0  0  0  0  0  0  0  0  0
   13.2667   36.8714   71.3336 N   0  0  0  0  0  0  0  0  0  0  0  0
    9.0438   44.6760   69.2877 C   0  0  0  0  0  0  0  0  0  0  0  0
    7.6919   45.2892   69.6773 C   0  0  0  0  0  0  0  0  0  0  0  0
    7.8466   46.7614   70.0883 C   0  0  0  0  0  0  0  0  0  0  0  0
    8.0720   47.5897   69.1749 O   0  0  0  0  0  0  0  0  0  0  0  0
    7.7334   47.0267   71.3071 O   0  0  0  0  0  0  0  0  0  0  0  0
   11.8852   36.5088   73.1552 N   0  0  0  0  0  0  0  0  0  0  0  0
   11.1072   42.4293   68.6807 O   0  0  0  0  0  0  0  0  0  0  0  0
   12.2993   37.2924   72.1444 C   0  0  0  0  0  0  0  0  0  0  0  0
   10.2430   43.0066   66.7037 O   0  0  0  0  0  0  0  0  0  0  0  0
   11.7229   38.5513   71.9328 N   0  0  0  0  0  0  0  0  0  0  0  0
   10.7109   38.9780   72.7822 C   0  0  0  0  0  0  0  0  0  0  0  0
   10.2847   38.1310   73.7967 C   0  0  0  0  0  0  0  0  0  0  0  0
   10.1829   40.0738   72.6107 O   0  0  0  0  0  0  0  0  0  0  0  0
    9.2634   39.8257   75.0564 C   0  0  0  0  0  0  0  0  0  0  0  0
    9.3230   38.5427   74.7126 N   0  0  0  0  0  0  0  0  0  0  0  0
    8.1815   40.3578   75.2949 O   0  0  0  0  0  0  0  0  0  0  0  0
    8.5293   37.5391   75.4302 C   0  0  2  0  0  0  0  0  0  0  0  0
    9.4778   36.4912   76.0182 C   0  0  0  0  0  0  0  0  0  0  0  0
   10.9087   36.9052   73.9854 C   0  0  0  0  0  0  0  0  0  0  0  0
   10.5076   36.0722   75.0357 N   0  0  0  0  0  0  0  0  0  0  0  0
    7.5251   36.8722   74.4840 C   0  0  0  0  0  0  0  0  0  0  0  0
    6.6668   37.8949   73.8736 N   0  0  0  0  0  0  0  0  0  0  0  0
    7.8443   40.1693   70.6280 C   0  0  0  0  0  0  0  0  0  0  0  0
    7.0131   40.7044   71.6090 C   0  0  0  0  0  0  0  0  0  0  0  0
    6.6037   39.9258   72.6898 C   0  0  0  0  0  0  0  0  0  0  0  0
    7.0575   38.6181   72.8247 C   0  0  0  0  0  0  0  0  0  0  0  0
    7.8949   38.0850   71.8505 C   0  0  0  0  0  0  0  0  0  0  0  0
    8.2763   38.8517   70.7504 C   0  0  0  0  0  0  0  0  0  0  0  0
   10.1878   42.8718   67.9504 C   0  0  0  0  0  0  0  0  0  0  0  0
  1  3  1  0  0  0  0
  2  1  1  1  0  0  0
  2  6  1  0  0  0  0
  2 34  1  0  0  0  0
  3  4  2  0  0  0  0
  3 28  1  0  0  0  0
  5 13  1  0  0  0  0
  6  7  1  0  0  0  0
  7  8  1  0  0  0  0
  8  9  1  0  0  0  0
  8 10  1  0  0  0  0
 11 13  2  0  0  0  0
 11 24  1  0  0  0  0
 12 34  1  0  0  0  0
 13 15  1  0  0  0  0
 14 34  1  0  0  0  0
 15 16  1  0  0  0  0
 16 17  1  0  0  0  0
 16 18  2  0  0  0  0
 17 20  1  0  0  0  0
 17 24  2  0  0  0  0
 19 21  1  0  0  0  0
 19 20  1  0  0  0  0
 20 22  1  0  0  0  0
 22 23  1  0  0  0  0
 22 26  1  6  0  0  0
 23 25  1  0  0  0  0
 24 25  1  0  0  0  0
 26 27  1  0  0  0  0
 27 31  1  0  0  0  0
 28 29  2  0  0  0  0
 28 33  1  0  0  0  0
 29 30  1  0  0  0  0
 30 31  2  0  0  0  0
 31 32  1  0  0  0  0
 32 33  2  0  0  0  0
M  END
>  <CHROM.1>
-177.47901856,-70.44229149,-43.90443375,-169.65598934,72.84284466,145.16687537
-56.90600767,81.18348581,-147.89870605,35.92598092,9.17429239,40.39923680
71.75600156,-1.75529988,-0.77306351,2.42087875

>  <Name>
ligand

>  <RI>
0

>  <Rbt.Current_Directory>
/home/itssahil/PROJECTS/Mol_Feturizer/New_Systems/rnas/3SUH

>  <Rbt.Executable>
rbdock ($Id: //depot/dev/client3/rdock/2013.1/src/exe/rbdock.cxx#4 $)

>  <Rbt.Library>
libRbt.so (2013.1, Build901 2013/11/27)

>  <Rbt.Parameter_File>
/export/apps/rDock/src/rDock_2013.1_src/data/scripts/dock_solv.prm

>  <Rbt.Receptor>
prm/pocket_docking_7.prm

>  <SCORE>
-12.2183

>  <SCORE.INTER>
-6.21014

>  <SCORE.INTER.CONST>
1

>  <SCORE.INTER.POLAR>
0

>  <SCORE.INTER.ROT>
10

>  <SCORE.INTER.SOLV>
10.2417

>  <SCORE.INTER.VDW>
-17.8206

>  <SCORE.INTER.norm>
-0.182651

>  <SCORE.INTRA>
-6.00819

>  <SCORE.INTRA.DIHEDRAL>
-4.94848

>  <SCORE.INTRA.DIHEDRAL.0>
12.2703

>  <SCORE.INTRA.POLAR>
0

>  <SCORE.INTRA.POLAR.0>
0

>  <SCORE.INTRA.REPUL>
0

>  <SCORE.INTRA.REPUL.0>
0

>  <SCORE.INTRA.SOLV>
1.29544

>  <SCORE.INTRA.SOLV.lig_0>
-64.3214

>  <SCORE.INTRA.VDW>
-4.18168

>  <SCORE.INTRA.VDW.0>
-1.67301

>  <SCORE.INTRA.norm>
-0.176712

>  <SCORE.RESTR>
0

>  <SCORE.RESTR.CAVITY>
0

>  <SCORE.RESTR.norm>
0

>  <SCORE.SYSTEM>
0

>  <SCORE.SYSTEM.CONST>
0

>  <SCORE.SYSTEM.DIHEDRAL>
0

>  <SCORE.SYSTEM.SOLV>
0

>  <SCORE.SYSTEM.norm>
0

>  <SCORE.heavy>
34

>  <SCORE.norm>
-0.359363

>  <RMSD>
8.597

$$$$
ligand
 OpenBabel11021811483D
libRbt.so/2013.1/901 2013/11/27
 34 36  0  0  0  0  0  0  0  0999 V2000
    7.4081   42.2498   70.2545 N   0  0  0  0  0  0  0  0  0  0  0  0
    7.6492   43.4155   69.3725 C   0  0  1  0  0  0  0  0  0  0  0  0
    7.7965   41.0011   69.9647 C   0  0  0  0  0  0  0  0  0  0  0  0
    8.3951   40.6810   68.9339 O   0  0  0  0  0  0  0  0  0  0  0  0
   13.3127   35.4853   71.0502 N   0  0  0  0  0  0  0  0  0  0  0  0
    7.4282   44.7180   70.1598 C   0  0  0  0  0  0  0  0  0  0  0  0
    7.6201   45.9546   69.2714 C   0  0  0  0  0  0  0  0  0  0  0  0
    7.2723   47.2442   70.0304 C   0  0  0  0  0  0  0  0  0  0  0  0
    6.0572   47.4879   70.2175 O   0  0  0  0  0  0  0  0  0  0  0  0
    8.2300   47.9571   70.4092 O   0  0  0  0  0  0  0  0  0  0  0  0
   11.9446   35.2713   72.9052 N   0  0  0  0  0  0  0  0  0  0  0  0
    9.1866   43.1030   67.5596 O   0  0  0  0  0  0  0  0  0  0  0  0
   12.4202   36.0089   71.8867 C   0  0  0  0  0  0  0  0  0  0  0  0
   10.0132   43.6902   69.5497 O   0  0  0  0  0  0  0  0  0  0  0  0
   11.9861   37.3265   71.6941 N   0  0  0  0  0  0  0  0  0  0  0  0
   11.0509   37.8605   72.5703 C   0  0  0  0  0  0  0  0  0  0  0  0
   10.5562   37.0614   73.5925 C   0  0  0  0  0  0  0  0  0  0  0  0
   10.6473   39.0105   72.4160 O   0  0  0  0  0  0  0  0  0  0  0  0
    9.7666   38.8537   74.8835 C   0  0  0  0  0  0  0  0  0  0  0  0
    9.6708   37.5744   74.5340 N   0  0  0  0  0  0  0  0  0  0  0  0
    8.7573   39.5442   75.0046 O   0  0  0  0  0  0  0  0  0  0  0  0
    8.7859   36.6634   75.2682 C   0  0  2  0  0  0  0  0  0  0  0  0
    9.6229   35.5105   75.8284 C   0  0  0  0  0  0  0  0  0  0  0  0
   11.0407   35.7713   73.7613 C   0  0  0  0  0  0  0  0  0  0  0  0
   10.5734   34.9829   74.8186 N   0  0  0  0  0  0  0  0  0  0  0  0
    7.6889   36.1211   74.3456 C   0  0  0  0  0  0  0  0  0  0  0  0
    6.7338   37.1909   74.0317 N   0  0  0  0  0  0  0  0  0  0  0  0
    7.4822   39.9621   71.0562 C   0  0  0  0  0  0  0  0  0  0  0  0
    7.9902   38.6682   70.9690 C   0  0  0  0  0  0  0  0  0  0  0  0
    7.7510   37.7453   71.9852 C   0  0  0  0  0  0  0  0  0  0  0  0
    6.9636   38.0926   73.0778 C   0  0  0  0  0  0  0  0  0  0  0  0
    6.4481   39.3816   73.1622 C   0  0  0  0  0  0  0  0  0  0  0  0
    6.7164   40.3164   72.1633 C   0  0  0  0  0  0  0  0  0  0  0  0
    9.0705   43.4021   68.7727 C   0  0  0  0  0  0  0  0  0  0  0  0
  1  3  1  0  0  0  0
  2  1  1  1  0  0  0
  2  6  1  0  0  0  0
  2 34  1  0  0  0  0
  3  4  2  0  0  0  0
  3 28  1  0  0  0  0
  5 13  1  0  0  0  0
  6  7  1  0  0  0  0
  7  8  1  0  0  0  0
  8  9  1  0  0  0  0
  8 10  1  0  0  0  0
 11 13  2  0  0  0  0
 11 24  1  0  0  0  0
 12 34  1  0  0  0  0
 13 15  1  0  0  0  0
 14 34  1  0  0  0  0
 15 16  1  0  0  0  0
 16 17  1  0  0  0  0
 16 18  2  0  0  0  0
 17 20  1  0  0  0  0
 17 24  2  0  0  0  0
 19 21  1  0  0  0  0
 19 20  1  0  0  0  0
 20 22  1  0  0  0  0
 22 23  1  0  0  0  0
 22 26  1  6  0  0  0
 23 25  1  0  0  0  0
 24 25  1  0  0  0  0
 26 27  1  0  0  0  0
 27 31  1  0  0  0  0
 28 29  2  0  0  0  0
 28 33  1  0  0  0  0
 29 30  1  0  0  0  0
 30 31  2  0  0  0  0
 31 32  1  0  0  0  0
 32 33  2  0  0  0  0
M  END
>  <CHROM.1>
-164.66315949,-178.03078268,106.22288731,174.78770457,-74.88616696,136.93702516
-71.14931963,81.93426540,28.96740979,-171.16641875,8.95553242,39.98259215
71.89337648,1.88432735,0.64652244,-0.62470501

>  <Name>
ligand

>  <RI>
0

>  <Rbt.Current_Directory>
/home/itssahil/PROJECTS/Mol_Feturizer/New_Systems/rnas/3SUH

>  <Rbt.Executable>
rbdock ($Id: //depot/dev/client3/rdock/2013.1/src/exe/rbdock.cxx#4 $)

>  <Rbt.Library>
libRbt.so (2013.1, Build901 2013/11/27)

>  <Rbt.Parameter_File>
/export/apps/rDock/src/rDock_2013.1_src/data/scripts/dock_solv.prm

>  <Rbt.Receptor>
prm/pocket_docking_8.prm

>  <SCORE>
-12.9535

>  <SCORE.INTER>
-8.32856

>  <SCORE.INTER.CONST>
1

>  <SCORE.INTER.POLAR>
0

>  <SCORE.INTER.ROT>
10

>  <SCORE.INTER.SOLV>
11.7072

>  <SCORE.INTER.VDW>
-19.7214

>  <SCORE.INTER.norm>
-0.244958

>  <SCORE.INTRA>
-4.6249

>  <SCORE.INTRA.DIHEDRAL>
-4.90652

>  <SCORE.INTRA.DIHEDRAL.0>
12.2703

>  <SCORE.INTRA.POLAR>
0

>  <SCORE.INTRA.POLAR.0>
0

>  <SCORE.INTRA.REPUL>
0

>  <SCORE.INTRA.REPUL.0>
0

>  <SCORE.INTRA.SOLV>
0.673389

>  <SCORE.INTRA.SOLV.lig_0>
-64.3214

>  <SCORE.INTRA.VDW>
-2.50834

>  <SCORE.INTRA.VDW.0>
-1.67301

>  <SCORE.INTRA.norm>
-0.136027

>  <SCORE.RESTR>
0

>  <SCORE.RESTR.CAVITY>
0

>  <SCORE.RESTR.norm>
0

>  <SCORE.SYSTEM>
0

>  <SCORE.SYSTEM.CONST>
0

>  <SCORE.SYSTEM.DIHEDRAL>
0

>  <SCORE.SYSTEM.SOLV>
0

>  <SCORE.SYSTEM.norm>
0

>  <SCORE.heavy>
34

>  <SCORE.norm>
-0.380984

>  <RMSD>
8.635

$$$$
ligand
 OpenBabel11021811483D
libRbt.so/2013.1/901 2013/11/27
 34 36  0  0  0  0  0  0  0  0999 V2000
    9.3196   40.9328   70.4808 N   0  0  0  0  0  0  0  0  0  0  0  0
    9.8339   39.5450   70.5475 C   0  0  1  0  0  0  0  0  0  0  0  0
    8.4401   41.3600   69.5654 C   0  0  0  0  0  0  0  0  0  0  0  0
    7.9616   40.6498   68.6767 O   0  0  0  0  0  0  0  0  0  0  0  0
    6.5690   47.3415   77.0138 N   0  0  0  0  0  0  0  0  0  0  0  0
   11.1150   39.5054   71.3975 C   0  0  0  0  0  0  0  0  0  0  0  0
   12.2725   40.2415   70.7093 C   0  0  0  0  0  0  0  0  0  0  0  0
   12.0208   41.7564   70.6659 C   0  0  0  0  0  0  0  0  0  0  0  0
   11.7791   42.2643   69.5457 O   0  0  0  0  0  0  0  0  0  0  0  0
   12.0731   42.3732   71.7547 O   0  0  0  0  0  0  0  0  0  0  0  0
    5.4594   47.9208   75.0666 N   0  0  0  0  0  0  0  0  0  0  0  0
    9.0320   37.3410   71.0445 O   0  0  0  0  0  0  0  0  0  0  0  0
    6.6062   47.7261   75.7406 C   0  0  0  0  0  0  0  0  0  0  0  0
    7.7666   39.0806   71.6457 O   0  0  0  0  0  0  0  0  0  0  0  0
    7.8446   47.9236   75.1169 N   0  0  0  0  0  0  0  0  0  0  0  0
    7.8712   48.3201   73.7866 C   0  0  0  0  0  0  0  0  0  0  0  0
    6.6690   48.4812   73.1104 C   0  0  0  0  0  0  0  0  0  0  0  0
    8.9451   48.4899   73.2149 O   0  0  0  0  0  0  0  0  0  0  0  0
    7.5786   49.7995   71.3966 C   0  0  0  0  0  0  0  0  0  0  0  0
    6.6447   48.9429   71.7990 N   0  0  0  0  0  0  0  0  0  0  0  0
    8.1285   49.6559   70.3069 O   0  0  0  0  0  0  0  0  0  0  0  0
    5.4899   48.6412   70.9461 C   0  0  2  0  0  0  0  0  0  0  0  0
    4.2103   48.9949   71.7082 C   0  0  0  0  0  0  0  0  0  0  0  0
    5.4664   48.3039   73.7809 C   0  0  0  0  0  0  0  0  0  0  0  0
    4.2560   48.5098   73.1097 N   0  0  0  0  0  0  0  0  0  0  0  0
    5.4820   47.1586   70.5581 C   0  0  0  0  0  0  0  0  0  0  0  0
    6.8076   46.7710   70.0603 N   0  0  0  0  0  0  0  0  0  0  0  0
    8.0110   42.8298   69.7252 C   0  0  0  0  0  0  0  0  0  0  0  0
    8.7053   43.8448   69.0714 C   0  0  0  0  0  0  0  0  0  0  0  0
    8.2821   45.1686   69.1723 C   0  0  0  0  0  0  0  0  0  0  0  0
    7.1871   45.4972   69.9645 C   0  0  0  0  0  0  0  0  0  0  0  0
    6.4980   44.4858   70.6252 C   0  0  0  0  0  0  0  0  0  0  0  0
    6.8992   43.1569   70.4963 C   0  0  0  0  0  0  0  0  0  0  0  0
    8.7902   38.5693   71.1294 C   0  0  0  0  0  0  0  0  0  0  0  0
  1  3  1  0  0  0  0
  2  1  1  1  0  0  0
  2  6  1  0  0  0  0
  2 34  1  0  0  0  0
  3  4  2  0  0  0  0
  3 28  1  0  0  0  0
  5 13  1  0  0  0  0
  6  7  1  0  0  0  0
  7  8  1  0  0  0  0
  8  9  1  0  0  0  0
  8 10  1  0  0  0  0
 11 13  2  0  0  0  0
 11 24  1  0  0  0  0
 12 34  1  0  0  0  0
 13 15  1  0  0  0  0
 14 34  1  0  0  0  0
 15 16  1  0  0  0  0
 16 17  1  0  0  0  0
 16 18  2  0  0  0  0
 17 20  1  0  0  0  0
 17 24  2  0  0  0  0
 19 21  1  0  0  0  0
 19 20  1  0  0  0  0
 20 22  1  0  0  0  0
 22 23  1  0  0  0  0
 22 26  1  1  0  0  0
 23 25  1  0  0  0  0
 24 25  1  0  0  0  0
 26 27  1  0  0  0  0
 27 31  1  0  0  0  0
 28 29  2  0  0  0  0
 28 33  1  0  0  0  0
 29 30  1  0  0  0  0
 30 31  2  0  0  0  0
 31 32  1  0  0  0  0
 32 33  2  0  0  0  0
M  END
>  <CHROM.1>
162.32794346,-67.68807142,169.25960101,68.98150199,-110.04964686,136.12153290
-49.12707141,163.08565311,162.95192206,91.04043289,7.99413452,44.70739151
71.55464832,0.46430371,1.13994102,-1.78994849

>  <Name>
ligand

>  <RI>
0

>  <Rbt.Current_Directory>
/home/itssahil/PROJECTS/Mol_Feturizer/New_Systems/rnas/3SUH

>  <Rbt.Executable>
rbdock ($Id: //depot/dev/client3/rdock/2013.1/src/exe/rbdock.cxx#4 $)

>  <Rbt.Library>
libRbt.so (2013.1, Build901 2013/11/27)

>  <Rbt.Parameter_File>
/export/apps/rDock/src/rDock_2013.1_src/data/scripts/dock_solv.prm

>  <Rbt.Receptor>
prm/pocket_docking_8.prm

>  <SCORE>
-9.73926

>  <SCORE.INTER>
-5.91798

>  <SCORE.INTER.CONST>
1

>  <SCORE.INTER.POLAR>
0

>  <SCORE.INTER.ROT>
10

>  <SCORE.INTER.SOLV>
7.65742

>  <SCORE.INTER.VDW>
-16.7645

>  <SCORE.INTER.norm>
-0.174058

>  <SCORE.INTRA>
-3.82128

>  <SCORE.INTRA.DIHEDRAL>
-4.48191

>  <SCORE.INTRA.DIHEDRAL.0>
12.2703

>  <SCORE.INTRA.POLAR>
0

>  <SCORE.INTRA.POLAR.0>
0

>  <SCORE.INTRA.REPUL>
0

>  <SCORE.INTRA.REPUL.0>
0

>  <SCORE.INTRA.SOLV>
0.865076

>  <SCORE.INTRA.SOLV.lig_0>
-64.3214

>  <SCORE.INTRA.VDW>
-2.01286

>  <SCORE.INTRA.VDW.0>
-1.67301

>  <SCORE.INTRA.norm>
-0.112391

>  <SCORE.RESTR>
0

>  <SCORE.RESTR.CAVITY>
0

>  <SCORE.RESTR.norm>
0

>  <SCORE.SYSTEM>
0

>  <SCORE.SYSTEM.CONST>
0

>  <SCORE.SYSTEM.DIHEDRAL>
0

>  <SCORE.SYSTEM.SOLV>
0

>  <SCORE.SYSTEM.norm>
0

>  <SCORE.heavy>
34

>  <SCORE.norm>
-0.286449

>  <RMSD>
8.636

$$$$
ligand
 OpenBabel11021811483D
libRbt.so/2013.1/901 2013/11/27
 34 36  0  0  0  0  0  0  0  0999 V2000
    6.5342   45.5946   71.2408 N   0  0  0  0  0  0  0  0  0  0  0  0
    6.1318   46.9873   71.5465 C   0  0  1  0  0  0  0  0  0  0  0  0
    7.1301   45.2228   70.1003 C   0  0  0  0  0  0  0  0  0  0  0  0
    7.4088   45.9943   69.1781 O   0  0  0  0  0  0  0  0  0  0  0  0
   11.0717   35.1612   75.9682 N   0  0  0  0  0  0  0  0  0  0  0  0
    4.9350   47.3877   70.6675 C   0  0  0  0  0  0  0  0  0  0  0  0
    4.4226   48.7917   71.0163 C   0  0  0  0  0  0  0  0  0  0  0  0
    5.4647   49.8661   70.6697 C   0  0  0  0  0  0  0  0  0  0  0  0
    5.0387   51.0208   70.4326 O   0  0  0  0  0  0  0  0  0  0  0  0
    6.6652   49.5094   70.6520 O   0  0  0  0  0  0  0  0  0  0  0  0
    9.9562   35.5863   73.9850 N   0  0  0  0  0  0  0  0  0  0  0  0
    6.1311   48.2361   73.5930 O   0  0  0  0  0  0  0  0  0  0  0  0
   10.2318   35.9117   75.2599 C   0  0  0  0  0  0  0  0  0  0  0  0
    5.1435   46.2328   73.5835 O   0  0  0  0  0  0  0  0  0  0  0  0
    9.6439   37.0354   75.8543 N   0  0  0  0  0  0  0  0  0  0  0  0
    8.7729   37.8139   75.1040 C   0  0  0  0  0  0  0  0  0  0  0  0
    8.5347   37.4683   73.7803 C   0  0  0  0  0  0  0  0  0  0  0  0
    8.2527   38.8101   75.6001 O   0  0  0  0  0  0  0  0  0  0  0  0
    6.5532   38.7109   73.6025 C   0  0  0  0  0  0  0  0  0  0  0  0
    7.6183   38.1775   73.0118 N   0  0  0  0  0  0  0  0  0  0  0  0
    6.1923   39.8523   73.3244 O   0  0  0  0  0  0  0  0  0  0  0  0
    7.7301   38.1574   71.5492 C   0  0  2  0  0  0  0  0  0  0  0  0
    7.8720   36.7049   71.0871 C   0  0  0  0  0  0  0  0  0  0  0  0
    9.1171   36.3272   73.2454 C   0  0  0  0  0  0  0  0  0  0  0  0
    8.8409   35.9561   71.9249 N   0  0  0  0  0  0  0  0  0  0  0  0
    8.9406   38.9786   71.0921 C   0  0  0  0  0  0  0  0  0  0  0  0
    8.5921   39.7450   69.8895 N   0  0  0  0  0  0  0  0  0  0  0  0
    7.5025   43.7309   70.0281 C   0  0  0  0  0  0  0  0  0  0  0  0
    8.4167   43.2746   69.0815 C   0  0  0  0  0  0  0  0  0  0  0  0
    8.7947   41.9337   69.0535 C   0  0  0  0  0  0  0  0  0  0  0  0
    8.2288   41.0261   69.9425 C   0  0  0  0  0  0  0  0  0  0  0  0
    7.3091   41.4783   70.8826 C   0  0  0  0  0  0  0  0  0  0  0  0
    6.9569   42.8263   70.9346 C   0  0  0  0  0  0  0  0  0  0  0  0
    5.7715   47.1712   73.0352 C   0  0  0  0  0  0  0  0  0  0  0  0
  1  3  1  0  0  0  0
  2  1  1  1  0  0  0
  2  6  1  0  0  0  0
  2 34  1  0  0  0  0
  3  4  2  0  0  0  0
  3 28  1  0  0  0  0
  5 13  1  0  0  0  0
  6  7  1  0  0  0  0
  7  8  1  0  0  0  0
  8  9  1  0  0  0  0
  8 10  1  0  0  0  0
 11 13  2  0  0  0  0
 11 24  1  0  0  0  0
 12 34  1  0  0  0  0
 13 15  1  0  0  0  0
 14 34  1  0  0  0  0
 15 16  1  0  0  0  0
 16 17  1  0  0  0  0
 16 18  2  0  0  0  0
 17 20  1  0  0  0  0
 17 24  2  0  0  0  0
 19 21  1  0  0  0  0
 19 20  1  0  0  0  0
 20 22  1  0  0  0  0
 22 23  1  0  0  0  0
 22 26  1  1  0  0  0
 23 25  1  0  0  0  0
 24 25  1  0  0  0  0
 26 27  1  0  0  0  0
 27 31  1  0  0  0  0
 28 29  2  0  0  0  0
 28 33  1  0  0  0  0
 29 30  1  0  0  0  0
 30 31  2  0  0  0  0
 31 32  1  0  0  0  0
 32 33  2  0  0  0  0
M  END
>  <CHROM.1>
70.82114238,176.16504559,140.95189606,66.17536533,154.40401958,136.42000907
-139.79519484,97.80799658,133.34716041,-163.29788756,7.47620763,42.07664524
72.09116314,-2.59674375,-1.25330122,1.90602334

>  <Name>
ligand

>  <RI>
0

>  <Rbt.Current_Directory>
/home/itssahil/PROJECTS/Mol_Feturizer/New_Systems/rnas/3SUH

>  <Rbt.Executable>
rbdock ($Id: //depot/dev/client3/rdock/2013.1/src/exe/rbdock.cxx#4 $)

>  <Rbt.Library>
libRbt.so (2013.1, Build901 2013/11/27)

>  <Rbt.Parameter_File>
/export/apps/rDock/src/rDock_2013.1_src/data/scripts/dock_solv.prm

>  <Rbt.Receptor>
prm/pocket_docking_8.prm

>  <SCORE>
-8.47517

>  <SCORE.INTER>
-7.50152

>  <SCORE.INTER.CONST>
1

>  <SCORE.INTER.POLAR>
0

>  <SCORE.INTER.ROT>
10

>  <SCORE.INTER.SOLV>
13.0131

>  <SCORE.INTER.VDW>
-19.6054

>  <SCORE.INTER.norm>
-0.220633

>  <SCORE.INTRA>
-0.973648

>  <SCORE.INTRA.DIHEDRAL>
-0.824458

>  <SCORE.INTRA.DIHEDRAL.0>
12.2703

>  <SCORE.INTRA.POLAR>
0

>  <SCORE.INTRA.POLAR.0>
0

>  <SCORE.INTRA.REPUL>
0

>  <SCORE.INTRA.REPUL.0>
0

>  <SCORE.INTRA.SOLV>
-1.2087

>  <SCORE.INTRA.SOLV.lig_0>
-64.3214

>  <SCORE.INTRA.VDW>
0.0429322

>  <SCORE.INTRA.VDW.0>
-1.67301

>  <SCORE.INTRA.norm>
-0.0286367

>  <SCORE.RESTR>
0

>  <SCORE.RESTR.CAVITY>
0

>  <SCORE.RESTR.norm>
0

>  <SCORE.SYSTEM>
0

>  <SCORE.SYSTEM.CONST>
0

>  <SCORE.SYSTEM.DIHEDRAL>
0

>  <SCORE.SYSTEM.SOLV>
0

>  <SCORE.SYSTEM.norm>
0

>  <SCORE.heavy>
34

>  <SCORE.norm>
-0.24927

>  <RMSD>
8.637

$$$$
ligand
 OpenBabel11021811483D
libRbt.so/2013.1/901 2013/11/27
 34 36  0  0  0  0  0  0  0  0999 V2000
    7.0832   44.7770   70.2915 N   0  0  0  0  0  0  0  0  0  0  0  0
    7.1051   46.1826   69.8238 C   0  0  1  0  0  0  0  0  0  0  0  0
    7.6695   43.7641   69.6402 C   0  0  0  0  0  0  0  0  0  0  0  0
    8.2903   43.8857   68.5805 O   0  0  0  0  0  0  0  0  0  0  0  0
   12.1617   36.5698   71.9069 N   0  0  0  0  0  0  0  0  0  0  0  0
    6.2800   47.0615   70.7788 C   0  0  0  0  0  0  0  0  0  0  0  0
    4.7727   46.8759   70.5569 C   0  0  0  0  0  0  0  0  0  0  0  0
    3.9597   47.8663   71.4044 C   0  0  0  0  0  0  0  0  0  0  0  0
    3.5914   47.4808   72.5388 O   0  0  0  0  0  0  0  0  0  0  0  0
    3.7264   48.9888   70.9000 O   0  0  0  0  0  0  0  0  0  0  0  0
    9.9067   36.4321   71.4028 N   0  0  0  0  0  0  0  0  0  0  0  0
    9.4572   46.0835   70.2776 O   0  0  0  0  0  0  0  0  0  0  0  0
   10.8970   36.4815   72.3107 C   0  0  0  0  0  0  0  0  0  0  0  0
    8.6900   47.8018   69.0743 O   0  0  0  0  0  0  0  0  0  0  0  0
   10.6131   36.4413   73.6816 N   0  0  0  0  0  0  0  0  0  0  0  0
    9.2894   36.3541   74.0913 C   0  0  0  0  0  0  0  0  0  0  0  0
    8.2888   36.3373   73.1285 C   0  0  0  0  0  0  0  0  0  0  0  0
    9.0146   36.3277   75.2883 O   0  0  0  0  0  0  0  0  0  0  0  0
    6.6535   35.4468   74.5550 C   0  0  0  0  0  0  0  0  0  0  0  0
    6.9549   36.1818   73.4889 N   0  0  0  0  0  0  0  0  0  0  0  0
    5.8108   35.8340   75.3614 O   0  0  0  0  0  0  0  0  0  0  0  0
    5.9005   36.6562   72.5858 C   0  0  2  0  0  0  0  0  0  0  0  0
    6.1852   36.1278   71.1776 C   0  0  0  0  0  0  0  0  0  0  0  0
    8.6222   36.3477   71.7809 C   0  0  0  0  0  0  0  0  0  0  0  0
    7.6145   36.2860   70.8121 N   0  0  0  0  0  0  0  0  0  0  0  0
    5.8510   38.1879   72.5763 C   0  0  0  0  0  0  0  0  0  0  0  0
    7.1634   38.7223   72.1923 N   0  0  0  0  0  0  0  0  0  0  0  0
    7.5587   42.3994   70.3440 C   0  0  0  0  0  0  0  0  0  0  0  0
    6.8604   42.2759   71.5427 C   0  0  0  0  0  0  0  0  0  0  0  0
    6.7138   41.0302   72.1497 C   0  0  0  0  0  0  0  0  0  0  0  0
    7.3022   39.9020   71.5881 C   0  0  0  0  0  0  0  0  0  0  0  0
    8.0074   40.0250   70.3958 C   0  0  0  0  0  0  0  0  0  0  0  0
    8.1245   41.2649   69.7691 C   0  0  0  0  0  0  0  0  0  0  0  0
    8.5421   46.7336   69.7167 C   0  0  0  0  0  0  0  0  0  0  0  0
  1  3  1  0  0  0  0
  2  1  1  1  0  0  0
  2  6  1  0  0  0  0
  2 34  1  0  0  0  0
  3  4  2  0  0  0  0
  3 28  1  0  0  0  0
  5 13  1  0  0  0  0
  6  7  1  0  0  0  0
  7  8  1  0  0  0  0
  8  9  1  0  0  0  0
  8 10  1  0  0  0  0
 11 13  2  0  0  0  0
 11 24  1  0  0  0  0
 12 34  1  0  0  0  0
 13 15  1  0  0  0  0
 14 34  1  0  0  0  0
 15 16  1  0  0  0  0
 16 17  1  0  0  0  0
 16 18  2  0  0  0  0
 17 20  1  0  0  0  0
 17 24  2  0  0  0  0
 19 21  1  0  0  0  0
 19 20  1  0  0  0  0
 20 22  1  0  0  0  0
 22 23  1  0  0  0  0
 22 26  1  6  0  0  0
 23 25  1  0  0  0  0
 24 25  1  0  0  0  0
 26 27  1  0  0  0  0
 27 31  1  0  0  0  0
 28 29  2  0  0  0  0
 28 33  1  0  0  0  0
 29 30  1  0  0  0  0
 30 31  2  0  0  0  0
 31 32  1  0  0  0  0
 32 33  2  0  0  0  0
M  END
>  <CHROM.1>
177.36253162,-76.23986211,-14.56527451,-173.79131958,-92.05137442,136.45447350
56.90225386,152.23187338,52.28334576,1.70660256,7.45806083,40.94392866,71.65776410
-1.77826222,-0.44901018,2.80226489

>  <Name>
ligand

>  <RI>
0

>  <Rbt.Current_Directory>
/home/itssahil/PROJECTS/Mol_Feturizer/New_Systems/rnas/3SUH

>  <Rbt.Executable>
rbdock ($Id: //depot/dev/client3/rdock/2013.1/src/exe/rbdock.cxx#4 $)

>  <Rbt.Library>
libRbt.so (2013.1, Build901 2013/11/27)

>  <Rbt.Parameter_File>
/export/apps/rDock/src/rDock_2013.1_src/data/scripts/dock_solv.prm

>  <Rbt.Receptor>
prm/pocket_docking_7.prm

>  <SCORE>
-14.9464

>  <SCORE.INTER>
-12.3693

>  <SCORE.INTER.CONST>
1

>  <SCORE.INTER.POLAR>
0

>  <SCORE.INTER.ROT>
10

>  <SCORE.INTER.SOLV>
13.65

>  <SCORE.INTER.VDW>
-23.0629

>  <SCORE.INTER.norm>
-0.363803

>  <SCORE.INTRA>
-2.57709

>  <SCORE.INTRA.DIHEDRAL>
-4.2854

>  <SCORE.INTRA.DIHEDRAL.0>
12.2703

>  <SCORE.INTRA.POLAR>
0

>  <SCORE.INTRA.POLAR.0>
0

>  <SCORE.INTRA.REPUL>
0

>  <SCORE.INTRA.REPUL.0>
0

>  <SCORE.INTRA.SOLV>
2.08495

>  <SCORE.INTRA.SOLV.lig_0>
-64.3214

>  <SCORE.INTRA.VDW>
-1.47686

>  <SCORE.INTRA.VDW.0>
-1.67301

>  <SCORE.INTRA.norm>
-0.0757967

>  <SCORE.RESTR>
0

>  <SCORE.RESTR.CAVITY>
0

>  <SCORE.RESTR.norm>
0

>  <SCORE.SYSTEM>
0

>  <SCORE.SYSTEM.CONST>
0

>  <SCORE.SYSTEM.DIHEDRAL>
0

>  <SCORE.SYSTEM.SOLV>
0

>  <SCORE.SYSTEM.norm>
0

>  <SCORE.heavy>
34

>  <SCORE.norm>
-0.4396

>  <RMSD>
8.682

$$$$
ligand
 OpenBabel11021811483D
libRbt.so/2013.1/901 2013/11/27
 34 36  0  0  0  0  0  0  0  0999 V2000
    7.5299   45.7223   71.1653 N   0  0  0  0  0  0  0  0  0  0  0  0
    7.6969   47.1828   70.9812 C   0  0  1  0  0  0  0  0  0  0  0  0
    7.4434   44.8474   70.1548 C   0  0  0  0  0  0  0  0  0  0  0  0
    7.4909   45.1573   68.9611 O   0  0  0  0  0  0  0  0  0  0  0  0
    5.4710   41.8762   76.3580 N   0  0  0  0  0  0  0  0  0  0  0  0
    8.8597   47.4554   70.0122 C   0  0  0  0  0  0  0  0  0  0  0  0
   10.2036   47.0072   70.6023 C   0  0  0  0  0  0  0  0  0  0  0  0
   10.3193   45.4754   70.6222 C   0  0  0  0  0  0  0  0  0  0  0  0
   10.5220   44.9027   69.5258 O   0  0  0  0  0  0  0  0  0  0  0  0
   10.2050   44.9107   71.7343 O   0  0  0  0  0  0  0  0  0  0  0  0
    7.1635   40.9029   75.1144 N   0  0  0  0  0  0  0  0  0  0  0  0
    5.5382   47.1065   69.9409 O   0  0  0  0  0  0  0  0  0  0  0  0
    5.9576   40.8249   75.7036 C   0  0  0  0  0  0  0  0  0  0  0  0
    6.3304   49.0966   70.5739 O   0  0  0  0  0  0  0  0  0  0  0  0
    5.2039   39.6462   75.6367 N   0  0  0  0  0  0  0  0  0  0  0  0
    5.7196   38.5573   74.9469 C   0  0  0  0  0  0  0  0  0  0  0  0
    6.9538   38.6817   74.3226 C   0  0  0  0  0  0  0  0  0  0  0  0
    5.0729   37.5160   74.8657 O   0  0  0  0  0  0  0  0  0  0  0  0
    7.3232   36.3720   74.1473 C   0  0  0  0  0  0  0  0  0  0  0  0
    7.5403   37.5974   73.6794 N   0  0  0  0  0  0  0  0  0  0  0  0
    7.0349   35.4544   73.3822 O   0  0  0  0  0  0  0  0  0  0  0  0
    8.5389   37.8309   72.6304 C   0  0  2  0  0  0  0  0  0  0  0  0
    9.5786   38.8249   73.1542 C   0  0  0  0  0  0  0  0  0  0  0  0
    7.6771   39.8605   74.4438 C   0  0  0  0  0  0  0  0  0  0  0  0
    8.9400   39.9686   73.8512 N   0  0  0  0  0  0  0  0  0  0  0  0
    7.8705   38.3814   71.3660 C   0  0  0  0  0  0  0  0  0  0  0  0
    6.9042   39.4243   71.7319 N   0  0  0  0  0  0  0  0  0  0  0  0
    7.3254   43.3753   70.5894 C   0  0  0  0  0  0  0  0  0  0  0  0
    6.8302   43.0467   71.8490 C   0  0  0  0  0  0  0  0  0  0  0  0
    6.6718   41.7130   72.2200 C   0  0  0  0  0  0  0  0  0  0  0  0
    7.0492   40.6935   71.3524 C   0  0  0  0  0  0  0  0  0  0  0  0
    7.5523   41.0198   70.0976 C   0  0  0  0  0  0  0  0  0  0  0  0
    7.6777   42.3537   69.7120 C   0  0  0  0  0  0  0  0  0  0  0  0
    6.4097   47.8496   70.4535 C   0  0  0  0  0  0  0  0  0  0  0  0
  1  3  1  0  0  0  0
  2  1  1  6  0  0  0
  2  6  1  0  0  0  0
  2 34  1  0  0  0  0
  3  4  2  0  0  0  0
  3 28  1  0  0  0  0
  5 13  1  0  0  0  0
  6  7  1  0  0  0  0
  7  8  1  0  0  0  0
  8  9  1  0  0  0  0
  8 10  1  0  0  0  0
 11 13  2  0  0  0  0
 11 24  1  0  0  0  0
 12 34  1  0  0  0  0
 13 15  1  0  0  0  0
 14 34  1  0  0  0  0
 15 16  1  0  0  0  0
 16 17  1  0  0  0  0
 16 18  2  0  0  0  0
 17 20  1  0  0  0  0
 17 24  2  0  0  0  0
 19 21  1  0  0  0  0
 19 20  1  0  0  0  0
 20 22  1  0  0  0  0
 22 23  1  0  0  0  0
 22 26  1  6  0  0  0
 23 25  1  0  0  0  0
 24 25  1  0  0  0  0
 26 27  1  0  0  0  0
 27 31  1  0  0  0  0
 28 29  2  0  0  0  0
 28 33  1  0  0  0  0
 29 30  1  0  0  0  0
 30 31  2  0  0  0  0
 31 32  1  0  0  0  0
 32 33  2  0  0  0  0
M  END
>  <CHROM.1>
-50.28464027,-65.59582180,-17.22482365,72.45895031,74.14808169,134.14307663
44.30740242,116.07150180,-143.56601608,23.70268624,7.50125030,42.11139489
72.21594569,1.41057935,0.78466339,-0.30207857

>  <Name>
ligand

>  <RI>
0

>  <Rbt.Current_Directory>
/home/itssahil/PROJECTS/Mol_Feturizer/New_Systems/rnas/3SUH

>  <Rbt.Executable>
rbdock ($Id: //depot/dev/client3/rdock/2013.1/src/exe/rbdock.cxx#4 $)

>  <Rbt.Library>
libRbt.so (2013.1, Build901 2013/11/27)

>  <Rbt.Parameter_File>
/export/apps/rDock/src/rDock_2013.1_src/data/scripts/dock_solv.prm

>  <Rbt.Receptor>
prm/pocket_docking_7.prm

>  <SCORE>
-7.95255

>  <SCORE.INTER>
-5.47468

>  <SCORE.INTER.CONST>
1

>  <SCORE.INTER.POLAR>
0

>  <SCORE.INTER.ROT>
10

>  <SCORE.INTER.SOLV>
8.44092

>  <SCORE.INTER.VDW>
-16.7301

>  <SCORE.INTER.norm>
-0.16102

>  <SCORE.INTRA>
-2.47787

>  <SCORE.INTRA.DIHEDRAL>
-3.21182

>  <SCORE.INTRA.DIHEDRAL.0>
12.2703

>  <SCORE.INTRA.POLAR>
0

>  <SCORE.INTRA.POLAR.0>
0

>  <SCORE.INTRA.REPUL>
0

>  <SCORE.INTRA.REPUL.0>
0

>  <SCORE.INTRA.SOLV>
3.83235

>  <SCORE.INTRA.SOLV.lig_0>
-64.3214

>  <SCORE.INTRA.VDW>
-2.78813

>  <SCORE.INTRA.VDW.0>
-1.67301

>  <SCORE.INTRA.norm>
-0.0728785

>  <SCORE.RESTR>
0

>  <SCORE.RESTR.CAVITY>
0

>  <SCORE.RESTR.norm>
0

>  <SCORE.SYSTEM>
0

>  <SCORE.SYSTEM.CONST>
0

>  <SCORE.SYSTEM.DIHEDRAL>
0

>  <SCORE.SYSTEM.SOLV>
0

>  <SCORE.SYSTEM.norm>
0

>  <SCORE.heavy>
34

>  <SCORE.norm>
-0.233899

>  <RMSD>
8.715

$$$$
ligand
 OpenBabel11021811483D
libRbt.so/2013.1/901 2013/11/27
 34 36  0  0  0  0  0  0  0  0999 V2000
    8.9769   42.3278   69.4670 N   0  0  0  0  0  0  0  0  0  0  0  0
    9.3273   43.3987   68.5052 C   0  0  1  0  0  0  0  0  0  0  0  0
    8.2905   41.2252   69.1395 C   0  0  0  0  0  0  0  0  0  0  0  0
    7.8725   40.9781   68.0049 O   0  0  0  0  0  0  0  0  0  0  0  0
   10.9637   43.7356   75.2541 N   0  0  0  0  0  0  0  0  0  0  0  0
    9.4819   44.7358   69.2492 C   0  0  0  0  0  0  0  0  0  0  0  0
    8.1301   45.2651   69.7468 C   0  0  0  0  0  0  0  0  0  0  0  0
    7.5137   44.3218   70.7911 C   0  0  0  0  0  0  0  0  0  0  0  0
    6.6497   43.5082   70.3878 O   0  0  0  0  0  0  0  0  0  0  0  0
    7.9221   44.4334   71.9699 O   0  0  0  0  0  0  0  0  0  0  0  0
   10.1518   41.7282   76.0723 N   0  0  0  0  0  0  0  0  0  0  0  0
   11.6211   42.7104   68.3951 O   0  0  0  0  0  0  0  0  0  0  0  0
   10.0360   42.7818   75.2454 C   0  0  0  0  0  0  0  0  0  0  0  0
   10.5820   43.2152   66.4835 O   0  0  0  0  0  0  0  0  0  0  0  0
    8.9470   42.8886   74.3711 N   0  0  0  0  0  0  0  0  0  0  0  0
    7.9878   41.8849   74.3673 C   0  0  0  0  0  0  0  0  0  0  0  0
    8.1541   40.7945   75.2110 C   0  0  0  0  0  0  0  0  0  0  0  0
    7.0289   41.9510   73.6022 O   0  0  0  0  0  0  0  0  0  0  0  0
    5.9078   40.1254   75.1186 C   0  0  0  0  0  0  0  0  0  0  0  0
    7.1854   39.8002   75.2909 N   0  0  0  0  0  0  0  0  0  0  0  0
    5.3096   40.7769   75.9718 O   0  0  0  0  0  0  0  0  0  0  0  0
    7.5592   38.4604   75.7571 C   0  0  2  0  0  0  0  0  0  0  0  0
    8.3571   38.5971   77.0564 C   0  0  0  0  0  0  0  0  0  0  0  0
    9.2344   40.7493   76.0818 C   0  0  0  0  0  0  0  0  0  0  0  0
    9.3764   39.6713   76.9624 N   0  0  0  0  0  0  0  0  0  0  0  0
    8.3957   37.7369   74.6962 C   0  0  0  0  0  0  0  0  0  0  0  0
    7.6182   37.6073   73.4577 N   0  0  0  0  0  0  0  0  0  0  0  0
    8.0900   40.2277   70.2947 C   0  0  0  0  0  0  0  0  0  0  0  0
    9.0341   39.2345   70.5441 C   0  0  0  0  0  0  0  0  0  0  0  0
    8.8790   38.3676   71.6240 C   0  0  0  0  0  0  0  0  0  0  0  0
    7.7556   38.4557   72.4392 C   0  0  0  0  0  0  0  0  0  0  0  0
    6.8074   39.4412   72.1863 C   0  0  0  0  0  0  0  0  0  0  0  0
    6.9794   40.3317   71.1275 C   0  0  0  0  0  0  0  0  0  0  0  0
   10.6224   43.0788   67.7306 C   0  0  0  0  0  0  0  0  0  0  0  0
  1  3  1  0  0  0  0
  2  1  1  1  0  0  0
  2  6  1  0  0  0  0
  2 34  1  0  0  0  0
  3  4  2  0  0  0  0
  3 28  1  0  0  0  0
  5 13  1  0  0  0  0
  6  7  1  0  0  0  0
  7  8  1  0  0  0  0
  8  9  1  0  0  0  0
  8 10  1  0  0  0  0
 11 13  2  0  0  0  0
 11 24  1  0  0  0  0
 12 34  1  0  0  0  0
 13 15  1  0  0  0  0
 14 34  1  0  0  0  0
 15 16  1  0  0  0  0
 16 17  1  0  0  0  0
 16 18  2  0  0  0  0
 17 20  1  0  0  0  0
 17 24  2  0  0  0  0
 19 21  1  0  0  0  0
 19 20  1  0  0  0  0
 20 22  1  0  0  0  0
 22 23  1  0  0  0  0
 22 26  1  6  0  0  0
 23 25  1  0  0  0  0
 24 25  1  0  0  0  0
 26 27  1  0  0  0  0
 27 31  1  0  0  0  0
 28 29  2  0  0  0  0
 28 33  1  0  0  0  0
 29 30  1  0  0  0  0
 30 31  2  0  0  0  0
 31 32  1  0  0  0  0
 32 33  2  0  0  0  0
M  END
>  <CHROM.1>
153.13858467,-70.36399584,-48.79460065,64.09539961,-97.87836234,-70.82074307
-60.04819565,97.58165734,75.06292147,-88.84285275,8.42593114,41.37452822
72.39910480,0.95995684,-1.27106455,-1.71654401

>  <Name>
ligand

>  <RI>
0

>  <Rbt.Current_Directory>
/home/itssahil/PROJECTS/Mol_Feturizer/New_Systems/rnas/3SUH

>  <Rbt.Executable>
rbdock ($Id: //depot/dev/client3/rdock/2013.1/src/exe/rbdock.cxx#4 $)

>  <Rbt.Library>
libRbt.so (2013.1, Build901 2013/11/27)

>  <Rbt.Parameter_File>
/export/apps/rDock/src/rDock_2013.1_src/data/scripts/dock_solv.prm

>  <Rbt.Receptor>
prm/pocket_docking_6.prm

>  <SCORE>
-13.0163

>  <SCORE.INTER>
-6.11206

>  <SCORE.INTER.CONST>
1

>  <SCORE.INTER.POLAR>
0

>  <SCORE.INTER.ROT>
10

>  <SCORE.INTER.SOLV>
6.71207

>  <SCORE.INTER.VDW>
-16.5787

>  <SCORE.INTER.norm>
-0.179766

>  <SCORE.INTRA>
-6.90429

>  <SCORE.INTRA.DIHEDRAL>
-4.32445

>  <SCORE.INTRA.DIHEDRAL.0>
12.2703

>  <SCORE.INTRA.POLAR>
0

>  <SCORE.INTRA.POLAR.0>
0

>  <SCORE.INTRA.REPUL>
0

>  <SCORE.INTRA.REPUL.0>
0

>  <SCORE.INTRA.SOLV>
0.59089

>  <SCORE.INTRA.SOLV.lig_0>
-64.3214

>  <SCORE.INTRA.VDW>
-5.03751

>  <SCORE.INTRA.VDW.0>
-1.67301

>  <SCORE.INTRA.norm>
-0.203067

>  <SCORE.RESTR>
0

>  <SCORE.RESTR.CAVITY>
0

>  <SCORE.RESTR.norm>
0

>  <SCORE.SYSTEM>
0

>  <SCORE.SYSTEM.CONST>
0

>  <SCORE.SYSTEM.DIHEDRAL>
0

>  <SCORE.SYSTEM.SOLV>
0

>  <SCORE.SYSTEM.norm>
0

>  <SCORE.heavy>
34

>  <SCORE.norm>
-0.382834

>  <RMSD>
8.717

$$$$
ligand
 OpenBabel11021811483D
libRbt.so/2013.1/901 2013/11/27
 34 36  0  0  0  0  0  0  0  0999 V2000
    9.4122   41.5733   70.0646 N   0  0  0  0  0  0  0  0  0  0  0  0
    9.5361   40.0978   70.1130 C   0  0  1  0  0  0  0  0  0  0  0  0
    8.6186   42.2284   69.2072 C   0  0  0  0  0  0  0  0  0  0  0  0
    7.9050   41.6798   68.3629 O   0  0  0  0  0  0  0  0  0  0  0  0
    5.8557   46.1718   76.0943 N   0  0  0  0  0  0  0  0  0  0  0  0
   10.9364   39.7096   70.6166 C   0  0  0  0  0  0  0  0  0  0  0  0
   12.0374   40.2356   69.6858 C   0  0  0  0  0  0  0  0  0  0  0  0
   13.3406   39.4411   69.8612 C   0  0  0  0  0  0  0  0  0  0  0  0
   13.9046   39.5067   70.9787 O   0  0  0  0  0  0  0  0  0  0  0  0
   13.7430   38.7833   68.8743 O   0  0  0  0  0  0  0  0  0  0  0  0
    5.9853   47.8406   74.4954 N   0  0  0  0  0  0  0  0  0  0  0  0
    7.8393   40.2093   71.8030 O   0  0  0  0  0  0  0  0  0  0  0  0
    6.5610   46.8411   75.1860 C   0  0  0  0  0  0  0  0  0  0  0  0
    8.2871   38.2195   70.8925 O   0  0  0  0  0  0  0  0  0  0  0  0
    7.8990   46.4940   74.9606 N   0  0  0  0  0  0  0  0  0  0  0  0
    8.6237   47.1962   74.0069 C   0  0  0  0  0  0  0  0  0  0  0  0
    7.9898   48.2014   73.2886 C   0  0  0  0  0  0  0  0  0  0  0  0
    9.7958   46.9035   73.7840 O   0  0  0  0  0  0  0  0  0  0  0  0
    9.9776   49.2378   72.5980 C   0  0  0  0  0  0  0  0  0  0  0  0
    8.6935   48.9763   72.3733 N   0  0  0  0  0  0  0  0  0  0  0  0
   10.3129   49.9513   73.5408 O   0  0  0  0  0  0  0  0  0  0  0  0
    7.9711   49.6538   71.2910 C   0  0  2  0  0  0  0  0  0  0  0  0
    6.7796   50.4051   71.8905 C   0  0  0  0  0  0  0  0  0  0  0  0
    6.6706   48.5296   73.5703 C   0  0  0  0  0  0  0  0  0  0  0  0
    6.0472   49.5724   72.8762 N   0  0  0  0  0  0  0  0  0  0  0  0
    7.4869   48.6380   70.2507 C   0  0  0  0  0  0  0  0  0  0  0  0
    8.6309   47.8774   69.7329 N   0  0  0  0  0  0  0  0  0  0  0  0
    8.6147   43.7583   69.3779 C   0  0  0  0  0  0  0  0  0  0  0  0
    9.8074   44.4526   69.5657 C   0  0  0  0  0  0  0  0  0  0  0  0
    9.8077   45.8426   69.6642 C   0  0  0  0  0  0  0  0  0  0  0  0
    8.6108   46.5497   69.6214 C   0  0  0  0  0  0  0  0  0  0  0  0
    7.4179   45.8572   69.4428 C   0  0  0  0  0  0  0  0  0  0  0  0
    7.4201   44.4695   69.3084 C   0  0  0  0  0  0  0  0  0  0  0  0
    8.4603   39.4568   71.0139 C   0  0  0  0  0  0  0  0  0  0  0  0
  1  3  1  0  0  0  0
  2  1  1  1  0  0  0
  2  6  1  0  0  0  0
  2 34  1  0  0  0  0
  3  4  2  0  0  0  0
  3 28  1  0  0  0  0
  5 13  1  0  0  0  0
  6  7  1  0  0  0  0
  7  8  1  0  0  0  0
  8  9  1  0  0  0  0
  8 10  1  0  0  0  0
 11 13  2  0  0  0  0
 11 24  1  0  0  0  0
 12 34  1  0  0  0  0
 13 15  1  0  0  0  0
 14 34  1  0  0  0  0
 15 16  1  0  0  0  0
 16 17  1  0  0  0  0
 16 18  2  0  0  0  0
 17 20  1  0  0  0  0
 17 24  2  0  0  0  0
 19 21  1  0  0  0  0
 19 20  1  0  0  0  0
 20 22  1  0  0  0  0
 22 23  1  0  0  0  0
 22 26  1  6  0  0  0
 23 25  1  0  0  0  0
 24 25  1  0  0  0  0
 26 27  1  0  0  0  0
 27 31  1  0  0  0  0
 28 29  2  0  0  0  0
 28 33  1  0  0  0  0
 29 30  1  0  0  0  0
 30 31  2  0  0  0  0
 31 32  1  0  0  0  0
 32 33  2  0  0  0  0
M  END
>  <CHROM.1>
151.10860148,-60.89162659,-15.54966716,-158.61258885,-63.87464094,-67.29287196
-56.97647403,132.93463165,-153.80551337,44.16990720,8.90877212,44.76018674
71.44215357,1.06629192,-0.84279893,3.07729691

>  <Name>
ligand

>  <RI>
0

>  <Rbt.Current_Directory>
/home/itssahil/PROJECTS/Mol_Feturizer/New_Systems/rnas/3SUH

>  <Rbt.Executable>
rbdock ($Id: //depot/dev/client3/rdock/2013.1/src/exe/rbdock.cxx#4 $)

>  <Rbt.Library>
libRbt.so (2013.1, Build901 2013/11/27)

>  <Rbt.Parameter_File>
/export/apps/rDock/src/rDock_2013.1_src/data/scripts/dock_solv.prm

>  <Rbt.Receptor>
prm/pocket_docking_7.prm

>  <SCORE>
-9.46013

>  <SCORE.INTER>
-6.31895

>  <SCORE.INTER.CONST>
1

>  <SCORE.INTER.POLAR>
0

>  <SCORE.INTER.ROT>
10

>  <SCORE.INTER.SOLV>
7.84884

>  <SCORE.INTER.VDW>
-17.0956

>  <SCORE.INTER.norm>
-0.185851

>  <SCORE.INTRA>
-3.14118

>  <SCORE.INTRA.DIHEDRAL>
-2.71216

>  <SCORE.INTRA.DIHEDRAL.0>
12.2703

>  <SCORE.INTRA.POLAR>
0

>  <SCORE.INTRA.POLAR.0>
0

>  <SCORE.INTRA.REPUL>
0

>  <SCORE.INTRA.REPUL.0>
0

>  <SCORE.INTRA.SOLV>
-0.406346

>  <SCORE.INTRA.SOLV.lig_0>
-64.3214

>  <SCORE.INTRA.VDW>
-1.58193

>  <SCORE.INTRA.VDW.0>
-1.67301

>  <SCORE.INTRA.norm>
-0.0923878

>  <SCORE.RESTR>
0

>  <SCORE.RESTR.CAVITY>
0

>  <SCORE.RESTR.norm>
0

>  <SCORE.SYSTEM>
0

>  <SCORE.SYSTEM.CONST>
0

>  <SCORE.SYSTEM.DIHEDRAL>
0

>  <SCORE.SYSTEM.SOLV>
0

>  <SCORE.SYSTEM.norm>
0

>  <SCORE.heavy>
34

>  <SCORE.norm>
-0.278239

>  <RMSD>
8.723

$$$$
ligand
 OpenBabel11021811483D
libRbt.so/2013.1/901 2013/11/27
 34 36  0  0  0  0  0  0  0  0999 V2000
    5.3330   46.8395   70.9440 N   0  0  0  0  0  0  0  0  0  0  0  0
    4.6839   48.1685   70.8577 C   0  0  1  0  0  0  0  0  0  0  0  0
    6.3565   46.4568   70.1696 C   0  0  0  0  0  0  0  0  0  0  0  0
    6.8717   47.1637   69.2990 O   0  0  0  0  0  0  0  0  0  0  0  0
    2.3974   36.8064   73.8600 N   0  0  0  0  0  0  0  0  0  0  0  0
    3.4634   48.2129   71.7925 C   0  0  0  0  0  0  0  0  0  0  0  0
    3.8107   47.7075   73.1994 C   0  0  0  0  0  0  0  0  0  0  0  0
    4.7991   48.6513   73.9013 C   0  0  0  0  0  0  0  0  0  0  0  0
    5.9344   48.1934   74.1704 O   0  0  0  0  0  0  0  0  0  0  0  0
    4.3982   49.8113   74.1511 O   0  0  0  0  0  0  0  0  0  0  0  0
    4.4713   37.8345   73.8763 N   0  0  0  0  0  0  0  0  0  0  0  0
    6.8026   48.9947   71.6167 O   0  0  0  0  0  0  0  0  0  0  0  0
    3.5876   37.0023   73.2984 C   0  0  0  0  0  0  0  0  0  0  0  0
    5.2261   50.4822   71.0772 O   0  0  0  0  0  0  0  0  0  0  0  0
    3.9052   36.3364   72.1079 N   0  0  0  0  0  0  0  0  0  0  0  0
    5.1482   36.5523   71.5284 C   0  0  0  0  0  0  0  0  0  0  0  0
    6.0253   37.4426   72.1338 C   0  0  0  0  0  0  0  0  0  0  0  0
    5.4460   35.9876   70.4788 O   0  0  0  0  0  0  0  0  0  0  0  0
    7.9303   36.6237   71.0373 C   0  0  0  0  0  0  0  0  0  0  0  0
    7.3055   37.6380   71.6277 N   0  0  0  0  0  0  0  0  0  0  0  0
    8.5889   35.8259   71.7007 O   0  0  0  0  0  0  0  0  0  0  0  0
    8.0199   38.8842   71.9256 C   0  0  2  0  0  0  0  0  0  0  0  0
    7.9470   39.1443   73.4325 C   0  0  0  0  0  0  0  0  0  0  0  0
    5.6768   38.0547   73.3302 C   0  0  0  0  0  0  0  0  0  0  0  0
    6.5796   38.9174   73.9617 N   0  0  0  0  0  0  0  0  0  0  0  0
    7.3997   40.0555   71.1561 C   0  0  0  0  0  0  0  0  0  0  0  0
    8.2769   41.2288   71.2508 N   0  0  0  0  0  0  0  0  0  0  0  0
    6.9011   45.0498   70.4756 C   0  0  0  0  0  0  0  0  0  0  0  0
    6.4325   44.3329   71.5739 C   0  0  0  0  0  0  0  0  0  0  0  0
    6.8854   43.0378   71.8177 C   0  0  0  0  0  0  0  0  0  0  0  0
    7.8453   42.4627   70.9918 C   0  0  0  0  0  0  0  0  0  0  0  0
    8.3210   43.1806   69.8996 C   0  0  0  0  0  0  0  0  0  0  0  0
    7.8422   44.4628   69.6344 C   0  0  0  0  0  0  0  0  0  0  0  0
    5.6570   49.3112   71.2141 C   0  0  0  0  0  0  0  0  0  0  0  0
  1  3  1  0  0  0  0
  2  1  1  1  0  0  0
  2  6  1  0  0  0  0
  2 34  1  0  0  0  0
  3  4  2  0  0  0  0
  3 28  1  0  0  0  0
  5 13  1  0  0  0  0
  6  7  1  0  0  0  0
  7  8  1  0  0  0  0
  8  9  1  0  0  0  0
  8 10  1  0  0  0  0
 11 13  2  0  0  0  0
 11 24  1  0  0  0  0
 12 34  1  0  0  0  0
 13 15  1  0  0  0  0
 14 34  1  0  0  0  0
 15 16  1  0  0  0  0
 16 17  1  0  0  0  0
 16 18  2  0  0  0  0
 17 20  1  0  0  0  0
 17 24  2  0  0  0  0
 19 21  1  0  0  0  0
 19 20  1  0  0  0  0
 20 22  1  0  0  0  0
 22 23  1  0  0  0  0
 22 26  1  6  0  0  0
 23 25  1  0  0  0  0
 24 25  1  0  0  0  0
 26 27  1  0  0  0  0
 27 31  1  0  0  0  0
 28 29  2  0  0  0  0
 28 33  1  0  0  0  0
 29 30  1  0  0  0  0
 30 31  2  0  0  0  0
 31 32  1  0  0  0  0
 32 33  2  0  0  0  0
M  END
>  <CHROM.1>
174.44457815,49.13831108,-5.11960244,66.30077777,-115.48125089,-86.84424477
-168.77537050,-161.85506140,65.47789684,-6.64802699,6.05773217,42.61837125
71.88560988,-1.64059446,-0.63438335,3.06978333

>  <Name>
ligand

>  <RI>
0

>  <Rbt.Current_Directory>
/home/itssahil/PROJECTS/Mol_Feturizer/New_Systems/rnas/3SUH

>  <Rbt.Executable>
rbdock ($Id: //depot/dev/client3/rdock/2013.1/src/exe/rbdock.cxx#4 $)

>  <Rbt.Library>
libRbt.so (2013.1, Build901 2013/11/27)

>  <Rbt.Parameter_File>
/export/apps/rDock/src/rDock_2013.1_src/data/scripts/dock_solv.prm

>  <Rbt.Receptor>
prm/pocket_docking_7.prm

>  <SCORE>
-12.2159

>  <SCORE.INTER>
-7.95987

>  <SCORE.INTER.CONST>
1

>  <SCORE.INTER.POLAR>
0

>  <SCORE.INTER.ROT>
10

>  <SCORE.INTER.SOLV>
10.5747

>  <SCORE.INTER.VDW>
-19.0981

>  <SCORE.INTER.norm>
-0.234114

>  <SCORE.INTRA>
-4.256

>  <SCORE.INTRA.DIHEDRAL>
-4.75384

>  <SCORE.INTRA.DIHEDRAL.0>
12.2703

>  <SCORE.INTRA.POLAR>
0

>  <SCORE.INTRA.POLAR.0>
0

>  <SCORE.INTRA.REPUL>
0

>  <SCORE.INTRA.REPUL.0>
0

>  <SCORE.INTRA.SOLV>
-0.720286

>  <SCORE.INTRA.SOLV.lig_0>
-64.3214

>  <SCORE.INTRA.VDW>
-1.51894

>  <SCORE.INTRA.VDW.0>
-1.67301

>  <SCORE.INTRA.norm>
-0.125177

>  <SCORE.RESTR>
0

>  <SCORE.RESTR.CAVITY>
0

>  <SCORE.RESTR.norm>
0

>  <SCORE.SYSTEM>
0

>  <SCORE.SYSTEM.CONST>
0

>  <SCORE.SYSTEM.DIHEDRAL>
0

>  <SCORE.SYSTEM.SOLV>
0

>  <SCORE.SYSTEM.norm>
0

>  <SCORE.heavy>
34

>  <SCORE.norm>
-0.35929

>  <RMSD>
8.744

$$$$
ligand
 OpenBabel11021811483D
libRbt.so/2013.1/901 2013/11/27
 34 36  0  0  0  0  0  0  0  0999 V2000
    6.0589   45.9840   70.8095 N   0  0  0  0  0  0  0  0  0  0  0  0
    5.7883   47.3946   70.4465 C   0  0  1  0  0  0  0  0  0  0  0  0
    6.9053   45.1900   70.1407 C   0  0  0  0  0  0  0  0  0  0  0  0
    7.5516   45.5412   69.1496 O   0  0  0  0  0  0  0  0  0  0  0  0
    5.9559   33.9475   69.4903 N   0  0  0  0  0  0  0  0  0  0  0  0
    4.4399   47.8350   71.0405 C   0  0  0  0  0  0  0  0  0  0  0  0
    3.2651   47.0992   70.3820 C   0  0  0  0  0  0  0  0  0  0  0  0
    1.9179   47.6319   70.8935 C   0  0  0  0  0  0  0  0  0  0  0  0
    1.3473   46.9737   71.7946 O   0  0  0  0  0  0  0  0  0  0  0  0
    1.4894   48.6878   70.3736 O   0  0  0  0  0  0  0  0  0  0  0  0
    5.6639   35.1901   71.4214 N   0  0  0  0  0  0  0  0  0  0  0  0
    7.2881   48.2286   72.1206 O   0  0  0  0  0  0  0  0  0  0  0  0
    6.4324   34.8076   70.3867 C   0  0  0  0  0  0  0  0  0  0  0  0
    7.3531   49.1613   70.0921 O   0  0  0  0  0  0  0  0  0  0  0  0
    7.7333   35.3053   70.2397 N   0  0  0  0  0  0  0  0  0  0  0  0
    8.2181   36.2060   71.1784 C   0  0  0  0  0  0  0  0  0  0  0  0
    7.3872   36.6050   72.2171 C   0  0  0  0  0  0  0  0  0  0  0  0
    9.3522   36.6643   71.0653 O   0  0  0  0  0  0  0  0  0  0  0  0
    9.1301   37.3857   73.5791 C   0  0  0  0  0  0  0  0  0  0  0  0
    7.8522   37.4511   73.2177 N   0  0  0  0  0  0  0  0  0  0  0  0
    9.4880   36.6168   74.4684 O   0  0  0  0  0  0  0  0  0  0  0  0
    6.8970   38.2523   73.9909 C   0  0  2  0  0  0  0  0  0  0  0  0
    5.7728   37.3370   74.4828 C   0  0  0  0  0  0  0  0  0  0  0  0
    6.1162   36.0596   72.3377 C   0  0  0  0  0  0  0  0  0  0  0  0
    5.2968   36.4294   73.4099 N   0  0  0  0  0  0  0  0  0  0  0  0
    6.3212   39.3808   73.1286 C   0  0  0  0  0  0  0  0  0  0  0  0
    7.3873   39.9693   72.3086 N   0  0  0  0  0  0  0  0  0  0  0  0
    7.0644   43.7783   70.7336 C   0  0  0  0  0  0  0  0  0  0  0  0
    6.6998   43.5194   72.0526 C   0  0  0  0  0  0  0  0  0  0  0  0
    6.7921   42.2292   72.5708 C   0  0  0  0  0  0  0  0  0  0  0  0
    7.2924   41.1930   71.7896 C   0  0  0  0  0  0  0  0  0  0  0  0
    7.6654   41.4516   70.4749 C   0  0  0  0  0  0  0  0  0  0  0  0
    7.5399   42.7348   69.9445 C   0  0  0  0  0  0  0  0  0  0  0  0
    6.9066   48.3406   70.9305 C   0  0  0  0  0  0  0  0  0  0  0  0
  1  3  1  0  0  0  0
  2  1  1  1  0  0  0
  2  6  1  0  0  0  0
  2 34  1  0  0  0  0
  3  4  2  0  0  0  0
  3 28  1  0  0  0  0
  5 13  1  0  0  0  0
  6  7  1  0  0  0  0
  7  8  1  0  0  0  0
  8  9  1  0  0  0  0
  8 10  1  0  0  0  0
 11 13  2  0  0  0  0
 11 24  1  0  0  0  0
 12 34  1  0  0  0  0
 13 15  1  0  0  0  0
 14 34  1  0  0  0  0
 15 16  1  0  0  0  0
 16 17  1  0  0  0  0
 16 18  2  0  0  0  0
 17 20  1  0  0  0  0
 17 24  2  0  0  0  0
 19 21  1  0  0  0  0
 19 20  1  0  0  0  0
 20 22  1  0  0  0  0
 22 23  1  0  0  0  0
 22 26  1  6  0  0  0
 23 25  1  0  0  0  0
 24 25  1  0  0  0  0
 26 27  1  0  0  0  0
 27 31  1  0  0  0  0
 28 29  2  0  0  0  0
 28 33  1  0  0  0  0
 29 30  1  0  0  0  0
 30 31  2  0  0  0  0
 31 32  1  0  0  0  0
 32 33  2  0  0  0  0
M  END
>  <CHROM.1>
158.75092275,-67.41418005,-48.31319069,-175.05577659,-98.77739228,-89.25541323
-40.94235204,-158.81216906,43.02370632,-19.11074564,6.40330073,41.57280402
71.55793061,-1.78145903,-0.00688047,3.01827388

>  <Name>
ligand

>  <RI>
0

>  <Rbt.Current_Directory>
/home/itssahil/PROJECTS/Mol_Feturizer/New_Systems/rnas/3SUH

>  <Rbt.Executable>
rbdock ($Id: //depot/dev/client3/rdock/2013.1/src/exe/rbdock.cxx#4 $)

>  <Rbt.Library>
libRbt.so (2013.1, Build901 2013/11/27)

>  <Rbt.Parameter_File>
/export/apps/rDock/src/rDock_2013.1_src/data/scripts/dock_solv.prm

>  <Rbt.Receptor>
prm/pocket_docking_8.prm

>  <SCORE>
-13.9284

>  <SCORE.INTER>
-10.5489

>  <SCORE.INTER.CONST>
1

>  <SCORE.INTER.POLAR>
0

>  <SCORE.INTER.ROT>
10

>  <SCORE.INTER.SOLV>
13.8802

>  <SCORE.INTER.VDW>
-21.926

>  <SCORE.INTER.norm>
-0.31026

>  <SCORE.INTRA>
-3.38205

>  <SCORE.INTRA.DIHEDRAL>
-3.8626

>  <SCORE.INTRA.DIHEDRAL.0>
12.2703

>  <SCORE.INTRA.POLAR>
0

>  <SCORE.INTRA.POLAR.0>
0

>  <SCORE.INTRA.REPUL>
0.0013721

>  <SCORE.INTRA.REPUL.0>
0

>  <SCORE.INTRA.SOLV>
-0.0709205

>  <SCORE.INTRA.SOLV.lig_0>
-64.3214

>  <SCORE.INTRA.VDW>
-1.42215

>  <SCORE.INTRA.VDW.0>
-1.67301

>  <SCORE.INTRA.norm>
-0.0994721

>  <SCORE.RESTR>
0.00249875

>  <SCORE.RESTR.CAVITY>
0.00249875

>  <SCORE.RESTR.norm>
7.34926e-05

>  <SCORE.SYSTEM>
0

>  <SCORE.SYSTEM.CONST>
0

>  <SCORE.SYSTEM.DIHEDRAL>
0

>  <SCORE.SYSTEM.SOLV>
0

>  <SCORE.SYSTEM.norm>
0

>  <SCORE.heavy>
34

>  <SCORE.norm>
-0.409659

>  <RMSD>
8.763

$$$$
ligand
 OpenBabel11021811483D
libRbt.so/2013.1/901 2013/11/27
 34 36  0  0  0  0  0  0  0  0999 V2000
    6.1839   38.7247   72.0267 N   0  0  0  0  0  0  0  0  0  0  0  0
    6.1320   37.2957   71.6394 C   0  0  1  0  0  0  0  0  0  0  0  0
    7.0955   39.5908   71.5651 C   0  0  0  0  0  0  0  0  0  0  0  0
    7.9926   39.2977   70.7698 O   0  0  0  0  0  0  0  0  0  0  0  0
   -0.6013   42.9262   73.3126 N   0  0  0  0  0  0  0  0  0  0  0  0
    6.8965   36.4492   72.6710 C   0  0  0  0  0  0  0  0  0  0  0  0
    8.3941   36.7845   72.6785 C   0  0  0  0  0  0  0  0  0  0  0  0
    9.0832   36.2814   71.4009 C   0  0  0  0  0  0  0  0  0  0  0  0
    8.3685   36.1484   70.3798 O   0  0  0  0  0  0  0  0  0  0  0  0
   10.3108   36.0433   71.4727 O   0  0  0  0  0  0  0  0  0  0  0  0
    0.8403   44.7329   73.1864 N   0  0  0  0  0  0  0  0  0  0  0  0
    3.8244   37.2710   72.2891 O   0  0  0  0  0  0  0  0  0  0  0  0
    0.5148   43.5356   73.7041 C   0  0  0  0  0  0  0  0  0  0  0  0
    4.4675   35.9068   70.6416 O   0  0  0  0  0  0  0  0  0  0  0  0
    1.3392   42.9190   74.6538 N   0  0  0  0  0  0  0  0  0  0  0  0
    2.5038   43.5620   75.0510 C   0  0  0  0  0  0  0  0  0  0  0  0
    2.8269   44.7827   74.4731 C   0  0  0  0  0  0  0  0  0  0  0  0
    3.2482   43.0366   75.8750 O   0  0  0  0  0  0  0  0  0  0  0  0
    4.3329   45.4097   76.1586 C   0  0  0  0  0  0  0  0  0  0  0  0
    3.9462   45.4949   74.8893 N   0  0  0  0  0  0  0  0  0  0  0  0
    5.5211   45.2717   76.4405 O   0  0  0  0  0  0  0  0  0  0  0  0
    4.5585   46.4750   73.9857 C   0  0  2  0  0  0  0  0  0  0  0  0
    3.4611   47.3903   73.4370 C   0  0  0  0  0  0  0  0  0  0  0  0
    1.9617   45.3683   73.5588 C   0  0  0  0  0  0  0  0  0  0  0  0
    2.2673   46.6190   73.0109 N   0  0  0  0  0  0  0  0  0  0  0  0
    5.2807   45.7660   72.8348 C   0  0  0  0  0  0  0  0  0  0  0  0
    6.3516   44.9173   73.3715 N   0  0  0  0  0  0  0  0  0  0  0  0
    6.9199   41.0352   72.0676 C   0  0  0  0  0  0  0  0  0  0  0  0
    7.1487   42.1135   71.2163 C   0  0  0  0  0  0  0  0  0  0  0  0
    6.9357   43.4185   71.6561 C   0  0  0  0  0  0  0  0  0  0  0  0
    6.5350   43.6613   72.9656 C   0  0  0  0  0  0  0  0  0  0  0  0
    6.3147   42.5861   73.8198 C   0  0  0  0  0  0  0  0  0  0  0  0
    6.4932   41.2786   73.3701 C   0  0  0  0  0  0  0  0  0  0  0  0
    4.6823   36.7832   71.5141 C   0  0  0  0  0  0  0  0  0  0  0  0
  1  3  1  0  0  0  0
  2  1  1  1  0  0  0
  2  6  1  0  0  0  0
  2 34  1  0  0  0  0
  3  4  2  0  0  0  0
  3 28  1  0  0  0  0
  5 13  1  0  0  0  0
  6  7  1  0  0  0  0
  7  8  1  0  0  0  0
  8  9  1  0  0  0  0
  8 10  1  0  0  0  0
 11 13  2  0  0  0  0
 11 24  1  0  0  0  0
 12 34  1  0  0  0  0
 13 15  1  0  0  0  0
 14 34  1  0  0  0  0
 15 16  1  0  0  0  0
 16 17  1  0  0  0  0
 16 18  2  0  0  0  0
 17 20  1  0  0  0  0
 17 24  2  0  0  0  0
 19 21  1  0  0  0  0
 19 20  1  0  0  0  0
 20 22  1  0  0  0  0
 22 23  1  0  0  0  0
 22 26  1  6  0  0  0
 23 25  1  0  0  0  0
 24 25  1  0  0  0  0
 26 27  1  0  0  0  0
 27 31  1  0  0  0  0
 28 29  2  0  0  0  0
 28 33  1  0  0  0  0
 29 30  1  0  0  0  0
 30 31  2  0  0  0  0
 31 32  1  0  0  0  0
 32 33  2  0  0  0  0
M  END
>  <CHROM.1>
94.41952576,-64.93153945,-33.41082817,-70.59887604,25.45482658,136.10529059
-61.20733583,133.67548327,66.37086523,-141.33324446,5.08354517,41.64221574
73.00144657,1.09720057,-0.11305443,-2.87658239

>  <Name>
ligand

>  <RI>
0

>  <Rbt.Current_Directory>
/home/itssahil/PROJECTS/Mol_Feturizer/New_Systems/rnas/3SUH

>  <Rbt.Executable>
rbdock ($Id: //depot/dev/client3/rdock/2013.1/src/exe/rbdock.cxx#4 $)

>  <Rbt.Library>
libRbt.so (2013.1, Build901 2013/11/27)

>  <Rbt.Parameter_File>
/export/apps/rDock/src/rDock_2013.1_src/data/scripts/dock_solv.prm

>  <Rbt.Receptor>
prm/pocket_docking_8.prm

>  <SCORE>
-13.1629

>  <SCORE.INTER>
-9.9428

>  <SCORE.INTER.CONST>
1

>  <SCORE.INTER.POLAR>
0

>  <SCORE.INTER.ROT>
10

>  <SCORE.INTER.SOLV>
10.1685

>  <SCORE.INTER.VDW>
-20.2847

>  <SCORE.INTER.norm>
-0.292435

>  <SCORE.INTRA>
-3.22007

>  <SCORE.INTRA.DIHEDRAL>
-3.60652

>  <SCORE.INTRA.DIHEDRAL.0>
12.2703

>  <SCORE.INTRA.POLAR>
0

>  <SCORE.INTRA.POLAR.0>
0

>  <SCORE.INTRA.REPUL>
0

>  <SCORE.INTRA.REPUL.0>
0

>  <SCORE.INTRA.SOLV>
0.63308

>  <SCORE.INTRA.SOLV.lig_0>
-64.3214

>  <SCORE.INTRA.VDW>
-1.73335

>  <SCORE.INTRA.VDW.0>
-1.67301

>  <SCORE.INTRA.norm>
-0.0947079

>  <SCORE.RESTR>
0

>  <SCORE.RESTR.CAVITY>
0

>  <SCORE.RESTR.norm>
0

>  <SCORE.SYSTEM>
0

>  <SCORE.SYSTEM.CONST>
0

>  <SCORE.SYSTEM.DIHEDRAL>
0

>  <SCORE.SYSTEM.SOLV>
0

>  <SCORE.SYSTEM.norm>
0

>  <SCORE.heavy>
34

>  <SCORE.norm>
-0.387143

>  <RMSD>
8.774

$$$$
ligand
 OpenBabel11021811483D
libRbt.so/2013.1/901 2013/11/27
 34 36  0  0  0  0  0  0  0  0999 V2000
    8.9729   40.7455   70.6757 N   0  0  0  0  0  0  0  0  0  0  0  0
    9.5098   39.3654   70.7185 C   0  0  1  0  0  0  0  0  0  0  0  0
    8.3007   41.2533   69.6345 C   0  0  0  0  0  0  0  0  0  0  0  0
    8.0548   40.6326   68.5965 O   0  0  0  0  0  0  0  0  0  0  0  0
    1.2706   43.5052   74.9015 N   0  0  0  0  0  0  0  0  0  0  0  0
   10.6244   39.2734   71.7741 C   0  0  0  0  0  0  0  0  0  0  0  0
   11.8131   40.1776   71.4210 C   0  0  0  0  0  0  0  0  0  0  0  0
   12.4226   39.7909   70.0648 C   0  0  0  0  0  0  0  0  0  0  0  0
   11.9015   40.2903   69.0401 O   0  0  0  0  0  0  0  0  0  0  0  0
   13.3984   39.0059   70.0829 O   0  0  0  0  0  0  0  0  0  0  0  0
    2.0068   45.4222   73.8331 N   0  0  0  0  0  0  0  0  0  0  0  0
    8.6984   37.1149   70.8761 O   0  0  0  0  0  0  0  0  0  0  0  0
    2.2706   44.2894   74.5074 C   0  0  0  0  0  0  0  0  0  0  0  0
    7.3014   38.7757   71.4045 O   0  0  0  0  0  0  0  0  0  0  0  0
    3.5900   43.9228   74.8012 N   0  0  0  0  0  0  0  0  0  0  0  0
    4.6256   44.7464   74.3807 C   0  0  0  0  0  0  0  0  0  0  0  0
    4.3204   45.8926   73.6586 C   0  0  0  0  0  0  0  0  0  0  0  0
    5.7917   44.4409   74.6176 O   0  0  0  0  0  0  0  0  0  0  0  0
    6.3824   46.9365   74.0592 C   0  0  0  0  0  0  0  0  0  0  0  0
    5.3187   46.7819   73.2766 N   0  0  0  0  0  0  0  0  0  0  0  0
    7.5049   46.6491   73.6497 O   0  0  0  0  0  0  0  0  0  0  0  0
    5.0954   47.6746   72.1341 C   0  0  2  0  0  0  0  0  0  0  0  0
    3.7403   48.3652   72.3077 C   0  0  0  0  0  0  0  0  0  0  0  0
    2.9951   46.2297   73.4192 C   0  0  0  0  0  0  0  0  0  0  0  0
    2.6881   47.4080   72.7299 N   0  0  0  0  0  0  0  0  0  0  0  0
    5.1219   46.8837   70.8218 C   0  0  0  0  0  0  0  0  0  0  0  0
    6.5104   46.5733   70.4598 N   0  0  0  0  0  0  0  0  0  0  0  0
    7.7942   42.6926   69.8384 C   0  0  0  0  0  0  0  0  0  0  0  0
    6.9611   43.0046   70.9101 C   0  0  0  0  0  0  0  0  0  0  0  0
    6.5486   44.3181   71.1253 C   0  0  0  0  0  0  0  0  0  0  0  0
    6.9280   45.3261   70.2453 C   0  0  0  0  0  0  0  0  0  0  0  0
    7.7527   45.0148   69.1695 C   0  0  0  0  0  0  0  0  0  0  0  0
    8.1949   43.7072   68.9737 C   0  0  0  0  0  0  0  0  0  0  0  0
    8.4112   38.3272   71.0265 C   0  0  0  0  0  0  0  0  0  0  0  0
  1  3  1  0  0  0  0
  2  1  1  1  0  0  0
  2  6  1  0  0  0  0
  2 34  1  0  0  0  0
  3  4  2  0  0  0  0
  3 28  1  0  0  0  0
  5 13  1  0  0  0  0
  6  7  1  0  0  0  0
  7  8  1  0  0  0  0
  8  9  1  0  0  0  0
  8 10  1  0  0  0  0
 11 13  2  0  0  0  0
 11 24  1  0  0  0  0
 12 34  1  0  0  0  0
 13 15  1  0  0  0  0
 14 34  1  0  0  0  0
 15 16  1  0  0  0  0
 16 17  1  0  0  0  0
 16 18  2  0  0  0  0
 17 20  1  0  0  0  0
 17 24  2  0  0  0  0
 19 21  1  0  0  0  0
 19 20  1  0  0  0  0
 20 22  1  0  0  0  0
 22 23  1  0  0  0  0
 22 26  1  6  0  0  0
 23 25  1  0  0  0  0
 24 25  1  0  0  0  0
 26 27  1  0  0  0  0
 27 31  1  0  0  0  0
 28 29  2  0  0  0  0
 28 33  1  0  0  0  0
 29 30  1  0  0  0  0
 30 31  2  0  0  0  0
 31 32  1  0  0  0  0
 32 33  2  0  0  0  0
M  END
>  <CHROM.1>
159.44526224,-62.84823320,168.74462208,-59.74868896,85.54921296,117.76594444
-76.99309715,124.11366882,-44.77117509,-57.14630203,6.91579121,43.29299998
71.74826506,0.64554130,-0.59030948,2.93413469

>  <Name>
ligand

>  <RI>
0

>  <Rbt.Current_Directory>
/home/itssahil/PROJECTS/Mol_Feturizer/New_Systems/rnas/3SUH

>  <Rbt.Executable>
rbdock ($Id: //depot/dev/client3/rdock/2013.1/src/exe/rbdock.cxx#4 $)

>  <Rbt.Library>
libRbt.so (2013.1, Build901 2013/11/27)

>  <Rbt.Parameter_File>
/export/apps/rDock/src/rDock_2013.1_src/data/scripts/dock_solv.prm

>  <Rbt.Receptor>
prm/pocket_docking_7.prm

>  <SCORE>
-14.5813

>  <SCORE.INTER>
-10.2979

>  <SCORE.INTER.CONST>
1

>  <SCORE.INTER.POLAR>
0

>  <SCORE.INTER.ROT>
10

>  <SCORE.INTER.SOLV>
11.6747

>  <SCORE.INTER.VDW>
-21.0235

>  <SCORE.INTER.norm>
-0.302881

>  <SCORE.INTRA>
-4.28331

>  <SCORE.INTRA.DIHEDRAL>
-3.24246

>  <SCORE.INTRA.DIHEDRAL.0>
12.2703

>  <SCORE.INTRA.POLAR>
0

>  <SCORE.INTRA.POLAR.0>
0

>  <SCORE.INTRA.REPUL>
0

>  <SCORE.INTRA.REPUL.0>
0

>  <SCORE.INTRA.SOLV>
0.251452

>  <SCORE.INTRA.SOLV.lig_0>
-64.3214

>  <SCORE.INTRA.VDW>
-2.78781

>  <SCORE.INTRA.VDW.0>
-1.67301

>  <SCORE.INTRA.norm>
-0.12598

>  <SCORE.RESTR>
0

>  <SCORE.RESTR.CAVITY>
0

>  <SCORE.RESTR.norm>
0

>  <SCORE.SYSTEM>
0

>  <SCORE.SYSTEM.CONST>
0

>  <SCORE.SYSTEM.DIHEDRAL>
0

>  <SCORE.SYSTEM.SOLV>
0

>  <SCORE.SYSTEM.norm>
0

>  <SCORE.heavy>
34

>  <SCORE.norm>
-0.428861

>  <RMSD>
8.875

$$$$
ligand
 OpenBabel11021811483D
libRbt.so/2013.1/901 2013/11/27
 34 36  0  0  0  0  0  0  0  0999 V2000
   10.3058   43.1202   68.6669 N   0  0  0  0  0  0  0  0  0  0  0  0
   11.1606   43.8576   67.7075 C   0  0  1  0  0  0  0  0  0  0  0  0
    9.1133   42.5963   68.3548 C   0  0  0  0  0  0  0  0  0  0  0  0
    8.5926   42.6695   67.2383 O   0  0  0  0  0  0  0  0  0  0  0  0
   12.2605   43.3122   75.3412 N   0  0  0  0  0  0  0  0  0  0  0  0
   12.5205   44.1686   68.3549 C   0  0  0  0  0  0  0  0  0  0  0  0
   12.3832   45.1837   69.4977 C   0  0  0  0  0  0  0  0  0  0  0  0
   11.6466   44.5724   70.6993 C   0  0  0  0  0  0  0  0  0  0  0  0
   10.4086   44.7565   70.7656 O   0  0  0  0  0  0  0  0  0  0  0  0
   12.3378   43.9318   71.5244 O   0  0  0  0  0  0  0  0  0  0  0  0
   10.3866   42.0464   75.8354 N   0  0  0  0  0  0  0  0  0  0  0  0
   11.8483   43.6899   65.4169 O   0  0  0  0  0  0  0  0  0  0  0  0
   10.9931   42.9905   75.0951 C   0  0  0  0  0  0  0  0  0  0  0  0
   11.0486   41.8568   66.4115 O   0  0  0  0  0  0  0  0  0  0  0  0
   10.3051   43.6423   74.0638 N   0  0  0  0  0  0  0  0  0  0  0  0
    8.9845   43.2949   73.8130 C   0  0  0  0  0  0  0  0  0  0  0  0
    8.3978   42.2931   74.5750 C   0  0  0  0  0  0  0  0  0  0  0  0
    8.3633   43.8451   72.9072 O   0  0  0  0  0  0  0  0  0  0  0  0
    6.1953   42.9071   74.0512 C   0  0  0  0  0  0  0  0  0  0  0  0
    7.0585   41.9599   74.4057 N   0  0  0  0  0  0  0  0  0  0  0  0
    5.7897   43.7219   74.8770 O   0  0  0  0  0  0  0  0  0  0  0  0
    6.5858   40.6314   74.8101 C   0  0  2  0  0  0  0  0  0  0  0  0
    7.0781   40.3462   76.2313 C   0  0  0  0  0  0  0  0  0  0  0  0
    9.1112   41.6983   75.6069 C   0  0  0  0  0  0  0  0  0  0  0  0
    8.5037   40.7203   76.4022 N   0  0  0  0  0  0  0  0  0  0  0  0
    7.1054   39.5601   73.8452 C   0  0  0  0  0  0  0  0  0  0  0  0
    6.5076   39.7576   72.5190 N   0  0  0  0  0  0  0  0  0  0  0  0
    8.4300   41.8290   69.5013 C   0  0  0  0  0  0  0  0  0  0  0  0
    7.5325   42.4742   70.3486 C   0  0  0  0  0  0  0  0  0  0  0  0
    6.8728   41.7655   71.3507 C   0  0  0  0  0  0  0  0  0  0  0  0
    7.1373   40.4140   71.5452 C   0  0  0  0  0  0  0  0  0  0  0  0
    8.0401   39.7701   70.7057 C   0  0  0  0  0  0  0  0  0  0  0  0
    8.6738   40.4702   69.6801 C   0  0  0  0  0  0  0  0  0  0  0  0
   11.3730   43.0694   66.3985 C   0  0  0  0  0  0  0  0  0  0  0  0
  1  3  1  0  0  0  0
  2  1  1  1  0  0  0
  2  6  1  0  0  0  0
  2 34  1  0  0  0  0
  3  4  2  0  0  0  0
  3 28  1  0  0  0  0
  5 13  1  0  0  0  0
  6  7  1  0  0  0  0
  7  8  1  0  0  0  0
  8  9  1  0  0  0  0
  8 10  1  0  0  0  0
 11 13  2  0  0  0  0
 11 24  1  0  0  0  0
 12 34  1  0  0  0  0
 13 15  1  0  0  0  0
 14 34  1  0  0  0  0
 15 16  1  0  0  0  0
 16 17  1  0  0  0  0
 16 18  2  0  0  0  0
 17 20  1  0  0  0  0
 17 24  2  0  0  0  0
 19 21  1  0  0  0  0
 19 20  1  0  0  0  0
 20 22  1  0  0  0  0
 22 23  1  0  0  0  0
 22 26  1  6  0  0  0
 23 25  1  0  0  0  0
 24 25  1  0  0  0  0
 26 27  1  0  0  0  0
 27 31  1  0  0  0  0
 28 29  2  0  0  0  0
 28 33  1  0  0  0  0
 29 30  1  0  0  0  0
 30 31  2  0  0  0  0
 31 32  1  0  0  0  0
 32 33  2  0  0  0  0
M  END
>  <CHROM.1>
-173.29697497,-67.90842603,166.13745061,69.15358855,-94.12289921,-76.94770896
-66.08645048,96.94395142,-95.63677416,92.86295670,9.24040038,42.49092320
71.68877611,1.07796853,-0.59169237,-1.62953068

>  <Name>
ligand

>  <RI>
0

>  <Rbt.Current_Directory>
/home/itssahil/PROJECTS/Mol_Feturizer/New_Systems/rnas/3SUH

>  <Rbt.Executable>
rbdock ($Id: //depot/dev/client3/rdock/2013.1/src/exe/rbdock.cxx#4 $)

>  <Rbt.Library>
libRbt.so (2013.1, Build901 2013/11/27)

>  <Rbt.Parameter_File>
/export/apps/rDock/src/rDock_2013.1_src/data/scripts/dock_solv.prm

>  <Rbt.Receptor>
prm/pocket_docking_7.prm

>  <SCORE>
-17.3304

>  <SCORE.INTER>
-11.2614

>  <SCORE.INTER.CONST>
1

>  <SCORE.INTER.POLAR>
0

>  <SCORE.INTER.ROT>
10

>  <SCORE.INTER.SOLV>
10.76

>  <SCORE.INTER.VDW>
-21.3609

>  <SCORE.INTER.norm>
-0.331217

>  <SCORE.INTRA>
-6.06906

>  <SCORE.INTRA.DIHEDRAL>
-4.4437

>  <SCORE.INTRA.DIHEDRAL.0>
12.2703

>  <SCORE.INTRA.POLAR>
0

>  <SCORE.INTRA.POLAR.0>
0

>  <SCORE.INTRA.REPUL>
0

>  <SCORE.INTRA.REPUL.0>
0

>  <SCORE.INTRA.SOLV>
0.635118

>  <SCORE.INTRA.SOLV.lig_0>
-64.3214

>  <SCORE.INTRA.VDW>
-4.16476

>  <SCORE.INTRA.VDW.0>
-1.67301

>  <SCORE.INTRA.norm>
-0.178502

>  <SCORE.RESTR>
0

>  <SCORE.RESTR.CAVITY>
0

>  <SCORE.RESTR.norm>
0

>  <SCORE.SYSTEM>
0

>  <SCORE.SYSTEM.CONST>
0

>  <SCORE.SYSTEM.DIHEDRAL>
0

>  <SCORE.SYSTEM.SOLV>
0

>  <SCORE.SYSTEM.norm>
0

>  <SCORE.heavy>
34

>  <SCORE.norm>
-0.509719

>  <RMSD>
8.885

$$$$
ligand
 OpenBabel11021811483D
libRbt.so/2013.1/901 2013/11/27
 34 36  0  0  0  0  0  0  0  0999 V2000
   10.0994   40.7834   71.1876 N   0  0  0  0  0  0  0  0  0  0  0  0
   11.2259   40.3022   70.3543 C   0  0  1  0  0  0  0  0  0  0  0  0
    8.8231   40.4248   70.9968 C   0  0  0  0  0  0  0  0  0  0  0  0
    8.4420   39.6577   70.1083 O   0  0  0  0  0  0  0  0  0  0  0  0
   11.8852   40.8482   76.6555 N   0  0  0  0  0  0  0  0  0  0  0  0
   11.4029   41.2243   69.1363 C   0  0  0  0  0  0  0  0  0  0  0  0
   10.2487   41.0679   68.1369 C   0  0  0  0  0  0  0  0  0  0  0  0
   10.1692   42.2720   67.1861 C   0  0  0  0  0  0  0  0  0  0  0  0
    9.1385   42.9826   67.2477 O   0  0  0  0  0  0  0  0  0  0  0  0
   11.1426   42.4570   66.4199 O   0  0  0  0  0  0  0  0  0  0  0  0
   10.0080   42.0168   77.3404 N   0  0  0  0  0  0  0  0  0  0  0  0
   12.6093   40.8722   72.2276 O   0  0  0  0  0  0  0  0  0  0  0  0
   10.8435   41.6229   76.3636 C   0  0  0  0  0  0  0  0  0  0  0  0
   13.4642   39.5321   70.6584 O   0  0  0  0  0  0  0  0  0  0  0  0
   10.6302   42.0189   75.0372 N   0  0  0  0  0  0  0  0  0  0  0  0
    9.5373   42.8232   74.7437 C   0  0  0  0  0  0  0  0  0  0  0  0
    8.6759   43.1857   75.7709 C   0  0  0  0  0  0  0  0  0  0  0  0
    9.3235   43.1752   73.5863 O   0  0  0  0  0  0  0  0  0  0  0  0
    7.7302   44.9919   74.6109 C   0  0  0  0  0  0  0  0  0  0  0  0
    7.6083   44.0453   75.5365 N   0  0  0  0  0  0  0  0  0  0  0  0
    8.4267   45.9826   74.8201 O   0  0  0  0  0  0  0  0  0  0  0  0
    6.4519   44.0269   76.4390 C   0  0  2  0  0  0  0  0  0  0  0  0
    6.9540   44.1077   77.8828 C   0  0  0  0  0  0  0  0  0  0  0  0
    8.9470   42.7939   77.0748 C   0  0  0  0  0  0  0  0  0  0  0  0
    8.1023   43.1972   78.1149 N   0  0  0  0  0  0  0  0  0  0  0  0
    5.6319   42.7484   76.2347 C   0  0  0  0  0  0  0  0  0  0  0  0
    5.2554   42.6233   74.8213 N   0  0  0  0  0  0  0  0  0  0  0  0
    7.8326   41.0106   72.0194 C   0  0  0  0  0  0  0  0  0  0  0  0
    7.5806   40.3499   73.2193 C   0  0  0  0  0  0  0  0  0  0  0  0
    6.7265   40.9090   74.1678 C   0  0  0  0  0  0  0  0  0  0  0  0
    6.0803   42.1128   73.9077 C   0  0  0  0  0  0  0  0  0  0  0  0
    6.3240   42.7696   72.7062 C   0  0  0  0  0  0  0  0  0  0  0  0
    7.2058   42.2286   71.7716 C   0  0  0  0  0  0  0  0  0  0  0  0
   12.5448   40.2302   71.1514 C   0  0  0  0  0  0  0  0  0  0  0  0
  1  3  1  0  0  0  0
  2  1  1  1  0  0  0
  2  6  1  0  0  0  0
  2 34  1  0  0  0  0
  3  4  2  0  0  0  0
  3 28  1  0  0  0  0
  5 13  1  0  0  0  0
  6  7  1  0  0  0  0
  7  8  1  0  0  0  0
  8  9  1  0  0  0  0
  8 10  1  0  0  0  0
 11 13  2  0  0  0  0
 11 24  1  0  0  0  0
 12 34  1  0  0  0  0
 13 15  1  0  0  0  0
 14 34  1  0  0  0  0
 15 16  1  0  0  0  0
 16 17  1  0  0  0  0
 16 18  2  0  0  0  0
 17 20  1  0  0  0  0
 17 24  2  0  0  0  0
 19 21  1  0  0  0  0
 19 20  1  0  0  0  0
 20 22  1  0  0  0  0
 22 23  1  0  0  0  0
 22 26  1  1  0  0  0
 23 25  1  0  0  0  0
 24 25  1  0  0  0  0
 26 27  1  0  0  0  0
 27 31  1  0  0  0  0
 28 29  2  0  0  0  0
 28 33  1  0  0  0  0
 29 30  1  0  0  0  0
 30 31  2  0  0  0  0
 31 32  1  0  0  0  0
 32 33  2  0  0  0  0
M  END
>  <CHROM.1>
87.71396079,-70.16154122,-17.65245994,161.28436676,-115.98339450,-73.58846395
-54.91788846,82.78514390,48.54408433,-87.44166276,9.09881969,42.11927574
73.09143581,-1.16287205,-0.41241559,1.47113426

>  <Name>
ligand

>  <RI>
0

>  <Rbt.Current_Directory>
/home/itssahil/PROJECTS/Mol_Feturizer/New_Systems/rnas/3SUH

>  <Rbt.Executable>
rbdock ($Id: //depot/dev/client3/rdock/2013.1/src/exe/rbdock.cxx#4 $)

>  <Rbt.Library>
libRbt.so (2013.1, Build901 2013/11/27)

>  <Rbt.Parameter_File>
/export/apps/rDock/src/rDock_2013.1_src/data/scripts/dock_solv.prm

>  <Rbt.Receptor>
prm/pocket_docking_6.prm

>  <SCORE>
-9.86059

>  <SCORE.INTER>
-3.97579

>  <SCORE.INTER.CONST>
1

>  <SCORE.INTER.POLAR>
0

>  <SCORE.INTER.ROT>
10

>  <SCORE.INTER.SOLV>
7.45556

>  <SCORE.INTER.VDW>
-15.4024

>  <SCORE.INTER.norm>
-0.116935

>  <SCORE.INTRA>
-5.8848

>  <SCORE.INTRA.DIHEDRAL>
-3.40028

>  <SCORE.INTRA.DIHEDRAL.0>
12.2703

>  <SCORE.INTRA.POLAR>
0

>  <SCORE.INTRA.POLAR.0>
0

>  <SCORE.INTRA.REPUL>
0

>  <SCORE.INTRA.REPUL.0>
0

>  <SCORE.INTRA.SOLV>
0.920468

>  <SCORE.INTRA.SOLV.lig_0>
-64.3214

>  <SCORE.INTRA.VDW>
-4.6449

>  <SCORE.INTRA.VDW.0>
-1.67301

>  <SCORE.INTRA.norm>
-0.173082

>  <SCORE.RESTR>
0

>  <SCORE.RESTR.CAVITY>
0

>  <SCORE.RESTR.norm>
0

>  <SCORE.SYSTEM>
0

>  <SCORE.SYSTEM.CONST>
0

>  <SCORE.SYSTEM.DIHEDRAL>
0

>  <SCORE.SYSTEM.SOLV>
0

>  <SCORE.SYSTEM.norm>
0

>  <SCORE.heavy>
34

>  <SCORE.norm>
-0.290017

>  <RMSD>
8.924

$$$$
ligand
 OpenBabel11021811483D
libRbt.so/2013.1/901 2013/11/27
 34 36  0  0  0  0  0  0  0  0999 V2000
   10.9390   41.4863   69.5758 N   0  0  0  0  0  0  0  0  0  0  0  0
   11.4932   42.2111   68.4086 C   0  0  1  0  0  0  0  0  0  0  0  0
   11.6716   40.7235   70.3977 C   0  0  0  0  0  0  0  0  0  0  0  0
   12.8855   40.5371   70.2756 O   0  0  0  0  0  0  0  0  0  0  0  0
    6.3710   44.7740   72.5292 N   0  0  0  0  0  0  0  0  0  0  0  0
   10.5778   42.0104   67.1892 C   0  0  0  0  0  0  0  0  0  0  0  0
    9.1908   42.6267   67.4166 C   0  0  0  0  0  0  0  0  0  0  0  0
    8.3944   41.8333   68.4637 C   0  0  0  0  0  0  0  0  0  0  0  0
    8.3152   40.5927   68.3030 O   0  0  0  0  0  0  0  0  0  0  0  0
    7.8842   42.4848   69.4039 O   0  0  0  0  0  0  0  0  0  0  0  0
    5.9693   42.9999   73.9608 N   0  0  0  0  0  0  0  0  0  0  0  0
   12.6547   44.2963   68.1836 O   0  0  0  0  0  0  0  0  0  0  0  0
    6.4022   43.4671   72.7768 C   0  0  0  0  0  0  0  0  0  0  0  0
   10.7937   44.2573   69.4181 O   0  0  0  0  0  0  0  0  0  0  0  0
    6.8877   42.5920   71.7969 N   0  0  0  0  0  0  0  0  0  0  0  0
    6.9202   41.2309   72.0683 C   0  0  0  0  0  0  0  0  0  0  0  0
    6.4957   40.7845   73.3129 C   0  0  0  0  0  0  0  0  0  0  0  0
    7.3512   40.4445   71.2286 O   0  0  0  0  0  0  0  0  0  0  0  0
    6.1725   38.5640   72.6296 C   0  0  0  0  0  0  0  0  0  0  0  0
    6.4457   39.4259   73.6044 N   0  0  0  0  0  0  0  0  0  0  0  0
    7.0062   37.7306   72.2822 O   0  0  0  0  0  0  0  0  0  0  0  0
    6.4949   38.9825   75.0020 C   0  0  2  0  0  0  0  0  0  0  0  0
    5.4713   39.7857   75.8086 C   0  0  0  0  0  0  0  0  0  0  0  0
    5.9935   41.6878   74.2399 C   0  0  0  0  0  0  0  0  0  0  0  0
    5.5251   41.2309   75.4767 N   0  0  0  0  0  0  0  0  0  0  0  0
    7.8998   39.1842   75.5799 C   0  0  0  0  0  0  0  0  0  0  0  0
    8.8767   38.4402   74.7753 N   0  0  0  0  0  0  0  0  0  0  0  0
   10.8880   40.1110   71.5728 C   0  0  0  0  0  0  0  0  0  0  0  0
   10.6784   38.7360   71.6436 C   0  0  0  0  0  0  0  0  0  0  0  0
   10.0175   38.1774   72.7358 C   0  0  0  0  0  0  0  0  0  0  0  0
    9.5194   38.9923   73.7468 C   0  0  0  0  0  0  0  0  0  0  0  0
    9.7201   40.3666   73.6733 C   0  0  0  0  0  0  0  0  0  0  0  0
   10.4124   40.9229   72.5987 C   0  0  0  0  0  0  0  0  0  0  0  0
   11.6638   43.7179   68.6917 C   0  0  0  0  0  0  0  0  0  0  0  0
  1  3  1  0  0  0  0
  2  1  1  1  0  0  0
  2  6  1  0  0  0  0
  2 34  1  0  0  0  0
  3  4  2  0  0  0  0
  3 28  1  0  0  0  0
  5 13  1  0  0  0  0
  6  7  1  0  0  0  0
  7  8  1  0  0  0  0
  8  9  1  0  0  0  0
  8 10  1  0  0  0  0
 11 13  2  0  0  0  0
 11 24  1  0  0  0  0
 12 34  1  0  0  0  0
 13 15  1  0  0  0  0
 14 34  1  0  0  0  0
 15 16  1  0  0  0  0
 16 17  1  0  0  0  0
 16 18  2  0  0  0  0
 17 20  1  0  0  0  0
 17 24  2  0  0  0  0
 19 21  1  0  0  0  0
 19 20  1  0  0  0  0
 20 22  1  0  0  0  0
 22 23  1  0  0  0  0
 22 26  1  1  0  0  0
 23 25  1  0  0  0  0
 24 25  1  0  0  0  0
 26 27  1  0  0  0  0
 27 31  1  0  0  0  0
 28 29  2  0  0  0  0
 28 33  1  0  0  0  0
 29 30  1  0  0  0  0
 30 31  2  0  0  0  0
 31 32  1  0  0  0  0
 32 33  2  0  0  0  0
M  END
>  <CHROM.1>
134.66550095,64.05265596,144.19265499,-69.90367541,-50.76253131,116.16191602
-58.21434129,91.86329447,-155.72996423,112.48782016,8.64481581,41.06838094
71.65768692,-0.82734478,-0.56780478,2.44991022

>  <Name>
ligand

>  <RI>
0

>  <Rbt.Current_Directory>
/home/itssahil/PROJECTS/Mol_Feturizer/New_Systems/rnas/3SUH

>  <Rbt.Executable>
rbdock ($Id: //depot/dev/client3/rdock/2013.1/src/exe/rbdock.cxx#4 $)

>  <Rbt.Library>
libRbt.so (2013.1, Build901 2013/11/27)

>  <Rbt.Parameter_File>
/export/apps/rDock/src/rDock_2013.1_src/data/scripts/dock_solv.prm

>  <Rbt.Receptor>
prm/pocket_docking_5.prm

>  <SCORE>
-16.3614

>  <SCORE.INTER>
-10.4468

>  <SCORE.INTER.CONST>
1

>  <SCORE.INTER.POLAR>
0

>  <SCORE.INTER.ROT>
10

>  <SCORE.INTER.SOLV>
12.8738

>  <SCORE.INTER.VDW>
-21.5225

>  <SCORE.INTER.norm>
-0.30726

>  <SCORE.INTRA>
-5.91457

>  <SCORE.INTRA.DIHEDRAL>
-3.54119

>  <SCORE.INTRA.DIHEDRAL.0>
12.2703

>  <SCORE.INTRA.POLAR>
0

>  <SCORE.INTRA.POLAR.0>
0

>  <SCORE.INTRA.REPUL>
0

>  <SCORE.INTRA.REPUL.0>
0

>  <SCORE.INTRA.SOLV>
1.30766

>  <SCORE.INTRA.SOLV.lig_0>
-64.3214

>  <SCORE.INTRA.VDW>
-4.79781

>  <SCORE.INTRA.VDW.0>
-1.67301

>  <SCORE.INTRA.norm>
-0.173958

>  <SCORE.RESTR>
0

>  <SCORE.RESTR.CAVITY>
0

>  <SCORE.RESTR.norm>
0

>  <SCORE.SYSTEM>
0

>  <SCORE.SYSTEM.CONST>
0

>  <SCORE.SYSTEM.DIHEDRAL>
0

>  <SCORE.SYSTEM.SOLV>
0

>  <SCORE.SYSTEM.norm>
0

>  <SCORE.heavy>
34

>  <SCORE.norm>
-0.481217

>  <RMSD>
8.944

$$$$
ligand
 OpenBabel11021811483D
libRbt.so/2013.1/901 2013/11/27
 34 36  0  0  0  0  0  0  0  0999 V2000
    6.4701   44.9678   72.5344 N   0  0  0  0  0  0  0  0  0  0  0  0
    6.1357   46.3606   72.9126 C   0  0  1  0  0  0  0  0  0  0  0  0
    6.6542   44.5606   71.2717 C   0  0  0  0  0  0  0  0  0  0  0  0
    6.5648   45.2956   70.2843 O   0  0  0  0  0  0  0  0  0  0  0  0
    6.7901   34.2004   76.6463 N   0  0  0  0  0  0  0  0  0  0  0  0
    4.6108   46.5572   72.8779 C   0  0  0  0  0  0  0  0  0  0  0  0
    4.2344   48.0425   72.7912 C   0  0  0  0  0  0  0  0  0  0  0  0
    4.6080   48.6320   71.4226 C   0  0  0  0  0  0  0  0  0  0  0  0
    3.6656   48.9742   70.6704 O   0  0  0  0  0  0  0  0  0  0  0  0
    5.8287   48.7300   71.1595 O   0  0  0  0  0  0  0  0  0  0  0  0
    7.9777   35.1868   74.9216 N   0  0  0  0  0  0  0  0  0  0  0  0
    7.0867   47.8995   74.4859 O   0  0  0  0  0  0  0  0  0  0  0  0
    6.8902   34.5299   75.3611 C   0  0  0  0  0  0  0  0  0  0  0  0
    6.6737   45.8146   75.1726 O   0  0  0  0  0  0  0  0  0  0  0  0
    5.8572   34.1868   74.4798 N   0  0  0  0  0  0  0  0  0  0  0  0
    5.9704   34.5401   73.1419 C   0  0  0  0  0  0  0  0  0  0  0  0
    7.0918   35.2463   72.7270 C   0  0  0  0  0  0  0  0  0  0  0  0
    5.0728   34.2592   72.3517 O   0  0  0  0  0  0  0  0  0  0  0  0
    6.8251   34.7283   70.4549 C   0  0  0  0  0  0  0  0  0  0  0  0
    7.2805   35.5611   71.3859 N   0  0  0  0  0  0  0  0  0  0  0  0
    5.9427   35.0846   69.6772 O   0  0  0  0  0  0  0  0  0  0  0  0
    8.1437   36.6898   71.0213 C   0  0  2  0  0  0  0  0  0  0  0  0
    9.4684   36.5597   71.7774 C   0  0  0  0  0  0  0  0  0  0  0  0
    8.1037   35.5360   73.6323 C   0  0  0  0  0  0  0  0  0  0  0  0
    9.2529   36.2088   73.2028 N   0  0  0  0  0  0  0  0  0  0  0  0
    7.4646   38.0190   71.3687 C   0  0  0  0  0  0  0  0  0  0  0  0
    8.1979   39.1268   70.7438 N   0  0  0  0  0  0  0  0  0  0  0  0
    7.0450   43.0787   71.1263 C   0  0  0  0  0  0  0  0  0  0  0  0
    7.4694   42.5759   69.8987 C   0  0  0  0  0  0  0  0  0  0  0  0
    7.8758   41.2482   69.7816 C   0  0  0  0  0  0  0  0  0  0  0  0
    7.8194   40.3972   70.8802 C   0  0  0  0  0  0  0  0  0  0  0  0
    7.3874   40.8954   72.1047 C   0  0  0  0  0  0  0  0  0  0  0  0
    7.0144   42.2327   72.2313 C   0  0  0  0  0  0  0  0  0  0  0  0
    6.6781   46.7262   74.3097 C   0  0  0  0  0  0  0  0  0  0  0  0
  1  3  1  0  0  0  0
  2  1  1  1  0  0  0
  2  6  1  0  0  0  0
  2 34  1  0  0  0  0
  3  4  2  0  0  0  0
  3 28  1  0  0  0  0
  5 13  1  0  0  0  0
  6  7  1  0  0  0  0
  7  8  1  0  0  0  0
  8  9  1  0  0  0  0
  8 10  1  0  0  0  0
 11 13  2  0  0  0  0
 11 24  1  0  0  0  0
 12 34  1  0  0  0  0
 13 15  1  0  0  0  0
 14 34  1  0  0  0  0
 15 16  1  0  0  0  0
 16 17  1  0  0  0  0
 16 18  2  0  0  0  0
 17 20  1  0  0  0  0
 17 24  2  0  0  0  0
 19 21  1  0  0  0  0
 19 20  1  0  0  0  0
 20 22  1  0  0  0  0
 22 23  1  0  0  0  0
 22 26  1  1  0  0  0
 23 25  1  0  0  0  0
 24 25  1  0  0  0  0
 26 27  1  0  0  0  0
 27 31  1  0  0  0  0
 28 29  2  0  0  0  0
 28 33  1  0  0  0  0
 29 30  1  0  0  0  0
 30 31  2  0  0  0  0
 31 32  1  0  0  0  0
 32 33  2  0  0  0  0
M  END
>  <CHROM.1>
87.45627220,-160.79998075,144.36702336,69.37158299,112.48935870,116.12506629
-167.88810567,179.78276930,-139.00755861,-169.88784608,6.72804550,40.74817594
72.31855919,2.66763281,1.43766853,-1.14250955

>  <Name>
ligand

>  <RI>
0

>  <Rbt.Current_Directory>
/home/itssahil/PROJECTS/Mol_Feturizer/New_Systems/rnas/3SUH

>  <Rbt.Executable>
rbdock ($Id: //depot/dev/client3/rdock/2013.1/src/exe/rbdock.cxx#4 $)

>  <Rbt.Library>
libRbt.so (2013.1, Build901 2013/11/27)

>  <Rbt.Parameter_File>
/export/apps/rDock/src/rDock_2013.1_src/data/scripts/dock_solv.prm

>  <Rbt.Receptor>
prm/pocket_docking_8.prm

>  <SCORE>
-11.7143

>  <SCORE.INTER>
-8.62501

>  <SCORE.INTER.CONST>
1

>  <SCORE.INTER.POLAR>
0

>  <SCORE.INTER.ROT>
10

>  <SCORE.INTER.SOLV>
12.1263

>  <SCORE.INTER.VDW>
-20.0588

>  <SCORE.INTER.norm>
-0.253677

>  <SCORE.INTRA>
-3.11209

>  <SCORE.INTRA.DIHEDRAL>
-2.99374

>  <SCORE.INTRA.DIHEDRAL.0>
12.2703

>  <SCORE.INTRA.POLAR>
0

>  <SCORE.INTRA.POLAR.0>
0

>  <SCORE.INTRA.REPUL>
0

>  <SCORE.INTRA.REPUL.0>
0

>  <SCORE.INTRA.SOLV>
-1.05538

>  <SCORE.INTRA.SOLV.lig_0>
-64.3214

>  <SCORE.INTRA.VDW>
-1.08753

>  <SCORE.INTRA.VDW.0>
-1.67301

>  <SCORE.INTRA.norm>
-0.0915319

>  <SCORE.RESTR>
0.0228323

>  <SCORE.RESTR.CAVITY>
0.0228323

>  <SCORE.RESTR.norm>
0.000671539

>  <SCORE.SYSTEM>
0

>  <SCORE.SYSTEM.CONST>
0

>  <SCORE.SYSTEM.DIHEDRAL>
0

>  <SCORE.SYSTEM.SOLV>
0

>  <SCORE.SYSTEM.norm>
0

>  <SCORE.heavy>
34

>  <SCORE.norm>
-0.344537

>  <RMSD>
9.028

$$$$
ligand
 OpenBabel11021811483D
libRbt.so/2013.1/901 2013/11/27
 34 36  0  0  0  0  0  0  0  0999 V2000
    7.6659   41.8058   70.6112 N   0  0  0  0  0  0  0  0  0  0  0  0
    8.3976   40.7789   69.8333 C   0  0  1  0  0  0  0  0  0  0  0  0
    7.2275   41.6220   71.8635 C   0  0  0  0  0  0  0  0  0  0  0  0
    7.3810   40.5807   72.5079 O   0  0  0  0  0  0  0  0  0  0  0  0
    8.1324   41.1899   77.9040 N   0  0  0  0  0  0  0  0  0  0  0  0
    8.2312   41.0500   68.3286 C   0  0  0  0  0  0  0  0  0  0  0  0
    8.6871   42.4673   67.9561 C   0  0  0  0  0  0  0  0  0  0  0  0
   10.2166   42.5459   67.8351 C   0  0  0  0  0  0  0  0  0  0  0  0
   10.7387   42.0160   66.8263 O   0  0  0  0  0  0  0  0  0  0  0  0
   10.8302   43.1368   68.7534 O   0  0  0  0  0  0  0  0  0  0  0  0
    7.2233   43.3137   78.0491 N   0  0  0  0  0  0  0  0  0  0  0  0
   10.6417   40.0019   69.5052 O   0  0  0  0  0  0  0  0  0  0  0  0
    7.8958   42.3788   77.3555 C   0  0  0  0  0  0  0  0  0  0  0  0
   10.2627   41.4515   71.1616 O   0  0  0  0  0  0  0  0  0  0  0  0
    8.3522   42.6414   76.0577 N   0  0  0  0  0  0  0  0  0  0  0  0
    8.0952   43.8837   75.4937 C   0  0  0  0  0  0  0  0  0  0  0  0
    7.3702   44.8155   76.2249 C   0  0  0  0  0  0  0  0  0  0  0  0
    8.4764   44.1341   74.3531 O   0  0  0  0  0  0  0  0  0  0  0  0
    8.0690   46.6571   74.9511 C   0  0  0  0  0  0  0  0  0  0  0  0
    7.1482   46.0952   75.7285 N   0  0  0  0  0  0  0  0  0  0  0  0
    9.0342   47.2351   75.4455 O   0  0  0  0  0  0  0  0  0  0  0  0
    6.0107   46.8775   76.2247 C   0  0  2  0  0  0  0  0  0  0  0  0
    6.0214   46.8439   77.7551 C   0  0  0  0  0  0  0  0  0  0  0  0
    6.9662   44.5194   77.5197 C   0  0  0  0  0  0  0  0  0  0  0  0
    6.2743   45.4759   78.2709 N   0  0  0  0  0  0  0  0  0  0  0  0
    4.6926   46.3052   75.6922 C   0  0  0  0  0  0  0  0  0  0  0  0
    4.7726   46.1543   74.2341 N   0  0  0  0  0  0  0  0  0  0  0  0
    6.5390   42.8489   72.4884 C   0  0  0  0  0  0  0  0  0  0  0  0
    5.8263   42.7304   73.6791 C   0  0  0  0  0  0  0  0  0  0  0  0
    5.2507   43.8521   74.2725 C   0  0  0  0  0  0  0  0  0  0  0  0
    5.3432   45.0966   73.6584 C   0  0  0  0  0  0  0  0  0  0  0  0
    6.0469   45.2151   72.4646 C   0  0  0  0  0  0  0  0  0  0  0  0
    6.6534   44.0998   71.8885 C   0  0  0  0  0  0  0  0  0  0  0  0
    9.8968   40.7396   70.1947 C   0  0  0  0  0  0  0  0  0  0  0  0
  1  3  1  0  0  0  0
  2  1  1  1  0  0  0
  2  6  1  0  0  0  0
  2 34  1  0  0  0  0
  3  4  2  0  0  0  0
  3 28  1  0  0  0  0
  5 13  1  0  0  0  0
  6  7  1  0  0  0  0
  7  8  1  0  0  0  0
  8  9  1  0  0  0  0
  8 10  1  0  0  0  0
 11 13  2  0  0  0  0
 11 24  1  0  0  0  0
 12 34  1  0  0  0  0
 13 15  1  0  0  0  0
 14 34  1  0  0  0  0
 15 16  1  0  0  0  0
 16 17  1  0  0  0  0
 16 18  2  0  0  0  0
 17 20  1  0  0  0  0
 17 24  2  0  0  0  0
 19 21  1  0  0  0  0
 19 20  1  0  0  0  0
 20 22  1  0  0  0  0
 22 23  1  0  0  0  0
 22 26  1  6  0  0  0
 23 25  1  0  0  0  0
 24 25  1  0  0  0  0
 26 27  1  0  0  0  0
 27 31  1  0  0  0  0
 28 29  2  0  0  0  0
 28 33  1  0  0  0  0
 29 30  1  0  0  0  0
 30 31  2  0  0  0  0
 31 32  1  0  0  0  0
 32 33  2  0  0  0  0
M  END
>  <CHROM.1>
156.22096930,55.90928800,-173.04661487,79.70614370,73.42153462,-83.65329259
-51.34929927,82.68167993,33.74908994,168.31496418,7.74599551,43.52546921
73.31706923,-0.75220934,-1.11749888,1.88778384

>  <Name>
ligand

>  <RI>
0

>  <Rbt.Current_Directory>
/home/itssahil/PROJECTS/Mol_Feturizer/New_Systems/rnas/3SUH

>  <Rbt.Executable>
rbdock ($Id: //depot/dev/client3/rdock/2013.1/src/exe/rbdock.cxx#4 $)

>  <Rbt.Library>
libRbt.so (2013.1, Build901 2013/11/27)

>  <Rbt.Parameter_File>
/export/apps/rDock/src/rDock_2013.1_src/data/scripts/dock_solv.prm

>  <Rbt.Receptor>
prm/pocket_docking_8.prm

>  <SCORE>
-10.995

>  <SCORE.INTER>
-5.24331

>  <SCORE.INTER.CONST>
1

>  <SCORE.INTER.POLAR>
0

>  <SCORE.INTER.ROT>
10

>  <SCORE.INTER.SOLV>
5.54685

>  <SCORE.INTER.VDW>
-15.6112

>  <SCORE.INTER.norm>
-0.154215

>  <SCORE.INTRA>
-5.75173

>  <SCORE.INTRA.DIHEDRAL>
-3.57439

>  <SCORE.INTRA.DIHEDRAL.0>
12.2703

>  <SCORE.INTRA.POLAR>
0

>  <SCORE.INTRA.POLAR.0>
0

>  <SCORE.INTRA.REPUL>
0

>  <SCORE.INTRA.REPUL.0>
0

>  <SCORE.INTRA.SOLV>
0.748905

>  <SCORE.INTRA.SOLV.lig_0>
-64.3214

>  <SCORE.INTRA.VDW>
-4.33899

>  <SCORE.INTRA.VDW.0>
-1.67301

>  <SCORE.INTRA.norm>
-0.169169

>  <SCORE.RESTR>
0

>  <SCORE.RESTR.CAVITY>
0

>  <SCORE.RESTR.norm>
0

>  <SCORE.SYSTEM>
0

>  <SCORE.SYSTEM.CONST>
0

>  <SCORE.SYSTEM.DIHEDRAL>
0

>  <SCORE.SYSTEM.SOLV>
0

>  <SCORE.SYSTEM.norm>
0

>  <SCORE.heavy>
34

>  <SCORE.norm>
-0.323384

>  <RMSD>
9.063

$$$$
ligand
 OpenBabel11021811483D
libRbt.so/2013.1/901 2013/11/27
 34 36  0  0  0  0  0  0  0  0999 V2000
    7.5339   44.9291   69.7974 N   0  0  0  0  0  0  0  0  0  0  0  0
    7.4954   46.3445   69.3614 C   0  0  1  0  0  0  0  0  0  0  0  0
    8.5077   44.0716   69.4650 C   0  0  0  0  0  0  0  0  0  0  0  0
    9.4781   44.3614   68.7597 O   0  0  0  0  0  0  0  0  0  0  0  0
    6.2401   40.1240   76.7959 N   0  0  0  0  0  0  0  0  0  0  0  0
    6.2544   47.0365   69.9500 C   0  0  0  0  0  0  0  0  0  0  0  0
    6.2016   46.8981   71.4775 C   0  0  0  0  0  0  0  0  0  0  0  0
    4.9477   47.5728   72.0542 C   0  0  0  0  0  0  0  0  0  0  0  0
    4.0791   46.8262   72.5632 O   0  0  0  0  0  0  0  0  0  0  0  0
    4.8865   48.8213   71.9757 O   0  0  0  0  0  0  0  0  0  0  0  0
    7.4724   38.7139   75.4353 N   0  0  0  0  0  0  0  0  0  0  0  0
    9.4752   46.6154   70.6861 O   0  0  0  0  0  0  0  0  0  0  0  0
    6.3021   39.2897   75.7613 C   0  0  0  0  0  0  0  0  0  0  0  0
    9.0010   48.1863   69.1708 O   0  0  0  0  0  0  0  0  0  0  0  0
    5.1428   39.0215   75.0225 N   0  0  0  0  0  0  0  0  0  0  0  0
    5.2206   38.1532   73.9420 C   0  0  0  0  0  0  0  0  0  0  0  0
    6.4513   37.6005   73.6126 C   0  0  0  0  0  0  0  0  0  0  0  0
    4.2197   37.9102   73.2726 O   0  0  0  0  0  0  0  0  0  0  0  0
    5.5497   35.8490   72.3392 C   0  0  0  0  0  0  0  0  0  0  0  0
    6.5640   36.6735   72.5824 N   0  0  0  0  0  0  0  0  0  0  0  0
    4.9051   35.9439   71.2972 O   0  0  0  0  0  0  0  0  0  0  0  0
    7.8578   36.4830   71.9176 C   0  0  2  0  0  0  0  0  0  0  0  0
    8.9367   36.2942   72.9870 C   0  0  0  0  0  0  0  0  0  0  0  0
    7.5658   37.8725   74.3944 C   0  0  0  0  0  0  0  0  0  0  0  0
    8.7955   37.2797   74.0872 N   0  0  0  0  0  0  0  0  0  0  0  0
    8.1917   37.6919   71.0368 C   0  0  0  0  0  0  0  0  0  0  0  0
    8.0241   38.9283   71.8104 N   0  0  0  0  0  0  0  0  0  0  0  0
    8.3621   42.6670   70.0778 C   0  0  0  0  0  0  0  0  0  0  0  0
    9.4141   41.7562   70.0181 C   0  0  0  0  0  0  0  0  0  0  0  0
    9.3008   40.5054   70.6217 C   0  0  0  0  0  0  0  0  0  0  0  0
    8.1180   40.1349   71.2525 C   0  0  0  0  0  0  0  0  0  0  0  0
    7.0632   41.0399   71.3054 C   0  0  0  0  0  0  0  0  0  0  0  0
    7.1883   42.3048   70.7327 C   0  0  0  0  0  0  0  0  0  0  0  0
    8.7677   47.1118   69.7764 C   0  0  0  0  0  0  0  0  0  0  0  0
  1  3  1  0  0  0  0
  2  1  1  1  0  0  0
  2  6  1  0  0  0  0
  2 34  1  0  0  0  0
  3  4  2  0  0  0  0
  3 28  1  0  0  0  0
  5 13  1  0  0  0  0
  6  7  1  0  0  0  0
  7  8  1  0  0  0  0
  8  9  1  0  0  0  0
  8 10  1  0  0  0  0
 11 13  2  0  0  0  0
 11 24  1  0  0  0  0
 12 34  1  0  0  0  0
 13 15  1  0  0  0  0
 14 34  1  0  0  0  0
 15 16  1  0  0  0  0
 16 17  1  0  0  0  0
 16 18  2  0  0  0  0
 17 20  1  0  0  0  0
 17 24  2  0  0  0  0
 19 21  1  0  0  0  0
 19 20  1  0  0  0  0
 20 22  1  0  0  0  0
 22 23  1  0  0  0  0
 22 26  1  1  0  0  0
 23 25  1  0  0  0  0
 24 25  1  0  0  0  0
 26 27  1  0  0  0  0
 27 31  1  0  0  0  0
 28 29  2  0  0  0  0
 28 33  1  0  0  0  0
 29 30  1  0  0  0  0
 30 31  2  0  0  0  0
 31 32  1  0  0  0  0
 32 33  2  0  0  0  0
M  END
>  <CHROM.1>
-178.87753940,54.93937035,-18.44417611,-179.09984489,112.43061872,112.42337080
50.01922548,-173.09706479,-59.49547672,-168.31492390,7.12462025,41.57636927
71.91098393,-1.49775070,-0.79443849,2.89904132

>  <Name>
ligand

>  <RI>
0

>  <Rbt.Current_Directory>
/home/itssahil/PROJECTS/Mol_Feturizer/New_Systems/rnas/3SUH

>  <Rbt.Executable>
rbdock ($Id: //depot/dev/client3/rdock/2013.1/src/exe/rbdock.cxx#4 $)

>  <Rbt.Library>
libRbt.so (2013.1, Build901 2013/11/27)

>  <Rbt.Parameter_File>
/export/apps/rDock/src/rDock_2013.1_src/data/scripts/dock_solv.prm

>  <Rbt.Receptor>
prm/pocket_docking_7.prm

>  <SCORE>
-9.42711

>  <SCORE.INTER>
-6.53337

>  <SCORE.INTER.CONST>
1

>  <SCORE.INTER.POLAR>
0

>  <SCORE.INTER.ROT>
10

>  <SCORE.INTER.SOLV>
8.80339

>  <SCORE.INTER.VDW>
-17.5567

>  <SCORE.INTER.norm>
-0.192158

>  <SCORE.INTRA>
-2.89374

>  <SCORE.INTRA.DIHEDRAL>
-5.15306

>  <SCORE.INTRA.DIHEDRAL.0>
12.2703

>  <SCORE.INTRA.POLAR>
0

>  <SCORE.INTRA.POLAR.0>
0

>  <SCORE.INTRA.REPUL>
0

>  <SCORE.INTRA.REPUL.0>
0

>  <SCORE.INTRA.SOLV>
2.11139

>  <SCORE.INTRA.SOLV.lig_0>
-64.3214

>  <SCORE.INTRA.VDW>
-1.37291

>  <SCORE.INTRA.VDW.0>
-1.67301

>  <SCORE.INTRA.norm>
-0.08511

>  <SCORE.RESTR>
0

>  <SCORE.RESTR.CAVITY>
0

>  <SCORE.RESTR.norm>
0

>  <SCORE.SYSTEM>
0

>  <SCORE.SYSTEM.CONST>
0

>  <SCORE.SYSTEM.DIHEDRAL>
0

>  <SCORE.SYSTEM.SOLV>
0

>  <SCORE.SYSTEM.norm>
0

>  <SCORE.heavy>
34

>  <SCORE.norm>
-0.277268

>  <RMSD>
9.092

$$$$
ligand
 OpenBabel11021811483D
libRbt.so/2013.1/901 2013/11/27
 34 36  0  0  0  0  0  0  0  0999 V2000
   10.3312   43.1369   68.6551 N   0  0  0  0  0  0  0  0  0  0  0  0
   11.2280   43.8763   67.7365 C   0  0  1  0  0  0  0  0  0  0  0  0
    9.1482   42.6243   68.2919 C   0  0  0  0  0  0  0  0  0  0  0  0
    8.6724   42.7107   67.1564 O   0  0  0  0  0  0  0  0  0  0  0  0
   12.0395   43.6332   75.4260 N   0  0  0  0  0  0  0  0  0  0  0  0
   12.5939   44.0962   68.4082 C   0  0  0  0  0  0  0  0  0  0  0  0
   12.4442   44.7244   69.8004 C   0  0  0  0  0  0  0  0  0  0  0  0
   11.7341   46.0845   69.7236 C   0  0  0  0  0  0  0  0  0  0  0  0
   10.4940   46.0935   69.9054 O   0  0  0  0  0  0  0  0  0  0  0  0
   12.4478   47.0863   69.4871 O   0  0  0  0  0  0  0  0  0  0  0  0
   10.2638   42.2139   75.8628 N   0  0  0  0  0  0  0  0  0  0  0  0
   11.0595   41.9366   66.3376 O   0  0  0  0  0  0  0  0  0  0  0  0
   10.7978   43.2320   75.1659 C   0  0  0  0  0  0  0  0  0  0  0  0
   11.9242   43.7974   65.4552 O   0  0  0  0  0  0  0  0  0  0  0  0
   10.0607   43.8781   74.1655 N   0  0  0  0  0  0  0  0  0  0  0  0
    8.7678   43.4476   73.8995 C   0  0  0  0  0  0  0  0  0  0  0  0
    8.2580   42.3726   74.6155 C   0  0  0  0  0  0  0  0  0  0  0  0
    8.1052   43.9919   73.0198 O   0  0  0  0  0  0  0  0  0  0  0  0
    6.0149   42.8483   74.1207 C   0  0  0  0  0  0  0  0  0  0  0  0
    6.9457   41.9512   74.4316 N   0  0  0  0  0  0  0  0  0  0  0  0
    5.6333   43.6657   74.9553 O   0  0  0  0  0  0  0  0  0  0  0  0
    6.5718   40.5749   74.7754 C   0  0  2  0  0  0  0  0  0  0  0  0
    7.0886   40.2622   76.1820 C   0  0  0  0  0  0  0  0  0  0  0  0
    9.0162   41.7849   75.6191 C   0  0  0  0  0  0  0  0  0  0  0  0
    8.4840   40.7306   76.3694 N   0  0  0  0  0  0  0  0  0  0  0  0
    7.1642   39.5889   73.7628 C   0  0  0  0  0  0  0  0  0  0  0  0
    6.5336   39.7880   72.4521 N   0  0  0  0  0  0  0  0  0  0  0  0
    8.4152   41.8522   69.4038 C   0  0  0  0  0  0  0  0  0  0  0  0
    8.6519   40.4932   69.5961 C   0  0  0  0  0  0  0  0  0  0  0  0
    8.0298   39.8082   70.6380 C   0  0  0  0  0  0  0  0  0  0  0  0
    7.1299   40.4645   71.4710 C   0  0  0  0  0  0  0  0  0  0  0  0
    6.8856   41.8195   71.2749 C   0  0  0  0  0  0  0  0  0  0  0  0
    7.5346   42.5139   70.2549 C   0  0  0  0  0  0  0  0  0  0  0  0
   11.4179   43.1377   66.3955 C   0  0  0  0  0  0  0  0  0  0  0  0
  1  3  1  0  0  0  0
  2  1  1  1  0  0  0
  2  6  1  0  0  0  0
  2 34  1  0  0  0  0
  3  4  2  0  0  0  0
  3 28  1  0  0  0  0
  5 13  1  0  0  0  0
  6  7  1  0  0  0  0
  7  8  1  0  0  0  0
  8  9  1  0  0  0  0
  8 10  1  0  0  0  0
 11 13  2  0  0  0  0
 11 24  1  0  0  0  0
 12 34  1  0  0  0  0
 13 15  1  0  0  0  0
 14 34  1  0  0  0  0
 15 16  1  0  0  0  0
 16 17  1  0  0  0  0
 16 18  2  0  0  0  0
 17 20  1  0  0  0  0
 17 24  2  0  0  0  0
 19 21  1  0  0  0  0
 19 20  1  0  0  0  0
 20 22  1  0  0  0  0
 22 23  1  0  0  0  0
 22 26  1  6  0  0  0
 23 25  1  0  0  0  0
 24 25  1  0  0  0  0
 26 27  1  0  0  0  0
 27 31  1  0  0  0  0
 28 29  2  0  0  0  0
 28 33  1  0  0  0  0
 29 30  1  0  0  0  0
 30 31  2  0  0  0  0
 31 32  1  0  0  0  0
 32 33  2  0  0  0  0
M  END
>  <CHROM.1>
-169.83540667,-51.74573071,-14.50125929,-59.56222744,94.54816339,-70.96799754
-66.97938924,101.08580171,84.59568976,-88.11466528,9.20702993,42.72242604
71.56928912,0.94763617,-0.76518127,-1.72294758

>  <Name>
ligand

>  <RI>
0

>  <Rbt.Current_Directory>
/home/itssahil/PROJECTS/Mol_Feturizer/New_Systems/rnas/3SUH

>  <Rbt.Executable>
rbdock ($Id: //depot/dev/client3/rdock/2013.1/src/exe/rbdock.cxx#4 $)

>  <Rbt.Library>
libRbt.so (2013.1, Build901 2013/11/27)

>  <Rbt.Parameter_File>
/export/apps/rDock/src/rDock_2013.1_src/data/scripts/dock_solv.prm

>  <Rbt.Receptor>
prm/pocket_docking_8.prm

>  <SCORE>
-17.426

>  <SCORE.INTER>
-12.2338

>  <SCORE.INTER.CONST>
1

>  <SCORE.INTER.POLAR>
0

>  <SCORE.INTER.ROT>
10

>  <SCORE.INTER.SOLV>
11.6439

>  <SCORE.INTER.VDW>
-22.3038

>  <SCORE.INTER.norm>
-0.359818

>  <SCORE.INTRA>
-5.19218

>  <SCORE.INTRA.DIHEDRAL>
-4.7149

>  <SCORE.INTRA.DIHEDRAL.0>
12.2703

>  <SCORE.INTRA.POLAR>
0

>  <SCORE.INTRA.POLAR.0>
0

>  <SCORE.INTRA.REPUL>
0

>  <SCORE.INTRA.REPUL.0>
0

>  <SCORE.INTRA.SOLV>
0.20519

>  <SCORE.INTRA.SOLV.lig_0>
-64.3214

>  <SCORE.INTRA.VDW>
-2.93733

>  <SCORE.INTRA.VDW.0>
-1.67301

>  <SCORE.INTRA.norm>
-0.152711

>  <SCORE.RESTR>
0

>  <SCORE.RESTR.CAVITY>
0

>  <SCORE.RESTR.norm>
0

>  <SCORE.SYSTEM>
0

>  <SCORE.SYSTEM.CONST>
0

>  <SCORE.SYSTEM.DIHEDRAL>
0

>  <SCORE.SYSTEM.SOLV>
0

>  <SCORE.SYSTEM.norm>
0

>  <SCORE.heavy>
34

>  <SCORE.norm>
-0.512529

>  <RMSD>
9.150

$$$$
ligand
 OpenBabel11021811483D
libRbt.so/2013.1/901 2013/11/27
 34 36  0  0  0  0  0  0  0  0999 V2000
    9.6210   43.0851   69.6396 N   0  0  0  0  0  0  0  0  0  0  0  0
   10.2534   44.2066   68.9067 C   0  0  1  0  0  0  0  0  0  0  0  0
    8.9692   42.0774   69.0447 C   0  0  0  0  0  0  0  0  0  0  0  0
    8.8206   41.9702   67.8241 O   0  0  0  0  0  0  0  0  0  0  0  0
   12.0726   36.2966   72.2330 N   0  0  0  0  0  0  0  0  0  0  0  0
   10.1462   45.4967   69.7370 C   0  0  0  0  0  0  0  0  0  0  0  0
    8.7010   46.0095   69.7998 C   0  0  0  0  0  0  0  0  0  0  0  0
    7.7837   45.0023   70.5097 C   0  0  0  0  0  0  0  0  0  0  0  0
    7.7623   45.0321   71.7626 O   0  0  0  0  0  0  0  0  0  0  0  0
    7.1215   44.2258   69.7834 O   0  0  0  0  0  0  0  0  0  0  0  0
    9.9054   36.0884   71.4468 N   0  0  0  0  0  0  0  0  0  0  0  0
   12.4224   43.3419   69.4504 O   0  0  0  0  0  0  0  0  0  0  0  0
   10.7793   36.0905   72.4684 C   0  0  0  0  0  0  0  0  0  0  0  0
   12.1406   44.2913   67.4484 O   0  0  0  0  0  0  0  0  0  0  0  0
   10.3439   35.8779   73.7825 N   0  0  0  0  0  0  0  0  0  0  0  0
    8.9915   35.6688   74.0166 C   0  0  0  0  0  0  0  0  0  0  0  0
    8.1113   35.7047   72.9431 C   0  0  0  0  0  0  0  0  0  0  0  0
    8.5841   35.4902   75.1616 O   0  0  0  0  0  0  0  0  0  0  0  0
    6.3903   34.5650   74.0571 C   0  0  0  0  0  0  0  0  0  0  0  0
    6.7592   35.4330   73.1200 N   0  0  0  0  0  0  0  0  0  0  0  0
    5.4366   34.8094   74.7927 O   0  0  0  0  0  0  0  0  0  0  0  0
    5.7844   35.9462   72.1513 C   0  0  2  0  0  0  0  0  0  0  0  0
    6.2648   35.5992   70.7398 C   0  0  0  0  0  0  0  0  0  0  0  0
    8.5952   35.8880   71.6548 C   0  0  0  0  0  0  0  0  0  0  0  0
    7.7118   35.8797   70.5696 N   0  0  0  0  0  0  0  0  0  0  0  0
    5.6286   37.4636   72.2991 C   0  0  0  0  0  0  0  0  0  0  0  0
    6.9443   38.0762   72.5200 N   0  0  0  0  0  0  0  0  0  0  0  0
    8.4401   40.9988   70.0072 C   0  0  0  0  0  0  0  0  0  0  0  0
    7.3240   41.2461   70.8028 C   0  0  0  0  0  0  0  0  0  0  0  0
    6.8130   40.2499   71.6323 C   0  0  0  0  0  0  0  0  0  0  0  0
    7.4395   39.0105   71.7090 C   0  0  0  0  0  0  0  0  0  0  0  0
    8.5595   38.7648   70.9219 C   0  0  0  0  0  0  0  0  0  0  0  0
    9.0503   39.7490   70.0651 C   0  0  0  0  0  0  0  0  0  0  0  0
   11.7326   43.9196   68.5757 C   0  0  0  0  0  0  0  0  0  0  0  0
  1  3  1  0  0  0  0
  2  1  1  1  0  0  0
  2  6  1  0  0  0  0
  2 34  1  0  0  0  0
  3  4  2  0  0  0  0
  3 28  1  0  0  0  0
  5 13  1  0  0  0  0
  6  7  1  0  0  0  0
  7  8  1  0  0  0  0
  8  9  1  0  0  0  0
  8 10  1  0  0  0  0
 11 13  2  0  0  0  0
 11 24  1  0  0  0  0
 12 34  1  0  0  0  0
 13 15  1  0  0  0  0
 14 34  1  0  0  0  0
 15 16  1  0  0  0  0
 16 17  1  0  0  0  0
 16 18  2  0  0  0  0
 17 20  1  0  0  0  0
 17 24  2  0  0  0  0
 19 21  1  0  0  0  0
 19 20  1  0  0  0  0
 20 22  1  0  0  0  0
 22 23  1  0  0  0  0
 22 26  1  6  0  0  0
 23 25  1  0  0  0  0
 24 25  1  0  0  0  0
 26 27  1  0  0  0  0
 27 31  1  0  0  0  0
 28 29  2  0  0  0  0
 28 33  1  0  0  0  0
 29 30  1  0  0  0  0
 30 31  2  0  0  0  0
 31 32  1  0  0  0  0
 32 33  2  0  0  0  0
M  END
>  <CHROM.1>
146.08622482,-70.38553004,-39.70932320,63.09706700,83.04958517,136.37403599
40.87960099,121.66840879,65.77451725,74.51676676,8.57765656,39.56523726,71.22243196
-1.34819939,-0.26193160,2.78586379

>  <Name>
ligand

>  <RI>
0

>  <Rbt.Current_Directory>
/home/itssahil/PROJECTS/Mol_Feturizer/New_Systems/rnas/3SUH

>  <Rbt.Executable>
rbdock ($Id: //depot/dev/client3/rdock/2013.1/src/exe/rbdock.cxx#4 $)

>  <Rbt.Library>
libRbt.so (2013.1, Build901 2013/11/27)

>  <Rbt.Parameter_File>
/export/apps/rDock/src/rDock_2013.1_src/data/scripts/dock_solv.prm

>  <Rbt.Receptor>
prm/pocket_docking_8.prm

>  <SCORE>
-17.6668

>  <SCORE.INTER>
-14.5371

>  <SCORE.INTER.CONST>
1

>  <SCORE.INTER.POLAR>
0

>  <SCORE.INTER.ROT>
10

>  <SCORE.INTER.SOLV>
13.3956

>  <SCORE.INTER.VDW>
-24.4233

>  <SCORE.INTER.norm>
-0.427563

>  <SCORE.INTRA>
-3.12967

>  <SCORE.INTRA.DIHEDRAL>
-2.37448

>  <SCORE.INTRA.DIHEDRAL.0>
12.2703

>  <SCORE.INTRA.POLAR>
0

>  <SCORE.INTRA.POLAR.0>
0

>  <SCORE.INTRA.REPUL>
0

>  <SCORE.INTRA.REPUL.0>
0

>  <SCORE.INTRA.SOLV>
3.07368

>  <SCORE.INTRA.SOLV.lig_0>
-64.3214

>  <SCORE.INTRA.VDW>
-3.47926

>  <SCORE.INTRA.VDW.0>
-1.67301

>  <SCORE.INTRA.norm>
-0.092049

>  <SCORE.RESTR>
0

>  <SCORE.RESTR.CAVITY>
0

>  <SCORE.RESTR.norm>
0

>  <SCORE.SYSTEM>
0

>  <SCORE.SYSTEM.CONST>
0

>  <SCORE.SYSTEM.DIHEDRAL>
0

>  <SCORE.SYSTEM.SOLV>
0

>  <SCORE.SYSTEM.norm>
0

>  <SCORE.heavy>
34

>  <SCORE.norm>
-0.519612

>  <RMSD>
9.174

$$$$
ligand
 OpenBabel11021811483D
libRbt.so/2013.1/901 2013/11/27
 34 36  0  0  0  0  0  0  0  0999 V2000
    9.8592   43.2297   69.3252 N   0  0  0  0  0  0  0  0  0  0  0  0
   10.7267   43.8319   68.2861 C   0  0  1  0  0  0  0  0  0  0  0  0
    8.5542   43.5006   69.4574 C   0  0  0  0  0  0  0  0  0  0  0  0
    7.9293   44.2803   68.7330 O   0  0  0  0  0  0  0  0  0  0  0  0
    9.5723   45.9200   77.1027 N   0  0  0  0  0  0  0  0  0  0  0  0
   12.2036   43.6678   68.6824 C   0  0  0  0  0  0  0  0  0  0  0  0
   12.5171   44.3842   70.0029 C   0  0  0  0  0  0  0  0  0  0  0  0
   11.9241   43.6271   71.2010 C   0  0  0  0  0  0  0  0  0  0  0  0
   12.5202   42.5895   71.5740 O   0  0  0  0  0  0  0  0  0  0  0  0
   10.8885   44.1042   71.7193 O   0  0  0  0  0  0  0  0  0  0  0  0
    8.4558   43.9094   77.3660 N   0  0  0  0  0  0  0  0  0  0  0  0
    9.4459   42.5196   66.7417 O   0  0  0  0  0  0  0  0  0  0  0  0
    8.5819   45.1015   76.7572 C   0  0  0  0  0  0  0  0  0  0  0  0
   11.3557   43.4256   66.0201 O   0  0  0  0  0  0  0  0  0  0  0  0
    7.6804   45.4940   75.7598 N   0  0  0  0  0  0  0  0  0  0  0  0
    6.6538   44.6296   75.4041 C   0  0  0  0  0  0  0  0  0  0  0  0
    6.5711   43.3927   76.0298 C   0  0  0  0  0  0  0  0  0  0  0  0
    5.8568   44.9473   74.5249 O   0  0  0  0  0  0  0  0  0  0  0  0
    4.3281   43.0249   75.4503 C   0  0  0  0  0  0  0  0  0  0  0  0
    5.5211   42.5235   75.7555 N   0  0  0  0  0  0  0  0  0  0  0  0
    3.6488   43.5843   76.3082 O   0  0  0  0  0  0  0  0  0  0  0  0
    5.6875   41.0865   75.9996 C   0  0  2  0  0  0  0  0  0  0  0  0
    6.2488   40.8895   77.4101 C   0  0  0  0  0  0  0  0  0  0  0  0
    7.4699   43.0618   77.0348 C   0  0  0  0  0  0  0  0  0  0  0  0
    7.3578   41.8331   77.6948 N   0  0  0  0  0  0  0  0  0  0  0  0
    6.6343   40.4721   74.9629 C   0  0  0  0  0  0  0  0  0  0  0  0
    6.0412   40.5838   73.6246 N   0  0  0  0  0  0  0  0  0  0  0  0
    7.8464   42.7158   70.5767 C   0  0  0  0  0  0  0  0  0  0  0  0
    7.7334   41.3293   70.5066 C   0  0  0  0  0  0  0  0  0  0  0  0
    7.1420   40.6152   71.5467 C   0  0  0  0  0  0  0  0  0  0  0  0
    6.6167   41.2837   72.6474 C   0  0  0  0  0  0  0  0  0  0  0  0
    6.7207   42.6690   72.7150 C   0  0  0  0  0  0  0  0  0  0  0  0
    7.3441   43.3812   71.6914 C   0  0  0  0  0  0  0  0  0  0  0  0
   10.4854   43.2049   66.8974 C   0  0  0  0  0  0  0  0  0  0  0  0
  1  3  1  0  0  0  0
  2  1  1  1  0  0  0
  2  6  1  0  0  0  0
  2 34  1  0  0  0  0
  3  4  2  0  0  0  0
  3 28  1  0  0  0  0
  5 13  1  0  0  0  0
  6  7  1  0  0  0  0
  7  8  1  0  0  0  0
  8  9  1  0  0  0  0
  8 10  1  0  0  0  0
 11 13  2  0  0  0  0
 11 24  1  0  0  0  0
 12 34  1  0  0  0  0
 13 15  1  0  0  0  0
 14 34  1  0  0  0  0
 15 16  1  0  0  0  0
 16 17  1  0  0  0  0
 16 18  2  0  0  0  0
 17 20  1  0  0  0  0
 17 24  2  0  0  0  0
 19 21  1  0  0  0  0
 19 20  1  0  0  0  0
 20 22  1  0  0  0  0
 22 23  1  0  0  0  0
 22 26  1  6  0  0  0
 23 25  1  0  0  0  0
 24 25  1  0  0  0  0
 26 27  1  0  0  0  0
 27 31  1  0  0  0  0
 28 29  2  0  0  0  0
 28 33  1  0  0  0  0
 29 30  1  0  0  0  0
 30 31  2  0  0  0  0
 31 32  1  0  0  0  0
 32 33  2  0  0  0  0
M  END
>  <CHROM.1>
162.06557336,-61.41703210,15.03719914,73.20297896,76.15810959,-70.43627138
-63.76010700,117.89593993,111.52006455,-64.34467196,8.21055255,43.10872018
72.76902760,0.99826932,-0.49630875,-1.82236147

>  <Name>
ligand

>  <RI>
0

>  <Rbt.Current_Directory>
/home/itssahil/PROJECTS/Mol_Feturizer/New_Systems/rnas/3SUH

>  <Rbt.Executable>
rbdock ($Id: //depot/dev/client3/rdock/2013.1/src/exe/rbdock.cxx#4 $)

>  <Rbt.Library>
libRbt.so (2013.1, Build901 2013/11/27)

>  <Rbt.Parameter_File>
/export/apps/rDock/src/rDock_2013.1_src/data/scripts/dock_solv.prm

>  <Rbt.Receptor>
prm/pocket_docking_5.prm

>  <SCORE>
-12.239

>  <SCORE.INTER>
-7.13066

>  <SCORE.INTER.CONST>
1

>  <SCORE.INTER.POLAR>
0

>  <SCORE.INTER.ROT>
10

>  <SCORE.INTER.SOLV>
9.84166

>  <SCORE.INTER.VDW>
-18.301

>  <SCORE.INTER.norm>
-0.209725

>  <SCORE.INTRA>
-5.10833

>  <SCORE.INTRA.DIHEDRAL>
-3.87954

>  <SCORE.INTRA.DIHEDRAL.0>
12.2703

>  <SCORE.INTRA.POLAR>
0

>  <SCORE.INTRA.POLAR.0>
0

>  <SCORE.INTRA.REPUL>
0

>  <SCORE.INTRA.REPUL.0>
0

>  <SCORE.INTRA.SOLV>
0.313217

>  <SCORE.INTRA.SOLV.lig_0>
-64.3214

>  <SCORE.INTRA.VDW>
-3.32516

>  <SCORE.INTRA.VDW.0>
-1.67301

>  <SCORE.INTRA.norm>
-0.150245

>  <SCORE.RESTR>
0

>  <SCORE.RESTR.CAVITY>
0

>  <SCORE.RESTR.norm>
0

>  <SCORE.SYSTEM>
0

>  <SCORE.SYSTEM.CONST>
0

>  <SCORE.SYSTEM.DIHEDRAL>
0

>  <SCORE.SYSTEM.SOLV>
0

>  <SCORE.SYSTEM.norm>
0

>  <SCORE.heavy>
34

>  <SCORE.norm>
-0.35997

>  <RMSD>
9.240

$$$$
ligand
 OpenBabel11021811483D
libRbt.so/2013.1/901 2013/11/27
 34 36  0  0  0  0  0  0  0  0999 V2000
    9.4099   42.4316   69.5625 N   0  0  0  0  0  0  0  0  0  0  0  0
   10.2701   43.2845   68.7095 C   0  0  1  0  0  0  0  0  0  0  0  0
    9.3709   41.0951   69.4836 C   0  0  0  0  0  0  0  0  0  0  0  0
   10.0427   40.4255   68.6939 O   0  0  0  0  0  0  0  0  0  0  0  0
   12.1409   40.6615   75.9364 N   0  0  0  0  0  0  0  0  0  0  0  0
   11.7503   43.0046   69.0189 C   0  0  0  0  0  0  0  0  0  0  0  0
   12.6540   44.1482   68.5382 C   0  0  0  0  0  0  0  0  0  0  0  0
   12.5737   45.3558   69.4844 C   0  0  0  0  0  0  0  0  0  0  0  0
   11.4481   45.8834   69.6445 O   0  0  0  0  0  0  0  0  0  0  0  0
   13.6399   45.7235   70.0292 O   0  0  0  0  0  0  0  0  0  0  0  0
   10.1004   39.6930   76.4429 N   0  0  0  0  0  0  0  0  0  0  0  0
   10.9205   43.3368   66.4026 O   0  0  0  0  0  0  0  0  0  0  0  0
   10.8240   40.5958   75.7582 C   0  0  0  0  0  0  0  0  0  0  0  0
    8.8652   42.6173   66.8994 O   0  0  0  0  0  0  0  0  0  0  0  0
   10.2068   41.4713   74.8559 N   0  0  0  0  0  0  0  0  0  0  0  0
    8.8327   41.3902   74.6745 C   0  0  0  0  0  0  0  0  0  0  0  0
    8.1194   40.4252   75.3733 C   0  0  0  0  0  0  0  0  0  0  0  0
    8.2699   42.1405   73.8810 O   0  0  0  0  0  0  0  0  0  0  0  0
    6.0382   41.4692   75.0884 C   0  0  0  0  0  0  0  0  0  0  0  0
    6.7343   40.3520   75.2756 N   0  0  0  0  0  0  0  0  0  0  0  0
    5.9484   42.3055   75.9845 O   0  0  0  0  0  0  0  0  0  0  0  0
    6.0526   39.0885   75.5774 C   0  0  2  0  0  0  0  0  0  0  0  0
    6.5671   38.5608   76.9191 C   0  0  0  0  0  0  0  0  0  0  0  0
    8.7718   39.6008   76.2800 C   0  0  0  0  0  0  0  0  0  0  0  0
    8.0444   38.6589   77.0158 N   0  0  0  0  0  0  0  0  0  0  0  0
    6.3118   38.0610   74.4703 C   0  0  0  0  0  0  0  0  0  0  0  0
    5.8640   38.6006   73.1805 N   0  0  0  0  0  0  0  0  0  0  0  0
    8.4404   40.4192   70.5068 C   0  0  0  0  0  0  0  0  0  0  0  0
    7.4877   41.1643   71.1975 C   0  0  0  0  0  0  0  0  0  0  0  0
    6.6092   40.5418   72.0820 C   0  0  0  0  0  0  0  0  0  0  0  0
    6.7034   39.1746   72.3193 C   0  0  0  0  0  0  0  0  0  0  0  0
    7.6600   38.4304   71.6371 C   0  0  0  0  0  0  0  0  0  0  0  0
    8.5160   39.0465   70.7253 C   0  0  0  0  0  0  0  0  0  0  0  0
    9.9986   43.0601   67.2076 C   0  0  0  0  0  0  0  0  0  0  0  0
  1  3  1  0  0  0  0
  2  1  1  1  0  0  0
  2  6  1  0  0  0  0
  2 34  1  0  0  0  0
  3  4  2  0  0  0  0
  3 28  1  0  0  0  0
  5 13  1  0  0  0  0
  6  7  1  0  0  0  0
  7  8  1  0  0  0  0
  8  9  1  0  0  0  0
  8 10  1  0  0  0  0
 11 13  2  0  0  0  0
 11 24  1  0  0  0  0
 12 34  1  0  0  0  0
 13 15  1  0  0  0  0
 14 34  1  0  0  0  0
 15 16  1  0  0  0  0
 16 17  1  0  0  0  0
 16 18  2  0  0  0  0
 17 20  1  0  0  0  0
 17 24  2  0  0  0  0
 19 21  1  0  0  0  0
 19 20  1  0  0  0  0
 20 22  1  0  0  0  0
 22 23  1  0  0  0  0
 22 26  1  6  0  0  0
 23 25  1  0  0  0  0
 24 25  1  0  0  0  0
 26 27  1  0  0  0  0
 27 31  1  0  0  0  0
 28 29  2  0  0  0  0
 28 33  1  0  0  0  0
 29 30  1  0  0  0  0
 30 31  2  0  0  0  0
 31 32  1  0  0  0  0
 32 33  2  0  0  0  0
M  END
>  <CHROM.1>
-64.99034250,-160.86672490,-155.76934445,76.47013006,-59.54122285,-69.67437502
-57.53549074,97.57258167,-111.47789065,15.40053829,9.01868431,41.32634751
72.27156303,1.01179037,-0.66944255,-1.42891250

>  <Name>
ligand

>  <RI>
0

>  <Rbt.Current_Directory>
/home/itssahil/PROJECTS/Mol_Feturizer/New_Systems/rnas/3SUH

>  <Rbt.Executable>
rbdock ($Id: //depot/dev/client3/rdock/2013.1/src/exe/rbdock.cxx#4 $)

>  <Rbt.Library>
libRbt.so (2013.1, Build901 2013/11/27)

>  <Rbt.Parameter_File>
/export/apps/rDock/src/rDock_2013.1_src/data/scripts/dock_solv.prm

>  <Rbt.Receptor>
prm/pocket_docking_8.prm

>  <SCORE>
-12.2662

>  <SCORE.INTER>
-8.72251

>  <SCORE.INTER.CONST>
1

>  <SCORE.INTER.POLAR>
0

>  <SCORE.INTER.ROT>
10

>  <SCORE.INTER.SOLV>
8.58649

>  <SCORE.INTER.VDW>
-18.9438

>  <SCORE.INTER.norm>
-0.256544

>  <SCORE.INTRA>
-3.54366

>  <SCORE.INTRA.DIHEDRAL>
-2.84927

>  <SCORE.INTRA.DIHEDRAL.0>
12.2703

>  <SCORE.INTRA.POLAR>
0

>  <SCORE.INTRA.POLAR.0>
0

>  <SCORE.INTRA.REPUL>
0

>  <SCORE.INTRA.REPUL.0>
0

>  <SCORE.INTRA.SOLV>
0.270224

>  <SCORE.INTRA.SOLV.lig_0>
-64.3214

>  <SCORE.INTRA.VDW>
-2.25413

>  <SCORE.INTRA.VDW.0>
-1.67301

>  <SCORE.INTRA.norm>
-0.104225

>  <SCORE.RESTR>
0

>  <SCORE.RESTR.CAVITY>
0

>  <SCORE.RESTR.norm>
0

>  <SCORE.SYSTEM>
0

>  <SCORE.SYSTEM.CONST>
0

>  <SCORE.SYSTEM.DIHEDRAL>
0

>  <SCORE.SYSTEM.SOLV>
0

>  <SCORE.SYSTEM.norm>
0

>  <SCORE.heavy>
34

>  <SCORE.norm>
-0.36077

>  <RMSD>
9.254

$$$$
ligand
 OpenBabel11021811483D
libRbt.so/2013.1/901 2013/11/27
 34 36  0  0  0  0  0  0  0  0999 V2000
    8.2754   45.1125   70.7204 N   0  0  0  0  0  0  0  0  0  0  0  0
    8.3677   46.5865   70.6038 C   0  0  1  0  0  0  0  0  0  0  0  0
    7.1203   44.4427   70.8266 C   0  0  0  0  0  0  0  0  0  0  0  0
    6.0069   44.9751   70.8411 O   0  0  0  0  0  0  0  0  0  0  0  0
    6.0715   34.3124   76.4052 N   0  0  0  0  0  0  0  0  0  0  0  0
    9.7865   46.9856   70.1647 C   0  0  0  0  0  0  0  0  0  0  0  0
   10.8508   46.4330   71.1225 C   0  0  0  0  0  0  0  0  0  0  0  0
   11.0301   44.9181   70.9405 C   0  0  0  0  0  0  0  0  0  0  0  0
   11.5903   44.5305   69.8884 O   0  0  0  0  0  0  0  0  0  0  0  0
   10.6050   44.1806   71.8593 O   0  0  0  0  0  0  0  0  0  0  0  0
    7.7777   34.9930   74.9967 N   0  0  0  0  0  0  0  0  0  0  0  0
    7.2077   46.5689   68.5057 O   0  0  0  0  0  0  0  0  0  0  0  0
    6.4779   34.7209   75.2059 C   0  0  0  0  0  0  0  0  0  0  0  0
    6.6930   48.1674   69.9783 O   0  0  0  0  0  0  0  0  0  0  0  0
    5.5423   34.8627   74.1733 N   0  0  0  0  0  0  0  0  0  0  0  0
    5.9771   35.2944   72.9275 C   0  0  0  0  0  0  0  0  0  0  0  0
    7.3211   35.5977   72.7538 C   0  0  0  0  0  0  0  0  0  0  0  0
    5.1738   35.4363   72.0089 O   0  0  0  0  0  0  0  0  0  0  0  0
    7.2577   35.4548   70.4134 C   0  0  0  0  0  0  0  0  0  0  0  0
    7.8136   35.9672   71.5071 N   0  0  0  0  0  0  0  0  0  0  0  0
    7.4153   34.2692   70.1307 O   0  0  0  0  0  0  0  0  0  0  0  0
    9.0518   36.7491   71.4201 C   0  0  2  0  0  0  0  0  0  0  0  0
   10.1190   36.0777   72.2884 C   0  0  0  0  0  0  0  0  0  0  0  0
    8.2153   35.4112   73.7993 C   0  0  0  0  0  0  0  0  0  0  0  0
    9.5762   35.6751   73.6093 N   0  0  0  0  0  0  0  0  0  0  0  0
    8.8129   38.1871   71.8928 C   0  0  0  0  0  0  0  0  0  0  0  0
    7.7715   38.8119   71.0680 N   0  0  0  0  0  0  0  0  0  0  0  0
    7.2696   42.9116   70.8829 C   0  0  0  0  0  0  0  0  0  0  0  0
    7.8969   42.2231   69.8475 C   0  0  0  0  0  0  0  0  0  0  0  0
    8.0808   40.8440   69.9256 C   0  0  0  0  0  0  0  0  0  0  0  0
    7.5993   40.1325   71.0193 C   0  0  0  0  0  0  0  0  0  0  0  0
    6.9646   40.8173   72.0502 C   0  0  0  0  0  0  0  0  0  0  0  0
    6.8118   42.2017   71.9894 C   0  0  0  0  0  0  0  0  0  0  0  0
    7.3339   47.1533   69.6089 C   0  0  0  0  0  0  0  0  0  0  0  0
  1  3  1  0  0  0  0
  2  1  1  6  0  0  0
  2  6  1  0  0  0  0
  2 34  1  0  0  0  0
  3  4  2  0  0  0  0
  3 28  1  0  0  0  0
  5 13  1  0  0  0  0
  6  7  1  0  0  0  0
  7  8  1  0  0  0  0
  8  9  1  0  0  0  0
  8 10  1  0  0  0  0
 11 13  2  0  0  0  0
 11 24  1  0  0  0  0
 12 34  1  0  0  0  0
 13 15  1  0  0  0  0
 14 34  1  0  0  0  0
 15 16  1  0  0  0  0
 16 17  1  0  0  0  0
 16 18  2  0  0  0  0
 17 20  1  0  0  0  0
 17 24  2  0  0  0  0
 19 21  1  0  0  0  0
 19 20  1  0  0  0  0
 20 22  1  0  0  0  0
 22 23  1  0  0  0  0
 22 26  1  1  0  0  0
 23 25  1  0  0  0  0
 24 25  1  0  0  0  0
 26 27  1  0  0  0  0
 27 31  1  0  0  0  0
 28 29  2  0  0  0  0
 28 33  1  0  0  0  0
 29 30  1  0  0  0  0
 30 31  2  0  0  0  0
 31 32  1  0  0  0  0
 32 33  2  0  0  0  0
M  END
>  <CHROM.1>
-166.43316157,-56.04900996,-45.69180090,73.39192533,71.15551472,-70.44375791
-58.82924762,-162.42322631,101.89007120,-58.25974937,7.95243663,40.37575192
71.59332220,1.45504585,0.01847541,-0.25713918

>  <Name>
ligand

>  <RI>
0

>  <Rbt.Current_Directory>
/home/itssahil/PROJECTS/Mol_Feturizer/New_Systems/rnas/3SUH

>  <Rbt.Executable>
rbdock ($Id: //depot/dev/client3/rdock/2013.1/src/exe/rbdock.cxx#4 $)

>  <Rbt.Library>
libRbt.so (2013.1, Build901 2013/11/27)

>  <Rbt.Parameter_File>
/export/apps/rDock/src/rDock_2013.1_src/data/scripts/dock_solv.prm

>  <Rbt.Receptor>
prm/pocket_docking_8.prm

>  <SCORE>
-14.6075

>  <SCORE.INTER>
-9.95538

>  <SCORE.INTER.CONST>
1

>  <SCORE.INTER.POLAR>
0

>  <SCORE.INTER.ROT>
10

>  <SCORE.INTER.SOLV>
13.4619

>  <SCORE.INTER.VDW>
-21.3909

>  <SCORE.INTER.norm>
-0.292805

>  <SCORE.INTRA>
-4.65216

>  <SCORE.INTRA.DIHEDRAL>
-4.91119

>  <SCORE.INTRA.DIHEDRAL.0>
12.2703

>  <SCORE.INTRA.POLAR>
0

>  <SCORE.INTRA.POLAR.0>
0

>  <SCORE.INTRA.REPUL>
0

>  <SCORE.INTRA.REPUL.0>
0

>  <SCORE.INTRA.SOLV>
0.136652

>  <SCORE.INTRA.SOLV.lig_0>
-64.3214

>  <SCORE.INTRA.VDW>
-2.26489

>  <SCORE.INTRA.VDW.0>
-1.67301

>  <SCORE.INTRA.norm>
-0.136828

>  <SCORE.RESTR>
0

>  <SCORE.RESTR.CAVITY>
0

>  <SCORE.RESTR.norm>
0

>  <SCORE.SYSTEM>
0

>  <SCORE.SYSTEM.CONST>
0

>  <SCORE.SYSTEM.DIHEDRAL>
0

>  <SCORE.SYSTEM.SOLV>
0

>  <SCORE.SYSTEM.norm>
0

>  <SCORE.heavy>
34

>  <SCORE.norm>
-0.429633

>  <RMSD>
9.308

$$$$
ligand
 OpenBabel11021811483D
libRbt.so/2013.1/901 2013/11/27
 34 36  0  0  0  0  0  0  0  0999 V2000
    6.9137   45.0209   70.1349 N   0  0  0  0  0  0  0  0  0  0  0  0
    6.9913   46.4028   69.6067 C   0  0  1  0  0  0  0  0  0  0  0  0
    7.6392   43.9990   69.6621 C   0  0  0  0  0  0  0  0  0  0  0  0
    8.4497   44.0918   68.7360 O   0  0  0  0  0  0  0  0  0  0  0  0
    6.1261   40.5900   77.6076 N   0  0  0  0  0  0  0  0  0  0  0  0
    5.9383   47.2842   70.2993 C   0  0  0  0  0  0  0  0  0  0  0  0
    6.1268   47.2983   71.8223 C   0  0  0  0  0  0  0  0  0  0  0  0
    5.0666   48.1753   72.5059 C   0  0  0  0  0  0  0  0  0  0  0  0
    4.1211   47.5865   73.0806 O   0  0  0  0  0  0  0  0  0  0  0  0
    5.2266   49.4159   72.4409 O   0  0  0  0  0  0  0  0  0  0  0  0
    7.1062   39.1487   76.0843 N   0  0  0  0  0  0  0  0  0  0  0  0
    9.1202   46.5366   70.7009 O   0  0  0  0  0  0  0  0  0  0  0  0
    6.0055   39.6782   76.6461 C   0  0  0  0  0  0  0  0  0  0  0  0
    8.7052   47.9605   69.0308 O   0  0  0  0  0  0  0  0  0  0  0  0
    4.7285   39.2808   76.2302 N   0  0  0  0  0  0  0  0  0  0  0  0
    4.6149   38.3324   75.2227 C   0  0  0  0  0  0  0  0  0  0  0  0
    5.7714   37.8292   74.6414 C   0  0  0  0  0  0  0  0  0  0  0  0
    3.5057   37.9753   74.8338 O   0  0  0  0  0  0  0  0  0  0  0  0
    4.7327   35.9275   73.7431 C   0  0  0  0  0  0  0  0  0  0  0  0
    5.7082   36.8286   73.6780 N   0  0  0  0  0  0  0  0  0  0  0  0
    4.8328   34.9526   74.4847 O   0  0  0  0  0  0  0  0  0  0  0  0
    6.8178   36.6618   72.7329 C   0  0  2  0  0  0  0  0  0  0  0  0
    8.1312   36.6271   73.5184 C   0  0  0  0  0  0  0  0  0  0  0  0
    7.0150   38.2312   75.1096 C   0  0  0  0  0  0  0  0  0  0  0  0
    8.1789   37.6898   74.5527 N   0  0  0  0  0  0  0  0  0  0  0  0
    6.8374   37.8116   71.7199 C   0  0  0  0  0  0  0  0  0  0  0  0
    6.9616   39.0918   72.4276 N   0  0  0  0  0  0  0  0  0  0  0  0
    7.4281   42.6659   70.4025 C   0  0  0  0  0  0  0  0  0  0  0  0
    7.8948   41.4721   69.8577 C   0  0  0  0  0  0  0  0  0  0  0  0
    7.7523   40.2741   70.5549 C   0  0  0  0  0  0  0  0  0  0  0  0
    7.1014   40.2501   71.7838 C   0  0  0  0  0  0  0  0  0  0  0  0
    6.6268   41.4400   72.3252 C   0  0  0  0  0  0  0  0  0  0  0  0
    6.8005   42.6444   71.6448 C   0  0  0  0  0  0  0  0  0  0  0  0
    8.3937   47.0166   69.7974 C   0  0  0  0  0  0  0  0  0  0  0  0
  1  3  1  0  0  0  0
  2  1  1  1  0  0  0
  2  6  1  0  0  0  0
  2 34  1  0  0  0  0
  3  4  2  0  0  0  0
  3 28  1  0  0  0  0
  5 13  1  0  0  0  0
  6  7  1  0  0  0  0
  7  8  1  0  0  0  0
  8  9  1  0  0  0  0
  8 10  1  0  0  0  0
 11 13  2  0  0  0  0
 11 24  1  0  0  0  0
 12 34  1  0  0  0  0
 13 15  1  0  0  0  0
 14 34  1  0  0  0  0
 15 16  1  0  0  0  0
 16 17  1  0  0  0  0
 16 18  2  0  0  0  0
 17 20  1  0  0  0  0
 17 24  2  0  0  0  0
 19 21  1  0  0  0  0
 19 20  1  0  0  0  0
 20 22  1  0  0  0  0
 22 23  1  0  0  0  0
 22 26  1  6  0  0  0
 23 25  1  0  0  0  0
 24 25  1  0  0  0  0
 26 27  1  0  0  0  0
 27 31  1  0  0  0  0
 28 29  2  0  0  0  0
 28 33  1  0  0  0  0
 29 30  1  0  0  0  0
 30 31  2  0  0  0  0
 31 32  1  0  0  0  0
 32 33  2  0  0  0  0
M  END
>  <CHROM.1>
175.15035470,58.03217104,-22.93954293,-179.71746173,103.44152825,-82.50768900
58.28727920,174.97608092,-30.67787218,166.64653518,6.54781197,41.72387192
72.57703803,-1.39297782,-1.01028577,2.91292814

>  <Name>
ligand

>  <RI>
0

>  <Rbt.Current_Directory>
/home/itssahil/PROJECTS/Mol_Feturizer/New_Systems/rnas/3SUH

>  <Rbt.Executable>
rbdock ($Id: //depot/dev/client3/rdock/2013.1/src/exe/rbdock.cxx#4 $)

>  <Rbt.Library>
libRbt.so (2013.1, Build901 2013/11/27)

>  <Rbt.Parameter_File>
/export/apps/rDock/src/rDock_2013.1_src/data/scripts/dock_solv.prm

>  <Rbt.Receptor>
prm/pocket_docking_7.prm

>  <SCORE>
-9.7392

>  <SCORE.INTER>
-6.62249

>  <SCORE.INTER.CONST>
1

>  <SCORE.INTER.POLAR>
0

>  <SCORE.INTER.ROT>
10

>  <SCORE.INTER.SOLV>
8.15376

>  <SCORE.INTER.VDW>
-17.3996

>  <SCORE.INTER.norm>
-0.194779

>  <SCORE.INTRA>
-3.11671

>  <SCORE.INTRA.DIHEDRAL>
-6.14236

>  <SCORE.INTRA.DIHEDRAL.0>
12.2703

>  <SCORE.INTRA.POLAR>
0

>  <SCORE.INTRA.POLAR.0>
0

>  <SCORE.INTRA.REPUL>
0

>  <SCORE.INTRA.REPUL.0>
0

>  <SCORE.INTRA.SOLV>
1.87654

>  <SCORE.INTRA.SOLV.lig_0>
-64.3214

>  <SCORE.INTRA.VDW>
-0.983799

>  <SCORE.INTRA.VDW.0>
-1.67301

>  <SCORE.INTRA.norm>
-0.0916679

>  <SCORE.RESTR>
0

>  <SCORE.RESTR.CAVITY>
0

>  <SCORE.RESTR.norm>
0

>  <SCORE.SYSTEM>
0

>  <SCORE.SYSTEM.CONST>
0

>  <SCORE.SYSTEM.DIHEDRAL>
0

>  <SCORE.SYSTEM.SOLV>
0

>  <SCORE.SYSTEM.norm>
0

>  <SCORE.heavy>
34

>  <SCORE.norm>
-0.286447

>  <RMSD>
9.317

$$$$
ligand
 OpenBabel11021811483D
libRbt.so/2013.1/901 2013/11/27
 34 36  0  0  0  0  0  0  0  0999 V2000
    8.7027   43.0512   68.8931 N   0  0  0  0  0  0  0  0  0  0  0  0
    9.3398   41.7613   68.5395 C   0  0  1  0  0  0  0  0  0  0  0  0
    7.6533   43.1645   69.7177 C   0  0  0  0  0  0  0  0  0  0  0  0
    7.0994   42.2114   70.2728 O   0  0  0  0  0  0  0  0  0  0  0  0
    7.4489   44.7732   76.5685 N   0  0  0  0  0  0  0  0  0  0  0  0
   10.7214   42.0177   67.9145 C   0  0  0  0  0  0  0  0  0  0  0  0
   10.6263   42.9425   66.6934 C   0  0  0  0  0  0  0  0  0  0  0  0
   11.9942   43.5509   66.3484 C   0  0  0  0  0  0  0  0  0  0  0  0
   12.5889   44.1747   67.2585 O   0  0  0  0  0  0  0  0  0  0  0  0
   12.4165   43.3764   65.1822 O   0  0  0  0  0  0  0  0  0  0  0  0
    7.1525   46.8991   75.7017 N   0  0  0  0  0  0  0  0  0  0  0  0
   10.3483   41.1337   70.6220 O   0  0  0  0  0  0  0  0  0  0  0  0
    7.5974   45.6375   75.5678 C   0  0  0  0  0  0  0  0  0  0  0  0
    8.7222   39.8366   69.8082 O   0  0  0  0  0  0  0  0  0  0  0  0
    8.2176   45.2198   74.3835 N   0  0  0  0  0  0  0  0  0  0  0  0
    8.3627   46.1290   73.3443 C   0  0  0  0  0  0  0  0  0  0  0  0
    7.8634   47.4150   73.5033 C   0  0  0  0  0  0  0  0  0  0  0  0
    8.8942   45.7834   72.2921 O   0  0  0  0  0  0  0  0  0  0  0  0
    9.1495   48.3440   71.7756 C   0  0  0  0  0  0  0  0  0  0  0  0
    8.0466   48.3781   72.5173 N   0  0  0  0  0  0  0  0  0  0  0  0
   10.2228   48.7265   72.2362 O   0  0  0  0  0  0  0  0  0  0  0  0
    7.1312   49.5220   72.4431 C   0  0  2  0  0  0  0  0  0  0  0  0
    7.0014   50.1390   73.8380 C   0  0  0  0  0  0  0  0  0  0  0  0
    7.2844   47.7906   74.7079 C   0  0  0  0  0  0  0  0  0  0  0  0
    6.8218   49.0997   74.8817 N   0  0  0  0  0  0  0  0  0  0  0  0
    5.7568   49.0773   71.9314 C   0  0  0  0  0  0  0  0  0  0  0  0
    5.8946   48.4867   70.5944 N   0  0  0  0  0  0  0  0  0  0  0  0
    7.1950   44.6109   69.9776 C   0  0  0  0  0  0  0  0  0  0  0  0
    7.6830   45.6585   69.2002 C   0  0  0  0  0  0  0  0  0  0  0  0
    7.2252   46.9593   69.4000 C   0  0  0  0  0  0  0  0  0  0  0  0
    6.3083   47.2336   70.4092 C   0  0  0  0  0  0  0  0  0  0  0  0
    5.8267   46.1901   71.1924 C   0  0  0  0  0  0  0  0  0  0  0  0
    6.2573   44.8829   70.9698 C   0  0  0  0  0  0  0  0  0  0  0  0
    9.4840   40.8333   69.7634 C   0  0  0  0  0  0  0  0  0  0  0  0
  1  3  1  0  0  0  0
  2  1  1  1  0  0  0
  2  6  1  0  0  0  0
  2 34  1  0  0  0  0
  3  4  2  0  0  0  0
  3 28  1  0  0  0  0
  5 13  1  0  0  0  0
  6  7  1  0  0  0  0
  7  8  1  0  0  0  0
  8  9  1  0  0  0  0
  8 10  1  0  0  0  0
 11 13  2  0  0  0  0
 11 24  1  0  0  0  0
 12 34  1  0  0  0  0
 13 15  1  0  0  0  0
 14 34  1  0  0  0  0
 15 16  1  0  0  0  0
 16 17  1  0  0  0  0
 16 18  2  0  0  0  0
 17 20  1  0  0  0  0
 17 24  2  0  0  0  0
 19 21  1  0  0  0  0
 19 20  1  0  0  0  0
 20 22  1  0  0  0  0
 22 23  1  0  0  0  0
 22 26  1  1  0  0  0
 23 25  1  0  0  0  0
 24 25  1  0  0  0  0
 26 27  1  0  0  0  0
 27 31  1  0  0  0  0
 28 29  2  0  0  0  0
 28 33  1  0  0  0  0
 29 30  1  0  0  0  0
 30 31  2  0  0  0  0
 31 32  1  0  0  0  0
 32 33  2  0  0  0  0
M  END
>  <CHROM.1>
-164.10580964,-56.26488352,-72.35988080,161.91461728,-55.27216709,-75.98326461
-59.77140880,79.95373938,-137.13380289,11.85016852,8.40922693,45.38842187
71.09188135,0.49704195,-1.14235849,2.91302398

>  <Name>
ligand

>  <RI>
0

>  <Rbt.Current_Directory>
/home/itssahil/PROJECTS/Mol_Feturizer/New_Systems/rnas/3SUH

>  <Rbt.Executable>
rbdock ($Id: //depot/dev/client3/rdock/2013.1/src/exe/rbdock.cxx#4 $)

>  <Rbt.Library>
libRbt.so (2013.1, Build901 2013/11/27)

>  <Rbt.Parameter_File>
/export/apps/rDock/src/rDock_2013.1_src/data/scripts/dock_solv.prm

>  <Rbt.Receptor>
prm/pocket_docking_7.prm

>  <SCORE>
-16.9596

>  <SCORE.INTER>
-11.6407

>  <SCORE.INTER.CONST>
1

>  <SCORE.INTER.POLAR>
0

>  <SCORE.INTER.ROT>
10

>  <SCORE.INTER.SOLV>
8.67087

>  <SCORE.INTER.VDW>
-20.9174

>  <SCORE.INTER.norm>
-0.342372

>  <SCORE.INTRA>
-5.31899

>  <SCORE.INTRA.DIHEDRAL>
-4.33376

>  <SCORE.INTRA.DIHEDRAL.0>
12.2703

>  <SCORE.INTRA.POLAR>
0

>  <SCORE.INTRA.POLAR.0>
0

>  <SCORE.INTRA.REPUL>
0

>  <SCORE.INTRA.REPUL.0>
0

>  <SCORE.INTRA.SOLV>
0.57577

>  <SCORE.INTRA.SOLV.lig_0>
-64.3214

>  <SCORE.INTRA.VDW>
-3.43999

>  <SCORE.INTRA.VDW.0>
-1.67301

>  <SCORE.INTRA.norm>
-0.156441

>  <SCORE.RESTR>
0

>  <SCORE.RESTR.CAVITY>
0

>  <SCORE.RESTR.norm>
0

>  <SCORE.SYSTEM>
0

>  <SCORE.SYSTEM.CONST>
0

>  <SCORE.SYSTEM.DIHEDRAL>
0

>  <SCORE.SYSTEM.SOLV>
0

>  <SCORE.SYSTEM.norm>
0

>  <SCORE.heavy>
34

>  <SCORE.norm>
-0.498813

>  <RMSD>
9.362

$$$$
ligand
 OpenBabel11021811483D
libRbt.so/2013.1/901 2013/11/27
 34 36  0  0  0  0  0  0  0  0999 V2000
   10.0159   41.9464   70.6277 N   0  0  0  0  0  0  0  0  0  0  0  0
   11.1616   41.5945   69.7569 C   0  0  1  0  0  0  0  0  0  0  0  0
    8.7469   41.6068   70.3659 C   0  0  0  0  0  0  0  0  0  0  0  0
    8.3894   40.9667   69.3731 O   0  0  0  0  0  0  0  0  0  0  0  0
    9.0394   49.6718   76.2672 N   0  0  0  0  0  0  0  0  0  0  0  0
   12.3467   42.5286   70.0538 C   0  0  0  0  0  0  0  0  0  0  0  0
   11.9491   44.0051   69.9219 C   0  0  0  0  0  0  0  0  0  0  0  0
   13.0819   44.9303   70.3918 C   0  0  0  0  0  0  0  0  0  0  0  0
   13.4667   44.8066   71.5783 O   0  0  0  0  0  0  0  0  0  0  0  0
   13.5402   45.7397   69.5530 O   0  0  0  0  0  0  0  0  0  0  0  0
    8.6869   47.4166   75.8820 N   0  0  0  0  0  0  0  0  0  0  0  0
   12.5625   39.7158   69.2513 O   0  0  0  0  0  0  0  0  0  0  0  0
    8.3891   48.5455   76.5485 C   0  0  0  0  0  0  0  0  0  0  0  0
   10.9424   39.4423   70.7644 O   0  0  0  0  0  0  0  0  0  0  0  0
    7.3987   48.5513   77.5389 N   0  0  0  0  0  0  0  0  0  0  0  0
    6.7233   47.3714   77.8204 C   0  0  0  0  0  0  0  0  0  0  0  0
    7.0329   46.2307   77.0914 C   0  0  0  0  0  0  0  0  0  0  0  0
    5.8436   47.3537   78.6776 O   0  0  0  0  0  0  0  0  0  0  0  0
    6.0960   44.7414   78.6427 C   0  0  0  0  0  0  0  0  0  0  0  0
    6.4318   45.0117   77.3849 N   0  0  0  0  0  0  0  0  0  0  0  0
    4.9731   44.3204   78.9115 O   0  0  0  0  0  0  0  0  0  0  0  0
    6.3602   43.9721   76.3524 C   0  0  2  0  0  0  0  0  0  0  0  0
    7.7492   43.7984   75.7328 C   0  0  0  0  0  0  0  0  0  0  0  0
    8.0444   46.2677   76.1411 C   0  0  0  0  0  0  0  0  0  0  0  0
    8.3851   45.1064   75.4388 N   0  0  0  0  0  0  0  0  0  0  0  0
    5.3436   44.3575   75.2723 C   0  0  0  0  0  0  0  0  0  0  0  0
    5.0903   43.2053   74.3984 N   0  0  0  0  0  0  0  0  0  0  0  0
    7.7329   42.0372   71.4412 C   0  0  0  0  0  0  0  0  0  0  0  0
    7.2896   41.1293   72.3998 C   0  0  0  0  0  0  0  0  0  0  0  0
    6.4147   41.5349   73.4057 C   0  0  0  0  0  0  0  0  0  0  0  0
    5.9384   42.8412   73.4373 C   0  0  0  0  0  0  0  0  0  0  0  0
    6.3731   43.7469   72.4754 C   0  0  0  0  0  0  0  0  0  0  0  0
    7.2761   43.3513   71.4897 C   0  0  0  0  0  0  0  0  0  0  0  0
   11.5958   40.1254   69.9386 C   0  0  0  0  0  0  0  0  0  0  0  0
  1  3  1  0  0  0  0
  2  1  1  1  0  0  0
  2  6  1  0  0  0  0
  2 34  1  0  0  0  0
  3  4  2  0  0  0  0
  3 28  1  0  0  0  0
  5 13  1  0  0  0  0
  6  7  1  0  0  0  0
  7  8  1  0  0  0  0
  8  9  1  0  0  0  0
  8 10  1  0  0  0  0
 11 13  2  0  0  0  0
 11 24  1  0  0  0  0
 12 34  1  0  0  0  0
 13 15  1  0  0  0  0
 14 34  1  0  0  0  0
 15 16  1  0  0  0  0
 16 17  1  0  0  0  0
 16 18  2  0  0  0  0
 17 20  1  0  0  0  0
 17 24  2  0  0  0  0
 19 21  1  0  0  0  0
 19 20  1  0  0  0  0
 20 22  1  0  0  0  0
 22 23  1  0  0  0  0
 22 26  1  6  0  0  0
 23 25  1  0  0  0  0
 24 25  1  0  0  0  0
 26 27  1  0  0  0  0
 27 31  1  0  0  0  0
 28 29  2  0  0  0  0
 28 33  1  0  0  0  0
 29 30  1  0  0  0  0
 30 31  2  0  0  0  0
 31 32  1  0  0  0  0
 32 33  2  0  0  0  0
M  END
>  <CHROM.1>
159.80198053,-54.92540867,-179.83601988,172.76014686,-59.48893649,131.06088496
-168.95262093,-78.23336742,125.65636185,-98.85224731,8.61103992,44.05035938
73.64684214,0.95618457,-0.59067213,-2.48926985

>  <Name>
ligand

>  <RI>
0

>  <Rbt.Current_Directory>
/home/itssahil/PROJECTS/Mol_Feturizer/New_Systems/rnas/3SUH

>  <Rbt.Executable>
rbdock ($Id: //depot/dev/client3/rdock/2013.1/src/exe/rbdock.cxx#4 $)

>  <Rbt.Library>
libRbt.so (2013.1, Build901 2013/11/27)

>  <Rbt.Parameter_File>
/export/apps/rDock/src/rDock_2013.1_src/data/scripts/dock_solv.prm

>  <Rbt.Receptor>
prm/pocket_docking_8.prm

>  <SCORE>
-6.09873

>  <SCORE.INTER>
-2.06891

>  <SCORE.INTER.CONST>
1

>  <SCORE.INTER.POLAR>
0

>  <SCORE.INTER.ROT>
10

>  <SCORE.INTER.SOLV>
6.23374

>  <SCORE.INTER.VDW>
-13.7239

>  <SCORE.INTER.norm>
-0.0608504

>  <SCORE.INTRA>
-4.02982

>  <SCORE.INTRA.DIHEDRAL>
-4.71832

>  <SCORE.INTRA.DIHEDRAL.0>
12.2703

>  <SCORE.INTRA.POLAR>
0

>  <SCORE.INTRA.POLAR.0>
0

>  <SCORE.INTRA.REPUL>
0

>  <SCORE.INTRA.REPUL.0>
0

>  <SCORE.INTRA.SOLV>
-0.699817

>  <SCORE.INTRA.SOLV.lig_0>
-64.3214

>  <SCORE.INTRA.VDW>
-1.32075

>  <SCORE.INTRA.VDW.0>
-1.67301

>  <SCORE.INTRA.norm>
-0.118524

>  <SCORE.RESTR>
0

>  <SCORE.RESTR.CAVITY>
0

>  <SCORE.RESTR.norm>
0

>  <SCORE.SYSTEM>
0

>  <SCORE.SYSTEM.CONST>
0

>  <SCORE.SYSTEM.DIHEDRAL>
0

>  <SCORE.SYSTEM.SOLV>
0

>  <SCORE.SYSTEM.norm>
0

>  <SCORE.heavy>
34

>  <SCORE.norm>
-0.179374

>  <RMSD>
9.436

$$$$
ligand
 OpenBabel11021811483D
libRbt.so/2013.1/901 2013/11/27
 34 36  0  0  0  0  0  0  0  0999 V2000
    9.7206   42.9102   69.1611 N   0  0  0  0  0  0  0  0  0  0  0  0
   10.5506   43.4466   68.0574 C   0  0  1  0  0  0  0  0  0  0  0  0
    8.5287   42.3256   68.9830 C   0  0  0  0  0  0  0  0  0  0  0  0
    7.9882   42.1698   67.8845 O   0  0  0  0  0  0  0  0  0  0  0  0
    9.6961   46.0761   76.2545 N   0  0  0  0  0  0  0  0  0  0  0  0
   11.8722   43.9959   68.6201 C   0  0  0  0  0  0  0  0  0  0  0  0
   11.6316   45.1496   69.6032 C   0  0  0  0  0  0  0  0  0  0  0  0
   12.9538   45.6606   70.1956 C   0  0  0  0  0  0  0  0  0  0  0  0
   13.5455   44.9098   71.0062 O   0  0  0  0  0  0  0  0  0  0  0  0
   13.3452   46.7904   69.8225 O   0  0  0  0  0  0  0  0  0  0  0  0
    8.6162   44.1132   76.8367 N   0  0  0  0  0  0  0  0  0  0  0  0
   11.4436   42.7485   65.9448 O   0  0  0  0  0  0  0  0  0  0  0  0
    8.6928   45.2202   76.0777 C   0  0  0  0  0  0  0  0  0  0  0  0
   10.4537   41.2111   67.2276 O   0  0  0  0  0  0  0  0  0  0  0  0
    7.7263   45.4849   75.0993 N   0  0  0  0  0  0  0  0  0  0  0  0
    6.6867   44.5822   74.9205 C   0  0  0  0  0  0  0  0  0  0  0  0
    6.6547   43.4328   75.6990 C   0  0  0  0  0  0  0  0  0  0  0  0
    5.8325   44.7874   74.0618 O   0  0  0  0  0  0  0  0  0  0  0  0
    4.3826   42.9941   75.3152 C   0  0  0  0  0  0  0  0  0  0  0  0
    5.5970   42.5354   75.6029 N   0  0  0  0  0  0  0  0  0  0  0  0
    3.7706   43.6884   76.1237 O   0  0  0  0  0  0  0  0  0  0  0  0
    5.7912   41.1401   76.0124 C   0  0  2  0  0  0  0  0  0  0  0  0
    6.4429   41.1206   77.3974 C   0  0  0  0  0  0  0  0  0  0  0  0
    7.6186   43.2302   76.6774 C   0  0  0  0  0  0  0  0  0  0  0  0
    7.5595   42.0932   77.4907 N   0  0  0  0  0  0  0  0  0  0  0  0
    6.6752   40.4021   75.0013 C   0  0  0  0  0  0  0  0  0  0  0  0
    6.0189   40.3888   73.6881 N   0  0  0  0  0  0  0  0  0  0  0  0
    7.8737   41.7986   70.2726 C   0  0  0  0  0  0  0  0  0  0  0  0
    7.2686   42.6764   71.1688 C   0  0  0  0  0  0  0  0  0  0  0  0
    6.6277   42.1927   72.3077 C   0  0  0  0  0  0  0  0  0  0  0  0
    6.6240   40.8300   72.5858 C   0  0  0  0  0  0  0  0  0  0  0  0
    7.2355   39.9528   71.6964 C   0  0  0  0  0  0  0  0  0  0  0  0
    7.8461   40.4325   70.5385 C   0  0  0  0  0  0  0  0  0  0  0  0
   10.8435   42.3790   66.9831 C   0  0  0  0  0  0  0  0  0  0  0  0
  1  3  1  0  0  0  0
  2  1  1  1  0  0  0
  2  6  1  0  0  0  0
  2 34  1  0  0  0  0
  3  4  2  0  0  0  0
  3 28  1  0  0  0  0
  5 13  1  0  0  0  0
  6  7  1  0  0  0  0
  7  8  1  0  0  0  0
  8  9  1  0  0  0  0
  8 10  1  0  0  0  0
 11 13  2  0  0  0  0
 11 24  1  0  0  0  0
 12 34  1  0  0  0  0
 13 15  1  0  0  0  0
 14 34  1  0  0  0  0
 15 16  1  0  0  0  0
 16 17  1  0  0  0  0
 16 18  2  0  0  0  0
 17 20  1  0  0  0  0
 17 24  2  0  0  0  0
 19 21  1  0  0  0  0
 19 20  1  0  0  0  0
 20 22  1  0  0  0  0
 22 23  1  0  0  0  0
 22 26  1  6  0  0  0
 23 25  1  0  0  0  0
 24 25  1  0  0  0  0
 26 27  1  0  0  0  0
 27 31  1  0  0  0  0
 28 29  2  0  0  0  0
 28 33  1  0  0  0  0
 29 30  1  0  0  0  0
 30 31  2  0  0  0  0
 31 32  1  0  0  0  0
 32 33  2  0  0  0  0
M  END
>  <CHROM.1>
-177.87408260,-61.51219107,174.14635047,178.10284157,-70.61062269,-68.29362836
-61.70026320,126.04762824,-82.71891081,76.27809431,8.40478132,43.07068556
72.43391764,0.80375813,-0.68659311,-2.03528807

>  <Name>
ligand

>  <RI>
0

>  <Rbt.Current_Directory>
/home/itssahil/PROJECTS/Mol_Feturizer/New_Systems/rnas/3SUH

>  <Rbt.Executable>
rbdock ($Id: //depot/dev/client3/rdock/2013.1/src/exe/rbdock.cxx#4 $)

>  <Rbt.Library>
libRbt.so (2013.1, Build901 2013/11/27)

>  <Rbt.Parameter_File>
/export/apps/rDock/src/rDock_2013.1_src/data/scripts/dock_solv.prm

>  <Rbt.Receptor>
prm/pocket_docking_6.prm

>  <SCORE>
-15.8672

>  <SCORE.INTER>
-10.881

>  <SCORE.INTER.CONST>
1

>  <SCORE.INTER.POLAR>
0

>  <SCORE.INTER.ROT>
10

>  <SCORE.INTER.SOLV>
10.7746

>  <SCORE.INTER.VDW>
-21.1122

>  <SCORE.INTER.norm>
-0.32003

>  <SCORE.INTRA>
-4.98617

>  <SCORE.INTRA.DIHEDRAL>
-4.76643

>  <SCORE.INTRA.DIHEDRAL.0>
12.2703

>  <SCORE.INTRA.POLAR>
0

>  <SCORE.INTRA.POLAR.0>
0

>  <SCORE.INTRA.REPUL>
0

>  <SCORE.INTRA.REPUL.0>
0

>  <SCORE.INTRA.SOLV>
-0.138745

>  <SCORE.INTRA.SOLV.lig_0>
-64.3214

>  <SCORE.INTRA.VDW>
-2.53358

>  <SCORE.INTRA.VDW.0>
-1.67301

>  <SCORE.INTRA.norm>
-0.146652

>  <SCORE.RESTR>
0

>  <SCORE.RESTR.CAVITY>
0

>  <SCORE.RESTR.norm>
0

>  <SCORE.SYSTEM>
0

>  <SCORE.SYSTEM.CONST>
0

>  <SCORE.SYSTEM.DIHEDRAL>
0

>  <SCORE.SYSTEM.SOLV>
0

>  <SCORE.SYSTEM.norm>
0

>  <SCORE.heavy>
34

>  <SCORE.norm>
-0.466682

>  <RMSD>
9.447

$$$$
ligand
 OpenBabel11021811483D
libRbt.so/2013.1/901 2013/11/27
 34 36  0  0  0  0  0  0  0  0999 V2000
    9.7824   42.7989   69.0323 N   0  0  0  0  0  0  0  0  0  0  0  0
   10.5973   43.5700   68.0648 C   0  0  1  0  0  0  0  0  0  0  0  0
    8.5148   43.0973   69.3458 C   0  0  0  0  0  0  0  0  0  0  0  0
    7.8852   44.0451   68.8678 O   0  0  0  0  0  0  0  0  0  0  0  0
   10.4699   42.9828   78.3493 N   0  0  0  0  0  0  0  0  0  0  0  0
   11.9661   43.8994   68.6838 C   0  0  0  0  0  0  0  0  0  0  0  0
   11.8215   44.7388   69.9605 C   0  0  0  0  0  0  0  0  0  0  0  0
   13.1946   45.0986   70.5482 C   0  0  0  0  0  0  0  0  0  0  0  0
   13.8128   46.0505   70.0165 O   0  0  0  0  0  0  0  0  0  0  0  0
   13.5949   44.4151   71.5184 O   0  0  0  0  0  0  0  0  0  0  0  0
    8.7437   41.5079   77.8984 N   0  0  0  0  0  0  0  0  0  0  0  0
   11.1753   43.4666   65.7403 O   0  0  0  0  0  0  0  0  0  0  0  0
    9.4039   42.6472   77.6272 C   0  0  0  0  0  0  0  0  0  0  0  0
   10.5516   41.5764   66.7537 O   0  0  0  0  0  0  0  0  0  0  0  0
    8.9823   43.4885   76.5898 N   0  0  0  0  0  0  0  0  0  0  0  0
    7.8717   43.1257   75.8399 C   0  0  0  0  0  0  0  0  0  0  0  0
    7.2319   41.9267   76.1253 C   0  0  0  0  0  0  0  0  0  0  0  0
    7.4888   43.8421   74.9183 O   0  0  0  0  0  0  0  0  0  0  0  0
    5.2362   42.5001   75.0342 C   0  0  0  0  0  0  0  0  0  0  0  0
    6.0763   41.5558   75.4468 N   0  0  0  0  0  0  0  0  0  0  0  0
    4.2690   42.8184   75.7225 O   0  0  0  0  0  0  0  0  0  0  0  0
    5.7029   40.1390   75.3727 C   0  0  2  0  0  0  0  0  0  0  0  0
    5.7654   39.5400   76.7801 C   0  0  0  0  0  0  0  0  0  0  0  0
    7.6687   41.1418   77.1839 C   0  0  0  0  0  0  0  0  0  0  0  0
    6.9955   39.9560   77.4979 N   0  0  0  0  0  0  0  0  0  0  0  0
    6.6490   39.3830   74.4335 C   0  0  0  0  0  0  0  0  0  0  0  0
    6.1687   39.4978   73.0509 N   0  0  0  0  0  0  0  0  0  0  0  0
    7.8529   42.1230   70.3370 C   0  0  0  0  0  0  0  0  0  0  0  0
    8.0178   40.7474   70.1942 C   0  0  0  0  0  0  0  0  0  0  0  0
    7.4645   39.8693   71.1240 C   0  0  0  0  0  0  0  0  0  0  0  0
    6.7024   40.3549   72.1812 C   0  0  0  0  0  0  0  0  0  0  0  0
    6.5292   41.7279   72.3202 C   0  0  0  0  0  0  0  0  0  0  0  0
    7.1122   42.6091   71.4107 C   0  0  0  0  0  0  0  0  0  0  0  0
   10.7936   42.8080   66.7379 C   0  0  0  0  0  0  0  0  0  0  0  0
  1  3  1  0  0  0  0
  2  1  1  1  0  0  0
  2  6  1  0  0  0  0
  2 34  1  0  0  0  0
  3  4  2  0  0  0  0
  3 28  1  0  0  0  0
  5 13  1  0  0  0  0
  6  7  1  0  0  0  0
  7  8  1  0  0  0  0
  8  9  1  0  0  0  0
  8 10  1  0  0  0  0
 11 13  2  0  0  0  0
 11 24  1  0  0  0  0
 12 34  1  0  0  0  0
 13 15  1  0  0  0  0
 14 34  1  0  0  0  0
 15 16  1  0  0  0  0
 16 17  1  0  0  0  0
 16 18  2  0  0  0  0
 17 20  1  0  0  0  0
 17 24  2  0  0  0  0
 19 21  1  0  0  0  0
 19 20  1  0  0  0  0
 20 22  1  0  0  0  0
 22 23  1  0  0  0  0
 22 26  1  6  0  0  0
 23 25  1  0  0  0  0
 24 25  1  0  0  0  0
 26 27  1  0  0  0  0
 27 31  1  0  0  0  0
 28 29  2  0  0  0  0
 28 33  1  0  0  0  0
 29 30  1  0  0  0  0
 30 31  2  0  0  0  0
 31 32  1  0  0  0  0
 32 33  2  0  0  0  0
M  END
>  <CHROM.1>
130.92613244,-60.19703632,163.08458658,-178.28782300,79.63489853,-94.91616463
-85.93209257,100.87247172,109.60651761,-43.51650719,8.64438400,42.38249377
72.62275783,0.99465952,-0.56954591,-1.63086349

>  <Name>
ligand

>  <RI>
0

>  <Rbt.Current_Directory>
/home/itssahil/PROJECTS/Mol_Feturizer/New_Systems/rnas/3SUH

>  <Rbt.Executable>
rbdock ($Id: //depot/dev/client3/rdock/2013.1/src/exe/rbdock.cxx#4 $)

>  <Rbt.Library>
libRbt.so (2013.1, Build901 2013/11/27)

>  <Rbt.Parameter_File>
/export/apps/rDock/src/rDock_2013.1_src/data/scripts/dock_solv.prm

>  <Rbt.Receptor>
prm/pocket_docking_5.prm

>  <SCORE>
-15.1797

>  <SCORE.INTER>
-11.447

>  <SCORE.INTER.CONST>
1

>  <SCORE.INTER.POLAR>
0

>  <SCORE.INTER.ROT>
10

>  <SCORE.INTER.SOLV>
10.7633

>  <SCORE.INTER.VDW>
-21.4858

>  <SCORE.INTER.norm>
-0.336676

>  <SCORE.INTRA>
-3.78612

>  <SCORE.INTRA.DIHEDRAL>
-1.9359

>  <SCORE.INTRA.DIHEDRAL.0>
12.2703

>  <SCORE.INTRA.POLAR>
0

>  <SCORE.INTRA.POLAR.0>
0

>  <SCORE.INTRA.REPUL>
0

>  <SCORE.INTRA.REPUL.0>
0

>  <SCORE.INTRA.SOLV>
-0.663287

>  <SCORE.INTRA.SOLV.lig_0>
-64.3214

>  <SCORE.INTRA.VDW>
-2.48652

>  <SCORE.INTRA.VDW.0>
-1.67301

>  <SCORE.INTRA.norm>
-0.111356

>  <SCORE.RESTR>
0.0534196

>  <SCORE.RESTR.CAVITY>
0.0534196

>  <SCORE.RESTR.norm>
0.00157116

>  <SCORE.SYSTEM>
0

>  <SCORE.SYSTEM.CONST>
0

>  <SCORE.SYSTEM.DIHEDRAL>
0

>  <SCORE.SYSTEM.SOLV>
0

>  <SCORE.SYSTEM.norm>
0

>  <SCORE.heavy>
34

>  <SCORE.norm>
-0.446461

>  <RMSD>
9.519

$$$$
ligand
 OpenBabel11021811483D
libRbt.so/2013.1/901 2013/11/27
 34 36  0  0  0  0  0  0  0  0999 V2000
    7.6428   41.2332   70.8296 N   0  0  0  0  0  0  0  0  0  0  0  0
    8.1374   42.2791   69.9043 C   0  0  1  0  0  0  0  0  0  0  0  0
    8.3846   40.2034   71.2577 C   0  0  0  0  0  0  0  0  0  0  0  0
    9.5586   40.0089   70.9302 O   0  0  0  0  0  0  0  0  0  0  0  0
   10.3682   41.4483   77.2226 N   0  0  0  0  0  0  0  0  0  0  0  0
    8.0740   41.7648   68.4563 C   0  0  0  0  0  0  0  0  0  0  0  0
    9.2559   40.8409   68.1327 C   0  0  0  0  0  0  0  0  0  0  0  0
   10.5673   41.6334   68.0213 C   0  0  0  0  0  0  0  0  0  0  0  0
   11.4035   41.4884   68.9436 O   0  0  0  0  0  0  0  0  0  0  0  0
   10.7058   42.3652   67.0143 O   0  0  0  0  0  0  0  0  0  0  0  0
    8.9220   39.7711   77.8961 N   0  0  0  0  0  0  0  0  0  0  0  0
    6.4590   43.6510   70.9284 O   0  0  0  0  0  0  0  0  0  0  0  0
    9.2125   40.8035   77.0855 C   0  0  0  0  0  0  0  0  0  0  0  0
    7.6101   44.5018   69.2137 O   0  0  0  0  0  0  0  0  0  0  0  0
    8.3104   41.2104   76.0943 N   0  0  0  0  0  0  0  0  0  0  0  0
    7.1097   40.5269   75.9573 C   0  0  0  0  0  0  0  0  0  0  0  0
    6.8547   39.4450   76.7896 C   0  0  0  0  0  0  0  0  0  0  0  0
    6.3068   40.8586   75.0887 O   0  0  0  0  0  0  0  0  0  0  0  0
    4.5377   39.4530   76.4241 C   0  0  0  0  0  0  0  0  0  0  0  0
    5.6379   38.7743   76.7350 N   0  0  0  0  0  0  0  0  0  0  0  0
    4.0277   40.2203   77.2375 O   0  0  0  0  0  0  0  0  0  0  0  0
    5.5522   37.3892   77.2107 C   0  0  2  0  0  0  0  0  0  0  0  0
    6.1982   37.3044   78.5959 C   0  0  0  0  0  0  0  0  0  0  0  0
    7.7666   39.0995   77.7778 C   0  0  0  0  0  0  0  0  0  0  0  0
    7.4878   38.0368   78.6443 N   0  0  0  0  0  0  0  0  0  0  0  0
    6.2622   36.4424   76.2370 C   0  0  0  0  0  0  0  0  0  0  0  0
    5.7828   36.6875   74.8712 N   0  0  0  0  0  0  0  0  0  0  0  0
    7.6735   39.2719   72.2559 C   0  0  0  0  0  0  0  0  0  0  0  0
    6.3502   38.8904   72.0486 C   0  0  0  0  0  0  0  0  0  0  0  0
    5.7255   38.0031   72.9228 C   0  0  0  0  0  0  0  0  0  0  0  0
    6.4029   37.5231   74.0387 C   0  0  0  0  0  0  0  0  0  0  0  0
    7.7216   37.9101   74.2521 C   0  0  0  0  0  0  0  0  0  0  0  0
    8.3589   38.7698   73.3586 C   0  0  0  0  0  0  0  0  0  0  0  0
    7.3322   43.5891   70.0294 C   0  0  0  0  0  0  0  0  0  0  0  0
  1  3  1  0  0  0  0
  2  1  1  1  0  0  0
  2  6  1  0  0  0  0
  2 34  1  0  0  0  0
  3  4  2  0  0  0  0
  3 28  1  0  0  0  0
  5 13  1  0  0  0  0
  6  7  1  0  0  0  0
  7  8  1  0  0  0  0
  8  9  1  0  0  0  0
  8 10  1  0  0  0  0
 11 13  2  0  0  0  0
 11 24  1  0  0  0  0
 12 34  1  0  0  0  0
 13 15  1  0  0  0  0
 14 34  1  0  0  0  0
 15 16  1  0  0  0  0
 16 17  1  0  0  0  0
 16 18  2  0  0  0  0
 17 20  1  0  0  0  0
 17 24  2  0  0  0  0
 19 21  1  0  0  0  0
 19 20  1  0  0  0  0
 20 22  1  0  0  0  0
 22 23  1  0  0  0  0
 22 26  1  6  0  0  0
 23 25  1  0  0  0  0
 24 25  1  0  0  0  0
 26 27  1  0  0  0  0
 27 31  1  0  0  0  0
 28 29  2  0  0  0  0
 28 33  1  0  0  0  0
 29 30  1  0  0  0  0
 30 31  2  0  0  0  0
 31 32  1  0  0  0  0
 32 33  2  0  0  0  0
M  END
>  <CHROM.1>
81.02796228,-79.41549272,5.09511365,-71.66100748,108.48898490,-73.69915250
-50.74170663,93.26519505,-162.09015007,42.74700007,7.59142815,40.11804761
73.53640037,1.13841432,-0.86015970,-1.50695139

>  <Name>
ligand

>  <RI>
0

>  <Rbt.Current_Directory>
/home/itssahil/PROJECTS/Mol_Feturizer/New_Systems/rnas/3SUH

>  <Rbt.Executable>
rbdock ($Id: //depot/dev/client3/rdock/2013.1/src/exe/rbdock.cxx#4 $)

>  <Rbt.Library>
libRbt.so (2013.1, Build901 2013/11/27)

>  <Rbt.Parameter_File>
/export/apps/rDock/src/rDock_2013.1_src/data/scripts/dock_solv.prm

>  <Rbt.Receptor>
prm/pocket_docking_7.prm

>  <SCORE>
-8.78309

>  <SCORE.INTER>
-4.06007

>  <SCORE.INTER.CONST>
1

>  <SCORE.INTER.POLAR>
0

>  <SCORE.INTER.ROT>
10

>  <SCORE.INTER.SOLV>
5.71236

>  <SCORE.INTER.VDW>
-14.8775

>  <SCORE.INTER.norm>
-0.119414

>  <SCORE.INTRA>
-4.72302

>  <SCORE.INTRA.DIHEDRAL>
-2.87327

>  <SCORE.INTRA.DIHEDRAL.0>
12.2703

>  <SCORE.INTRA.POLAR>
0

>  <SCORE.INTRA.POLAR.0>
0

>  <SCORE.INTRA.REPUL>
0

>  <SCORE.INTRA.REPUL.0>
0

>  <SCORE.INTRA.SOLV>
0.654978

>  <SCORE.INTRA.SOLV.lig_0>
-64.3214

>  <SCORE.INTRA.VDW>
-3.61387

>  <SCORE.INTRA.VDW.0>
-1.67301

>  <SCORE.INTRA.norm>
-0.138912

>  <SCORE.RESTR>
0

>  <SCORE.RESTR.CAVITY>
0

>  <SCORE.RESTR.norm>
0

>  <SCORE.SYSTEM>
0

>  <SCORE.SYSTEM.CONST>
0

>  <SCORE.SYSTEM.DIHEDRAL>
0

>  <SCORE.SYSTEM.SOLV>
0

>  <SCORE.SYSTEM.norm>
0

>  <SCORE.heavy>
34

>  <SCORE.norm>
-0.258326

>  <RMSD>
9.538

$$$$
ligand
 OpenBabel11021811483D
libRbt.so/2013.1/901 2013/11/27
 34 36  0  0  0  0  0  0  0  0999 V2000
    7.5999   41.5786   71.1809 N   0  0  0  0  0  0  0  0  0  0  0  0
    7.8437   40.3691   70.3608 C   0  0  1  0  0  0  0  0  0  0  0  0
    6.9076   41.5763   72.3275 C   0  0  0  0  0  0  0  0  0  0  0  0
    6.3950   40.5712   72.8279 O   0  0  0  0  0  0  0  0  0  0  0  0
   -0.1998   43.8102   73.8409 N   0  0  0  0  0  0  0  0  0  0  0  0
    8.7203   40.7297   69.1498 C   0  0  0  0  0  0  0  0  0  0  0  0
    8.0434   41.7758   68.2538 C   0  0  0  0  0  0  0  0  0  0  0  0
    8.0519   43.1630   68.9141 C   0  0  0  0  0  0  0  0  0  0  0  0
    9.1004   43.8412   68.8068 O   0  0  0  0  0  0  0  0  0  0  0  0
    7.0081   43.5158   69.5097 O   0  0  0  0  0  0  0  0  0  0  0  0
    1.0244   45.4301   74.9524 N   0  0  0  0  0  0  0  0  0  0  0  0
    9.5103   39.5486   71.8763 O   0  0  0  0  0  0  0  0  0  0  0  0
    0.9071   44.1762   74.4821 C   0  0  0  0  0  0  0  0  0  0  0  0
    8.0140   38.0978   71.0733 O   0  0  0  0  0  0  0  0  0  0  0  0
    1.9396   43.2465   74.6590 N   0  0  0  0  0  0  0  0  0  0  0  0
    3.0920   43.6410   75.3253 C   0  0  0  0  0  0  0  0  0  0  0  0
    3.1941   44.9525   75.7702 C   0  0  0  0  0  0  0  0  0  0  0  0
    4.0155   42.8466   75.4838 O   0  0  0  0  0  0  0  0  0  0  0  0
    4.9105   44.5096   77.3065 C   0  0  0  0  0  0  0  0  0  0  0  0
    4.2992   45.3735   76.5017 N   0  0  0  0  0  0  0  0  0  0  0  0
    4.3991   44.1840   78.3755 O   0  0  0  0  0  0  0  0  0  0  0  0
    4.6493   46.7978   76.5301 C   0  0  2  0  0  0  0  0  0  0  0  0
    3.3926   47.6062   76.8627 C   0  0  0  0  0  0  0  0  0  0  0  0
    2.1308   45.8284   75.5985 C   0  0  0  0  0  0  0  0  0  0  0  0
    2.2183   47.1367   76.0868 N   0  0  0  0  0  0  0  0  0  0  0  0
    5.2185   47.2377   75.1769 C   0  0  0  0  0  0  0  0  0  0  0  0
    6.5170   46.5905   74.9530 N   0  0  0  0  0  0  0  0  0  0  0  0
    6.8290   42.9428   73.0320 C   0  0  0  0  0  0  0  0  0  0  0  0
    6.2123   44.0254   72.4096 C   0  0  0  0  0  0  0  0  0  0  0  0
    6.0926   45.2462   73.0707 C   0  0  0  0  0  0  0  0  0  0  0  0
    6.6283   45.4106   74.3437 C   0  0  0  0  0  0  0  0  0  0  0  0
    7.2523   44.3330   74.9632 C   0  0  0  0  0  0  0  0  0  0  0  0
    7.3411   43.1010   74.3166 C   0  0  0  0  0  0  0  0  0  0  0  0
    8.5150   39.2441   71.1755 C   0  0  0  0  0  0  0  0  0  0  0  0
  1  3  1  0  0  0  0
  2  1  1  1  0  0  0
  2  6  1  0  0  0  0
  2 34  1  0  0  0  0
  3  4  2  0  0  0  0
  3 28  1  0  0  0  0
  5 13  1  0  0  0  0
  6  7  1  0  0  0  0
  7  8  1  0  0  0  0
  8  9  1  0  0  0  0
  8 10  1  0  0  0  0
 11 13  2  0  0  0  0
 11 24  1  0  0  0  0
 12 34  1  0  0  0  0
 13 15  1  0  0  0  0
 14 34  1  0  0  0  0
 15 16  1  0  0  0  0
 16 17  1  0  0  0  0
 16 18  2  0  0  0  0
 17 20  1  0  0  0  0
 17 24  2  0  0  0  0
 19 21  1  0  0  0  0
 19 20  1  0  0  0  0
 20 22  1  0  0  0  0
 22 23  1  0  0  0  0
 22 26  1  6  0  0  0
 23 25  1  0  0  0  0
 24 25  1  0  0  0  0
 26 27  1  0  0  0  0
 27 31  1  0  0  0  0
 28 29  2  0  0  0  0
 28 33  1  0  0  0  0
 29 30  1  0  0  0  0
 30 31  2  0  0  0  0
 31 32  1  0  0  0  0
 32 33  2  0  0  0  0
M  END
>  <CHROM.1>
-177.62392169,-60.53722602,-47.95907782,72.76457538,81.99519971,-74.55441320
-67.47863022,90.06002597,56.07356376,62.06851405,5.55606936,43.54346431,73.48606847
0.79803691,-0.59269642,-2.73837893

>  <Name>
ligand

>  <RI>
0

>  <Rbt.Current_Directory>
/home/itssahil/PROJECTS/Mol_Feturizer/New_Systems/rnas/3SUH

>  <Rbt.Executable>
rbdock ($Id: //depot/dev/client3/rdock/2013.1/src/exe/rbdock.cxx#4 $)

>  <Rbt.Library>
libRbt.so (2013.1, Build901 2013/11/27)

>  <Rbt.Parameter_File>
/export/apps/rDock/src/rDock_2013.1_src/data/scripts/dock_solv.prm

>  <Rbt.Receptor>
prm/pocket_docking_6.prm

>  <SCORE>
-10.7414

>  <SCORE.INTER>
-4.50365

>  <SCORE.INTER.CONST>
1

>  <SCORE.INTER.POLAR>
0

>  <SCORE.INTER.ROT>
10

>  <SCORE.INTER.SOLV>
7.44278

>  <SCORE.INTER.VDW>
-15.75

>  <SCORE.INTER.norm>
-0.13246

>  <SCORE.INTRA>
-6.23774

>  <SCORE.INTRA.DIHEDRAL>
-4.63237

>  <SCORE.INTRA.DIHEDRAL.0>
12.2703

>  <SCORE.INTRA.POLAR>
0

>  <SCORE.INTRA.POLAR.0>
0

>  <SCORE.INTRA.REPUL>
0

>  <SCORE.INTRA.REPUL.0>
0

>  <SCORE.INTRA.SOLV>
0.256591

>  <SCORE.INTRA.SOLV.lig_0>
-64.3214

>  <SCORE.INTRA.VDW>
-4.04985

>  <SCORE.INTRA.VDW.0>
-1.67301

>  <SCORE.INTRA.norm>
-0.183463

>  <SCORE.RESTR>
0

>  <SCORE.RESTR.CAVITY>
0

>  <SCORE.RESTR.norm>
0

>  <SCORE.SYSTEM>
0

>  <SCORE.SYSTEM.CONST>
0

>  <SCORE.SYSTEM.DIHEDRAL>
0

>  <SCORE.SYSTEM.SOLV>
0

>  <SCORE.SYSTEM.norm>
0

>  <SCORE.heavy>
34

>  <SCORE.norm>
-0.315923

>  <RMSD>
9.545

$$$$
ligand
 OpenBabel11021811483D
libRbt.so/2013.1/901 2013/11/27
 34 36  0  0  0  0  0  0  0  0999 V2000
    9.4069   41.2481   70.7654 N   0  0  0  0  0  0  0  0  0  0  0  0
   10.3880   40.3419   70.1243 C   0  0  1  0  0  0  0  0  0  0  0  0
    8.1481   40.8977   71.0600 C   0  0  0  0  0  0  0  0  0  0  0  0
    7.6643   39.7858   70.8303 O   0  0  0  0  0  0  0  0  0  0  0  0
    3.4100   38.6250   76.8385 N   0  0  0  0  0  0  0  0  0  0  0  0
   11.0326   41.0436   68.9171 C   0  0  0  0  0  0  0  0  0  0  0  0
   10.0556   41.1517   67.7385 C   0  0  0  0  0  0  0  0  0  0  0  0
    8.8411   42.0200   68.1006 C   0  0  0  0  0  0  0  0  0  0  0  0
    7.7392   41.4368   68.2306 O   0  0  0  0  0  0  0  0  0  0  0  0
    9.0418   43.2482   68.2422 O   0  0  0  0  0  0  0  0  0  0  0  0
    2.9156   40.8840   76.7356 N   0  0  0  0  0  0  0  0  0  0  0  0
   12.3025   40.7488   71.5087 O   0  0  0  0  0  0  0  0  0  0  0  0
    3.8175   39.8871   76.7314 C   0  0  0  0  0  0  0  0  0  0  0  0
   11.4765   38.6748   71.4401 O   0  0  0  0  0  0  0  0  0  0  0  0
    5.1861   40.1612   76.6149 N   0  0  0  0  0  0  0  0  0  0  0  0
    5.5993   41.4816   76.4989 C   0  0  0  0  0  0  0  0  0  0  0  0
    4.6398   42.4852   76.4744 C   0  0  0  0  0  0  0  0  0  0  0  0
    6.7934   41.7465   76.3853 O   0  0  0  0  0  0  0  0  0  0  0  0
    6.1362   44.2060   77.0236 C   0  0  0  0  0  0  0  0  0  0  0  0
    5.0099   43.8247   76.4288 N   0  0  0  0  0  0  0  0  0  0  0  0
    6.9894   44.8331   76.3998 O   0  0  0  0  0  0  0  0  0  0  0  0
    4.0664   44.8195   75.9069 C   0  0  2  0  0  0  0  0  0  0  0  0
    2.7109   44.6163   76.5886 C   0  0  0  0  0  0  0  0  0  0  0  0
    3.2972   42.1655   76.6244 C   0  0  0  0  0  0  0  0  0  0  0  0
    2.3356   43.1818   76.6439 N   0  0  0  0  0  0  0  0  0  0  0  0
    3.9215   44.6768   74.3880 C   0  0  0  0  0  0  0  0  0  0  0  0
    5.2118   44.9447   73.7411 N   0  0  0  0  0  0  0  0  0  0  0  0
    7.3282   41.9894   71.7711 C   0  0  0  0  0  0  0  0  0  0  0  0
    6.7542   41.7451   73.0164 C   0  0  0  0  0  0  0  0  0  0  0  0
    6.0595   42.7519   73.6838 C   0  0  0  0  0  0  0  0  0  0  0  0
    5.8928   44.0000   73.0932 C   0  0  0  0  0  0  0  0  0  0  0  0
    6.4577   44.2429   71.8457 C   0  0  0  0  0  0  0  0  0  0  0  0
    7.1832   43.2473   71.1930 C   0  0  0  0  0  0  0  0  0  0  0  0
   11.4835   39.8858   71.1100 C   0  0  0  0  0  0  0  0  0  0  0  0
  1  3  1  0  0  0  0
  2  1  1  1  0  0  0
  2  6  1  0  0  0  0
  2 34  1  0  0  0  0
  3  4  2  0  0  0  0
  3 28  1  0  0  0  0
  5 13  1  0  0  0  0
  6  7  1  0  0  0  0
  7  8  1  0  0  0  0
  8  9  1  0  0  0  0
  8 10  1  0  0  0  0
 11 13  2  0  0  0  0
 11 24  1  0  0  0  0
 12 34  1  0  0  0  0
 13 15  1  0  0  0  0
 14 34  1  0  0  0  0
 15 16  1  0  0  0  0
 16 17  1  0  0  0  0
 16 18  2  0  0  0  0
 17 20  1  0  0  0  0
 17 24  2  0  0  0  0
 19 21  1  0  0  0  0
 19 20  1  0  0  0  0
 20 22  1  0  0  0  0
 22 23  1  0  0  0  0
 22 26  1  6  0  0  0
 23 25  1  0  0  0  0
 24 25  1  0  0  0  0
 26 27  1  0  0  0  0
 27 31  1  0  0  0  0
 28 29  2  0  0  0  0
 28 33  1  0  0  0  0
 29 30  1  0  0  0  0
 30 31  2  0  0  0  0
 31 32  1  0  0  0  0
 32 33  2  0  0  0  0
M  END
>  <CHROM.1>
129.54171325,-72.93078355,-68.62591350,63.12175015,-109.87476399,126.32695465
-62.83998068,113.68517014,-46.43070519,-122.27727426,6.81511136,42.06996837
73.28008408,-0.33782399,-0.82489818,2.44761174

>  <Name>
ligand

>  <RI>
0

>  <Rbt.Current_Directory>
/home/itssahil/PROJECTS/Mol_Feturizer/New_Systems/rnas/3SUH

>  <Rbt.Executable>
rbdock ($Id: //depot/dev/client3/rdock/2013.1/src/exe/rbdock.cxx#4 $)

>  <Rbt.Library>
libRbt.so (2013.1, Build901 2013/11/27)

>  <Rbt.Parameter_File>
/export/apps/rDock/src/rDock_2013.1_src/data/scripts/dock_solv.prm

>  <Rbt.Receptor>
prm/pocket_docking_4.prm

>  <SCORE>
-11.0794

>  <SCORE.INTER>
-6.17683

>  <SCORE.INTER.CONST>
1

>  <SCORE.INTER.POLAR>
0

>  <SCORE.INTER.ROT>
10

>  <SCORE.INTER.SOLV>
8.69267

>  <SCORE.INTER.VDW>
-17.2821

>  <SCORE.INTER.norm>
-0.181671

>  <SCORE.INTRA>
-4.90255

>  <SCORE.INTRA.DIHEDRAL>
-2.85225

>  <SCORE.INTRA.DIHEDRAL.0>
12.2703

>  <SCORE.INTRA.POLAR>
0

>  <SCORE.INTRA.POLAR.0>
0

>  <SCORE.INTRA.REPUL>
0

>  <SCORE.INTRA.REPUL.0>
0

>  <SCORE.INTRA.SOLV>
1.19098

>  <SCORE.INTRA.SOLV.lig_0>
-64.3214

>  <SCORE.INTRA.VDW>
-4.07191

>  <SCORE.INTRA.VDW.0>
-1.67301

>  <SCORE.INTRA.norm>
-0.144193

>  <SCORE.RESTR>
0

>  <SCORE.RESTR.CAVITY>
0

>  <SCORE.RESTR.norm>
0

>  <SCORE.SYSTEM>
0

>  <SCORE.SYSTEM.CONST>
0

>  <SCORE.SYSTEM.DIHEDRAL>
0

>  <SCORE.SYSTEM.SOLV>
0

>  <SCORE.SYSTEM.norm>
0

>  <SCORE.heavy>
34

>  <SCORE.norm>
-0.325864

>  <RMSD>
9.641

$$$$
ligand
 OpenBabel11021811483D
libRbt.so/2013.1/901 2013/11/27
 34 36  0  0  0  0  0  0  0  0999 V2000
    9.0879   42.7898   69.2605 N   0  0  0  0  0  0  0  0  0  0  0  0
    9.8875   43.2287   68.0931 C   0  0  1  0  0  0  0  0  0  0  0  0
    8.1092   41.8777   69.1949 C   0  0  0  0  0  0  0  0  0  0  0  0
    7.7627   41.3034   68.1589 O   0  0  0  0  0  0  0  0  0  0  0  0
    4.9551   46.0694   74.4693 N   0  0  0  0  0  0  0  0  0  0  0  0
   10.9282   44.2701   68.5374 C   0  0  0  0  0  0  0  0  0  0  0  0
   11.9686   43.6599   69.4864 C   0  0  0  0  0  0  0  0  0  0  0  0
   12.7600   44.7526   70.2211 C   0  0  0  0  0  0  0  0  0  0  0  0
   12.5822   44.8543   71.4577 O   0  0  0  0  0  0  0  0  0  0  0  0
   13.5278   45.4608   69.5301 O   0  0  0  0  0  0  0  0  0  0  0  0
    6.1538   44.2916   75.3417 N   0  0  0  0  0  0  0  0  0  0  0  0
   10.5050   40.9172   67.9400 O   0  0  0  0  0  0  0  0  0  0  0  0
    4.9783   44.8552   75.0130 C   0  0  0  0  0  0  0  0  0  0  0  0
   11.2155   42.3035   66.3393 O   0  0  0  0  0  0  0  0  0  0  0  0
    3.7730   44.1777   75.2365 N   0  0  0  0  0  0  0  0  0  0  0  0
    3.8098   42.9093   75.7999 C   0  0  0  0  0  0  0  0  0  0  0  0
    5.0422   42.3430   76.0979 C   0  0  0  0  0  0  0  0  0  0  0  0
    2.7666   42.2910   75.9961 O   0  0  0  0  0  0  0  0  0  0  0  0
    4.1759   40.7504   77.5864 C   0  0  0  0  0  0  0  0  0  0  0  0
    5.1252   41.1050   76.7256 N   0  0  0  0  0  0  0  0  0  0  0  0
    3.9668   39.5642   77.8303 O   0  0  0  0  0  0  0  0  0  0  0  0
    6.3451   40.3023   76.5859 C   0  0  2  0  0  0  0  0  0  0  0  0
    7.5547   41.1890   76.8924 C   0  0  0  0  0  0  0  0  0  0  0  0
    6.2079   43.0669   75.8868 C   0  0  0  0  0  0  0  0  0  0  0  0
    7.4459   42.5118   76.2290 N   0  0  0  0  0  0  0  0  0  0  0  0
    6.4529   39.7322   75.1675 C   0  0  0  0  0  0  0  0  0  0  0  0
    5.7874   40.6348   74.2201 N   0  0  0  0  0  0  0  0  0  0  0  0
    7.4528   41.5430   70.5465 C   0  0  0  0  0  0  0  0  0  0  0  0
    7.3402   40.2212   70.9706 C   0  0  0  0  0  0  0  0  0  0  0  0
    6.7964   39.9235   72.2186 C   0  0  0  0  0  0  0  0  0  0  0  0
    6.3180   40.9414   73.0368 C   0  0  0  0  0  0  0  0  0  0  0  0
    6.4215   42.2614   72.6110 C   0  0  0  0  0  0  0  0  0  0  0  0
    6.9979   42.5627   71.3779 C   0  0  0  0  0  0  0  0  0  0  0  0
   10.5947   42.0461   67.3995 C   0  0  0  0  0  0  0  0  0  0  0  0
  1  3  1  0  0  0  0
  2  1  1  1  0  0  0
  2  6  1  0  0  0  0
  2 34  1  0  0  0  0
  3  4  2  0  0  0  0
  3 28  1  0  0  0  0
  5 13  1  0  0  0  0
  6  7  1  0  0  0  0
  7  8  1  0  0  0  0
  8  9  1  0  0  0  0
  8 10  1  0  0  0  0
 11 13  2  0  0  0  0
 11 24  1  0  0  0  0
 12 34  1  0  0  0  0
 13 15  1  0  0  0  0
 14 34  1  0  0  0  0
 15 16  1  0  0  0  0
 16 17  1  0  0  0  0
 16 18  2  0  0  0  0
 17 20  1  0  0  0  0
 17 24  2  0  0  0  0
 19 21  1  0  0  0  0
 19 20  1  0  0  0  0
 20 22  1  0  0  0  0
 22 23  1  0  0  0  0
 22 26  1  6  0  0  0
 23 25  1  0  0  0  0
 24 25  1  0  0  0  0
 26 27  1  0  0  0  0
 27 31  1  0  0  0  0
 28 29  2  0  0  0  0
 28 33  1  0  0  0  0
 29 30  1  0  0  0  0
 30 31  2  0  0  0  0
 31 32  1  0  0  0  0
 32 33  2  0  0  0  0
M  END
>  <CHROM.1>
-179.36134052,65.43763058,-5.39553985,-164.49517097,112.41764007,156.78334726
29.20424220,137.24099442,48.46192723,-127.68897041,7.55388152,42.38341013
72.66157337,0.51574673,-0.77529663,-2.28989354

>  <Name>
ligand

>  <RI>
0

>  <Rbt.Current_Directory>
/home/itssahil/PROJECTS/Mol_Feturizer/New_Systems/rnas/3SUH

>  <Rbt.Executable>
rbdock ($Id: //depot/dev/client3/rdock/2013.1/src/exe/rbdock.cxx#4 $)

>  <Rbt.Library>
libRbt.so (2013.1, Build901 2013/11/27)

>  <Rbt.Parameter_File>
/export/apps/rDock/src/rDock_2013.1_src/data/scripts/dock_solv.prm

>  <Rbt.Receptor>
prm/pocket_docking_3.prm

>  <SCORE>
-11.2947

>  <SCORE.INTER>
-10.5771

>  <SCORE.INTER.CONST>
1

>  <SCORE.INTER.POLAR>
0

>  <SCORE.INTER.ROT>
10

>  <SCORE.INTER.SOLV>
10.9535

>  <SCORE.INTER.VDW>
-20.9692

>  <SCORE.INTER.norm>
-0.31109

>  <SCORE.INTRA>
-0.717607

>  <SCORE.INTRA.DIHEDRAL>
-1.31391

>  <SCORE.INTRA.DIHEDRAL.0>
12.2703

>  <SCORE.INTRA.POLAR>
0

>  <SCORE.INTRA.POLAR.0>
0

>  <SCORE.INTRA.REPUL>
0

>  <SCORE.INTRA.REPUL.0>
0

>  <SCORE.INTRA.SOLV>
2.24148

>  <SCORE.INTRA.SOLV.lig_0>
-64.3214

>  <SCORE.INTRA.VDW>
-1.18139

>  <SCORE.INTRA.VDW.0>
-1.67301

>  <SCORE.INTRA.norm>
-0.0211061

>  <SCORE.RESTR>
0

>  <SCORE.RESTR.CAVITY>
0

>  <SCORE.RESTR.norm>
0

>  <SCORE.SYSTEM>
0

>  <SCORE.SYSTEM.CONST>
0

>  <SCORE.SYSTEM.DIHEDRAL>
0

>  <SCORE.SYSTEM.SOLV>
0

>  <SCORE.SYSTEM.norm>
0

>  <SCORE.heavy>
34

>  <SCORE.norm>
-0.332197

>  <RMSD>
9.663

$$$$
ligand
 OpenBabel11021811483D
libRbt.so/2013.1/901 2013/11/27
 34 36  0  0  0  0  0  0  0  0999 V2000
    9.4193   42.9084   69.1078 N   0  0  0  0  0  0  0  0  0  0  0  0
   10.2307   43.4426   67.9893 C   0  0  1  0  0  0  0  0  0  0  0  0
    8.2812   42.2217   68.9432 C   0  0  0  0  0  0  0  0  0  0  0  0
    7.7806   41.9586   67.8463 O   0  0  0  0  0  0  0  0  0  0  0  0
    3.1274   44.8780   74.9841 N   0  0  0  0  0  0  0  0  0  0  0  0
   11.4222   44.2401   68.5456 C   0  0  0  0  0  0  0  0  0  0  0  0
   12.4345   43.3262   69.2494 C   0  0  0  0  0  0  0  0  0  0  0  0
   11.7867   42.5805   70.4260 C   0  0  0  0  0  0  0  0  0  0  0  0
   11.4218   43.2685   71.4081 O   0  0  0  0  0  0  0  0  0  0  0  0
   11.6681   41.3385   70.3163 O   0  0  0  0  0  0  0  0  0  0  0  0
    5.0799   43.6478   75.1652 N   0  0  0  0  0  0  0  0  0  0  0  0
   11.3706   42.6646   66.0289 O   0  0  0  0  0  0  0  0  0  0  0  0
    3.7644   43.7880   75.4043 C   0  0  0  0  0  0  0  0  0  0  0  0
   10.4814   41.1433   67.4014 O   0  0  0  0  0  0  0  0  0  0  0  0
    3.0530   42.7972   76.0927 N   0  0  0  0  0  0  0  0  0  0  0  0
    3.7271   41.6620   76.5222 C   0  0  0  0  0  0  0  0  0  0  0  0
    5.0788   41.5338   76.2308 C   0  0  0  0  0  0  0  0  0  0  0  0
    3.1227   40.7745   77.1190 O   0  0  0  0  0  0  0  0  0  0  0  0
    5.4825   39.9026   77.8674 C   0  0  0  0  0  0  0  0  0  0  0  0
    5.8096   40.4478   76.6997 N   0  0  0  0  0  0  0  0  0  0  0  0
    5.6956   40.5039   78.9178 O   0  0  0  0  0  0  0  0  0  0  0  0
    7.0405   40.0499   76.0079 C   0  0  2  0  0  0  0  0  0  0  0  0
    7.9134   41.2910   75.8051 C   0  0  0  0  0  0  0  0  0  0  0  0
    5.7470   42.5575   75.5729 C   0  0  0  0  0  0  0  0  0  0  0  0
    7.1186   42.4459   75.3195 N   0  0  0  0  0  0  0  0  0  0  0  0
    6.7125   39.4072   74.6559 C   0  0  0  0  0  0  0  0  0  0  0  0
    6.0119   40.3767   73.8048 N   0  0  0  0  0  0  0  0  0  0  0  0
    7.6391   41.7217   70.2500 C   0  0  0  0  0  0  0  0  0  0  0  0
    7.6576   40.3675   70.5747 C   0  0  0  0  0  0  0  0  0  0  0  0
    7.1255   39.9236   71.7837 C   0  0  0  0  0  0  0  0  0  0  0  0
    6.5288   40.8233   72.6606 C   0  0  0  0  0  0  0  0  0  0  0  0
    6.5015   42.1749   72.3338 C   0  0  0  0  0  0  0  0  0  0  0  0
    7.0654   42.6246   71.1407 C   0  0  0  0  0  0  0  0  0  0  0  0
   10.7403   42.3228   67.0586 C   0  0  0  0  0  0  0  0  0  0  0  0
  1  3  1  0  0  0  0
  2  1  1  1  0  0  0
  2  6  1  0  0  0  0
  2 34  1  0  0  0  0
  3  4  2  0  0  0  0
  3 28  1  0  0  0  0
  5 13  1  0  0  0  0
  6  7  1  0  0  0  0
  7  8  1  0  0  0  0
  8  9  1  0  0  0  0
  8 10  1  0  0  0  0
 11 13  2  0  0  0  0
 11 24  1  0  0  0  0
 12 34  1  0  0  0  0
 13 15  1  0  0  0  0
 14 34  1  0  0  0  0
 15 16  1  0  0  0  0
 16 17  1  0  0  0  0
 16 18  2  0  0  0  0
 17 20  1  0  0  0  0
 17 24  2  0  0  0  0
 19 21  1  0  0  0  0
 19 20  1  0  0  0  0
 20 22  1  0  0  0  0
 22 23  1  0  0  0  0
 22 26  1  6  0  0  0
 23 25  1  0  0  0  0
 24 25  1  0  0  0  0
 26 27  1  0  0  0  0
 27 31  1  0  0  0  0
 28 29  2  0  0  0  0
 28 33  1  0  0  0  0
 29 30  1  0  0  0  0
 30 31  2  0  0  0  0
 31 32  1  0  0  0  0
 32 33  2  0  0  0  0
M  END
>  <CHROM.1>
176.87448171,68.25396195,175.70593669,-59.89985578,-66.94142860,-70.60567787
61.26149850,116.41429475,44.14235585,-108.38338751,7.53059162,41.91081199
72.60961605,0.89702688,0.39389124,-1.14982566

>  <Name>
ligand

>  <RI>
0

>  <Rbt.Current_Directory>
/home/itssahil/PROJECTS/Mol_Feturizer/New_Systems/rnas/3SUH

>  <Rbt.Executable>
rbdock ($Id: //depot/dev/client3/rdock/2013.1/src/exe/rbdock.cxx#4 $)

>  <Rbt.Library>
libRbt.so (2013.1, Build901 2013/11/27)

>  <Rbt.Parameter_File>
/export/apps/rDock/src/rDock_2013.1_src/data/scripts/dock_solv.prm

>  <Rbt.Receptor>
prm/pocket_docking_4.prm

>  <SCORE>
-13.6728

>  <SCORE.INTER>
-10.4267

>  <SCORE.INTER.CONST>
1

>  <SCORE.INTER.POLAR>
0

>  <SCORE.INTER.ROT>
10

>  <SCORE.INTER.SOLV>
11.9195

>  <SCORE.INTER.VDW>
-21.191

>  <SCORE.INTER.norm>
-0.306669

>  <SCORE.INTRA>
-3.24608

>  <SCORE.INTRA.DIHEDRAL>
-4.63567

>  <SCORE.INTRA.DIHEDRAL.0>
12.2703

>  <SCORE.INTRA.POLAR>
0

>  <SCORE.INTRA.POLAR.0>
0

>  <SCORE.INTRA.REPUL>
0

>  <SCORE.INTRA.REPUL.0>
0

>  <SCORE.INTRA.SOLV>
2.93938

>  <SCORE.INTRA.SOLV.lig_0>
-64.3214

>  <SCORE.INTRA.VDW>
-2.39793

>  <SCORE.INTRA.VDW.0>
-1.67301

>  <SCORE.INTRA.norm>
-0.0954728

>  <SCORE.RESTR>
0

>  <SCORE.RESTR.CAVITY>
0

>  <SCORE.RESTR.norm>
0

>  <SCORE.SYSTEM>
0

>  <SCORE.SYSTEM.CONST>
0

>  <SCORE.SYSTEM.DIHEDRAL>
0

>  <SCORE.SYSTEM.SOLV>
0

>  <SCORE.SYSTEM.norm>
0

>  <SCORE.heavy>
34

>  <SCORE.norm>
-0.402142

>  <RMSD>
9.686

$$$$
ligand
 OpenBabel11021811483D
libRbt.so/2013.1/901 2013/11/27
 34 36  0  0  0  0  0  0  0  0999 V2000
    8.5016   42.8676   70.2967 N   0  0  0  0  0  0  0  0  0  0  0  0
    9.4211   42.4465   69.2141 C   0  0  1  0  0  0  0  0  0  0  0  0
    7.7551   43.9788   70.2522 C   0  0  0  0  0  0  0  0  0  0  0  0
    7.7497   44.7754   69.3095 O   0  0  0  0  0  0  0  0  0  0  0  0
    8.1987   45.3256   78.7064 N   0  0  0  0  0  0  0  0  0  0  0  0
   10.1896   41.1861   69.6454 C   0  0  0  0  0  0  0  0  0  0  0  0
    9.2388   40.0189   69.9433 C   0  0  0  0  0  0  0  0  0  0  0  0
    8.3994   40.2922   71.2007 C   0  0  0  0  0  0  0  0  0  0  0  0
    8.9968   40.2745   72.3024 O   0  0  0  0  0  0  0  0  0  0  0  0
    7.1785   40.5156   71.0322 O   0  0  0  0  0  0  0  0  0  0  0  0
    6.0820   44.6260   78.0829 N   0  0  0  0  0  0  0  0  0  0  0  0
    7.6253   41.4863   67.9488 O   0  0  0  0  0  0  0  0  0  0  0  0
    6.9924   45.6058   78.2198 C   0  0  0  0  0  0  0  0  0  0  0  0
    9.1721   42.6656   66.8507 O   0  0  0  0  0  0  0  0  0  0  0  0
    6.6859   46.9229   77.8550 N   0  0  0  0  0  0  0  0  0  0  0  0
    5.4257   47.2024   77.3438 C   0  0  0  0  0  0  0  0  0  0  0  0
    4.5199   46.1619   77.1853 C   0  0  0  0  0  0  0  0  0  0  0  0
    5.1368   48.3480   77.0073 O   0  0  0  0  0  0  0  0  0  0  0  0
    2.6359   47.5537   77.0615 C   0  0  0  0  0  0  0  0  0  0  0  0
    3.2246   46.4051   76.7422 N   0  0  0  0  0  0  0  0  0  0  0  0
    1.9655   48.1628   76.2309 O   0  0  0  0  0  0  0  0  0  0  0  0
    2.4609   45.3247   76.1084 C   0  0  2  0  0  0  0  0  0  0  0  0
    2.5457   44.0784   76.9933 C   0  0  0  0  0  0  0  0  0  0  0  0
    4.8597   44.8782   77.5907 C   0  0  0  0  0  0  0  0  0  0  0  0
    3.9298   43.8395   77.4712 N   0  0  0  0  0  0  0  0  0  0  0  0
    3.0169   45.0216   74.7129 C   0  0  0  0  0  0  0  0  0  0  0  0
    4.4556   44.7435   74.8038 N   0  0  0  0  0  0  0  0  0  0  0  0
    6.8363   44.1834   71.4703 C   0  0  0  0  0  0  0  0  0  0  0  0
    6.5722   43.1301   72.3424 C   0  0  0  0  0  0  0  0  0  0  0  0
    5.7855   43.3308   73.4750 C   0  0  0  0  0  0  0  0  0  0  0  0
    5.2175   44.5758   73.7234 C   0  0  0  0  0  0  0  0  0  0  0  0
    5.4729   45.6266   72.8488 C   0  0  0  0  0  0  0  0  0  0  0  0
    6.2889   45.4357   71.7346 C   0  0  0  0  0  0  0  0  0  0  0  0
    8.6724   42.1755   67.8928 C   0  0  0  0  0  0  0  0  0  0  0  0
  1  3  1  0  0  0  0
  2  1  1  1  0  0  0
  2  6  1  0  0  0  0
  2 34  1  0  0  0  0
  3  4  2  0  0  0  0
  3 28  1  0  0  0  0
  5 13  1  0  0  0  0
  6  7  1  0  0  0  0
  7  8  1  0  0  0  0
  8  9  1  0  0  0  0
  8 10  1  0  0  0  0
 11 13  2  0  0  0  0
 11 24  1  0  0  0  0
 12 34  1  0  0  0  0
 13 15  1  0  0  0  0
 14 34  1  0  0  0  0
 15 16  1  0  0  0  0
 16 17  1  0  0  0  0
 16 18  2  0  0  0  0
 17 20  1  0  0  0  0
 17 24  2  0  0  0  0
 19 21  1  0  0  0  0
 19 20  1  0  0  0  0
 20 22  1  0  0  0  0
 22 23  1  0  0  0  0
 22 26  1  6  0  0  0
 23 25  1  0  0  0  0
 24 25  1  0  0  0  0
 26 27  1  0  0  0  0
 27 31  1  0  0  0  0
 28 29  2  0  0  0  0
 28 33  1  0  0  0  0
 29 30  1  0  0  0  0
 30 31  2  0  0  0  0
 31 32  1  0  0  0  0
 32 33  2  0  0  0  0
M  END
>  <CHROM.1>
175.81693580,60.21107877,-46.28094844,-68.14889825,-70.32645895,138.44012524
54.25106927,-173.36480159,-113.74153908,-15.56958338,6.22296237,44.19007596
73.58431850,0.92983178,0.75239615,-1.60952149

>  <Name>
ligand

>  <RI>
0

>  <Rbt.Current_Directory>
/home/itssahil/PROJECTS/Mol_Feturizer/New_Systems/rnas/3SUH

>  <Rbt.Executable>
rbdock ($Id: //depot/dev/client3/rdock/2013.1/src/exe/rbdock.cxx#4 $)

>  <Rbt.Library>
libRbt.so (2013.1, Build901 2013/11/27)

>  <Rbt.Parameter_File>
/export/apps/rDock/src/rDock_2013.1_src/data/scripts/dock_solv.prm

>  <Rbt.Receptor>
prm/pocket_docking_7.prm

>  <SCORE>
-7.11548

>  <SCORE.INTER>
-3.38683

>  <SCORE.INTER.CONST>
1

>  <SCORE.INTER.POLAR>
0

>  <SCORE.INTER.ROT>
10

>  <SCORE.INTER.SOLV>
5.48248

>  <SCORE.INTER.VDW>
-14.352

>  <SCORE.INTER.norm>
-0.0996126

>  <SCORE.INTRA>
-3.72866

>  <SCORE.INTRA.DIHEDRAL>
-5.54601

>  <SCORE.INTRA.DIHEDRAL.0>
12.2703

>  <SCORE.INTRA.POLAR>
0

>  <SCORE.INTRA.POLAR.0>
0

>  <SCORE.INTRA.REPUL>
0

>  <SCORE.INTRA.REPUL.0>
0

>  <SCORE.INTRA.SOLV>
2.35608

>  <SCORE.INTRA.SOLV.lig_0>
-64.3214

>  <SCORE.INTRA.VDW>
-2.13369

>  <SCORE.INTRA.VDW.0>
-1.67301

>  <SCORE.INTRA.norm>
-0.109666

>  <SCORE.RESTR>
0

>  <SCORE.RESTR.CAVITY>
0

>  <SCORE.RESTR.norm>
0

>  <SCORE.SYSTEM>
0

>  <SCORE.SYSTEM.CONST>
0

>  <SCORE.SYSTEM.DIHEDRAL>
0

>  <SCORE.SYSTEM.SOLV>
0

>  <SCORE.SYSTEM.norm>
0

>  <SCORE.heavy>
34

>  <SCORE.norm>
-0.209279

>  <RMSD>
9.692

$$$$
ligand
 OpenBabel11021811483D
libRbt.so/2013.1/901 2013/11/27
 34 36  0  0  0  0  0  0  0  0999 V2000
   10.2520   42.8342   68.9053 N   0  0  0  0  0  0  0  0  0  0  0  0
   11.0606   43.7218   68.0374 C   0  0  1  0  0  0  0  0  0  0  0  0
    8.9351   42.9796   69.1015 C   0  0  0  0  0  0  0  0  0  0  0  0
    8.2491   43.8663   68.5854 O   0  0  0  0  0  0  0  0  0  0  0  0
    7.4174   43.8222   78.5084 N   0  0  0  0  0  0  0  0  0  0  0  0
   12.4185   44.0031   68.7023 C   0  0  0  0  0  0  0  0  0  0  0  0
   12.2501   44.7140   70.0520 C   0  0  0  0  0  0  0  0  0  0  0  0
   11.6733   43.7642   71.1129 C   0  0  0  0  0  0  0  0  0  0  0  0
   12.3867   42.7942   71.4609 O   0  0  0  0  0  0  0  0  0  0  0  0
   10.5320   44.0308   71.5546 O   0  0  0  0  0  0  0  0  0  0  0  0
    8.0691   42.3400   76.8541 N   0  0  0  0  0  0  0  0  0  0  0  0
   11.8085   43.8462   65.7629 O   0  0  0  0  0  0  0  0  0  0  0  0
    7.3467   42.6147   77.9541 C   0  0  0  0  0  0  0  0  0  0  0  0
   10.9090   41.9281   66.4705 O   0  0  0  0  0  0  0  0  0  0  0  0
    6.5171   41.6420   78.5263 N   0  0  0  0  0  0  0  0  0  0  0  0
    6.4475   40.3871   77.9364 C   0  0  0  0  0  0  0  0  0  0  0  0
    7.1819   40.1463   76.7827 C   0  0  0  0  0  0  0  0  0  0  0  0
    5.7193   39.5206   78.4139 O   0  0  0  0  0  0  0  0  0  0  0  0
    7.0914   37.8100   76.9717 C   0  0  0  0  0  0  0  0  0  0  0  0
    7.1968   38.8854   76.1969 N   0  0  0  0  0  0  0  0  0  0  0  0
    8.0599   37.4040   77.6101 O   0  0  0  0  0  0  0  0  0  0  0  0
    7.5266   38.7516   74.7737 C   0  0  2  0  0  0  0  0  0  0  0  0
    8.8099   39.5367   74.4907 C   0  0  0  0  0  0  0  0  0  0  0  0
    8.0140   41.1329   76.2712 C   0  0  0  0  0  0  0  0  0  0  0  0
    8.7869   40.8736   75.1339 N   0  0  0  0  0  0  0  0  0  0  0  0
    6.3802   39.2808   73.9051 C   0  0  0  0  0  0  0  0  0  0  0  0
    6.6760   39.0289   72.4893 N   0  0  0  0  0  0  0  0  0  0  0  0
    8.2988   41.9065   70.0034 C   0  0  0  0  0  0  0  0  0  0  0  0
    8.6794   40.5714   69.8916 C   0  0  0  0  0  0  0  0  0  0  0  0
    8.1436   39.6100   70.7461 C   0  0  0  0  0  0  0  0  0  0  0  0
    7.1878   39.9659   71.6918 C   0  0  0  0  0  0  0  0  0  0  0  0
    6.7999   41.2972   71.7989 C   0  0  0  0  0  0  0  0  0  0  0  0
    7.3617   42.2656   70.9682 C   0  0  0  0  0  0  0  0  0  0  0  0
   11.2806   43.1156   66.6359 C   0  0  0  0  0  0  0  0  0  0  0  0
  1  3  1  0  0  0  0
  2  1  1  1  0  0  0
  2  6  1  0  0  0  0
  2 34  1  0  0  0  0
  3  4  2  0  0  0  0
  3 28  1  0  0  0  0
  5 13  1  0  0  0  0
  6  7  1  0  0  0  0
  7  8  1  0  0  0  0
  8  9  1  0  0  0  0
  8 10  1  0  0  0  0
 11 13  2  0  0  0  0
 11 24  1  0  0  0  0
 12 34  1  0  0  0  0
 13 15  1  0  0  0  0
 14 34  1  0  0  0  0
 15 16  1  0  0  0  0
 16 17  1  0  0  0  0
 16 18  2  0  0  0  0
 17 20  1  0  0  0  0
 17 24  2  0  0  0  0
 19 21  1  0  0  0  0
 19 20  1  0  0  0  0
 20 22  1  0  0  0  0
 22 23  1  0  0  0  0
 22 26  1  6  0  0  0
 23 25  1  0  0  0  0
 24 25  1  0  0  0  0
 26 27  1  0  0  0  0
 27 31  1  0  0  0  0
 28 29  2  0  0  0  0
 28 33  1  0  0  0  0
 29 30  1  0  0  0  0
 30 31  2  0  0  0  0
 31 32  1  0  0  0  0
 32 33  2  0  0  0  0
M  END
>  <CHROM.1>
139.76266855,-61.16064298,171.39941401,71.19973151,65.64192912,-77.88798756
-174.95930231,-98.30369664,141.42515718,-40.40368476,8.74151936,41.49394591
72.76046991,0.83648305,-0.98485888,-1.87001630

>  <Name>
ligand

>  <RI>
0

>  <Rbt.Current_Directory>
/home/itssahil/PROJECTS/Mol_Feturizer/New_Systems/rnas/3SUH

>  <Rbt.Executable>
rbdock ($Id: //depot/dev/client3/rdock/2013.1/src/exe/rbdock.cxx#4 $)

>  <Rbt.Library>
libRbt.so (2013.1, Build901 2013/11/27)

>  <Rbt.Parameter_File>
/export/apps/rDock/src/rDock_2013.1_src/data/scripts/dock_solv.prm

>  <Rbt.Receptor>
prm/pocket_docking_5.prm

>  <SCORE>
-12.6129

>  <SCORE.INTER>
-8.46225

>  <SCORE.INTER.CONST>
1

>  <SCORE.INTER.POLAR>
0

>  <SCORE.INTER.ROT>
10

>  <SCORE.INTER.SOLV>
7.60985

>  <SCORE.INTER.VDW>
-18.4448

>  <SCORE.INTER.norm>
-0.24889

>  <SCORE.INTRA>
-4.15068

>  <SCORE.INTRA.DIHEDRAL>
-3.68218

>  <SCORE.INTRA.DIHEDRAL.0>
12.2703

>  <SCORE.INTRA.POLAR>
0

>  <SCORE.INTRA.POLAR.0>
0

>  <SCORE.INTRA.REPUL>
0

>  <SCORE.INTRA.REPUL.0>
0

>  <SCORE.INTRA.SOLV>
-0.236192

>  <SCORE.INTRA.SOLV.lig_0>
-64.3214

>  <SCORE.INTRA.VDW>
-2.1915

>  <SCORE.INTRA.VDW.0>
-1.67301

>  <SCORE.INTRA.norm>
-0.122079

>  <SCORE.RESTR>
0

>  <SCORE.RESTR.CAVITY>
0

>  <SCORE.RESTR.norm>
0

>  <SCORE.SYSTEM>
0

>  <SCORE.SYSTEM.CONST>
0

>  <SCORE.SYSTEM.DIHEDRAL>
0

>  <SCORE.SYSTEM.SOLV>
0

>  <SCORE.SYSTEM.norm>
0

>  <SCORE.heavy>
34

>  <SCORE.norm>
-0.370969

>  <RMSD>
9.712

$$$$
ligand
 OpenBabel11021811483D
libRbt.so/2013.1/901 2013/11/27
 34 36  0  0  0  0  0  0  0  0999 V2000
    9.5494   42.8768   69.1196 N   0  0  0  0  0  0  0  0  0  0  0  0
   10.2900   43.6473   68.0936 C   0  0  1  0  0  0  0  0  0  0  0  0
    8.2766   43.1180   69.4601 C   0  0  0  0  0  0  0  0  0  0  0  0
    7.5800   44.0064   68.9614 O   0  0  0  0  0  0  0  0  0  0  0  0
    5.9949   43.0973   77.4421 N   0  0  0  0  0  0  0  0  0  0  0  0
   11.5622   44.2496   68.7131 C   0  0  0  0  0  0  0  0  0  0  0  0
   12.4344   43.1722   69.3719 C   0  0  0  0  0  0  0  0  0  0  0  0
   11.9516   42.8600   70.7965 C   0  0  0  0  0  0  0  0  0  0  0  0
   12.1495   43.7347   71.6722 O   0  0  0  0  0  0  0  0  0  0  0  0
   11.3926   41.7540   70.9781 O   0  0  0  0  0  0  0  0  0  0  0  0
    6.9243   41.2167   76.4633 N   0  0  0  0  0  0  0  0  0  0  0  0
   11.1271   43.3600   65.8654 O   0  0  0  0  0  0  0  0  0  0  0  0
    5.8622   41.8548   76.9848 C   0  0  0  0  0  0  0  0  0  0  0  0
   10.4705   41.5419   66.9845 O   0  0  0  0  0  0  0  0  0  0  0  0
    4.6126   41.2259   77.0530 N   0  0  0  0  0  0  0  0  0  0  0  0
    4.4848   39.9312   76.5683 C   0  0  0  0  0  0  0  0  0  0  0  0
    5.5940   39.3124   76.0067 C   0  0  0  0  0  0  0  0  0  0  0  0
    3.3967   39.3623   76.6077 O   0  0  0  0  0  0  0  0  0  0  0  0
    4.7333   37.1395   76.2061 C   0  0  0  0  0  0  0  0  0  0  0  0
    5.5307   37.9934   75.5714 N   0  0  0  0  0  0  0  0  0  0  0  0
    3.9734   36.4087   75.5745 O   0  0  0  0  0  0  0  0  0  0  0  0
    6.4813   37.5178   74.5604 C   0  0  2  0  0  0  0  0  0  0  0  0
    7.8954   37.9191   74.9880 C   0  0  0  0  0  0  0  0  0  0  0  0
    6.8189   39.9656   75.9903 C   0  0  0  0  0  0  0  0  0  0  0  0
    7.9454   39.3235   75.4643 N   0  0  0  0  0  0  0  0  0  0  0  0
    6.1525   38.1190   73.1896 C   0  0  0  0  0  0  0  0  0  0  0  0
    6.0582   39.5799   73.3005 N   0  0  0  0  0  0  0  0  0  0  0  0
    7.7011   42.1545   70.5139 C   0  0  0  0  0  0  0  0  0  0  0  0
    7.0584   42.6470   71.6471 C   0  0  0  0  0  0  0  0  0  0  0  0
    6.4892   41.7738   72.5720 C   0  0  0  0  0  0  0  0  0  0  0  0
    6.5959   40.3982   72.3966 C   0  0  0  0  0  0  0  0  0  0  0  0
    7.2451   39.9047   71.2701 C   0  0  0  0  0  0  0  0  0  0  0  0
    7.7838   40.7777   70.3260 C   0  0  0  0  0  0  0  0  0  0  0  0
   10.6633   42.7774   66.8754 C   0  0  0  0  0  0  0  0  0  0  0  0
  1  3  1  0  0  0  0
  2  1  1  1  0  0  0
  2  6  1  0  0  0  0
  2 34  1  0  0  0  0
  3  4  2  0  0  0  0
  3 28  1  0  0  0  0
  5 13  1  0  0  0  0
  6  7  1  0  0  0  0
  7  8  1  0  0  0  0
  8  9  1  0  0  0  0
  8 10  1  0  0  0  0
 11 13  2  0  0  0  0
 11 24  1  0  0  0  0
 12 34  1  0  0  0  0
 13 15  1  0  0  0  0
 14 34  1  0  0  0  0
 15 16  1  0  0  0  0
 16 17  1  0  0  0  0
 16 18  2  0  0  0  0
 17 20  1  0  0  0  0
 17 24  2  0  0  0  0
 19 21  1  0  0  0  0
 19 20  1  0  0  0  0
 20 22  1  0  0  0  0
 22 23  1  0  0  0  0
 22 26  1  6  0  0  0
 23 25  1  0  0  0  0
 24 25  1  0  0  0  0
 26 27  1  0  0  0  0
 27 31  1  0  0  0  0
 28 29  2  0  0  0  0
 28 33  1  0  0  0  0
 29 30  1  0  0  0  0
 30 31  2  0  0  0  0
 31 32  1  0  0  0  0
 32 33  2  0  0  0  0
M  END
>  <CHROM.1>
122.91926619,54.93294992,170.36569183,-83.42461993,-71.32507956,132.24058885
52.72428679,136.89451988,-178.96982910,129.43208479,7.76902894,41.01777612
72.54135366,0.43420636,-0.94282285,-2.13740590

>  <Name>
ligand

>  <RI>
0

>  <Rbt.Current_Directory>
/home/itssahil/PROJECTS/Mol_Feturizer/New_Systems/rnas/3SUH

>  <Rbt.Executable>
rbdock ($Id: //depot/dev/client3/rdock/2013.1/src/exe/rbdock.cxx#4 $)

>  <Rbt.Library>
libRbt.so (2013.1, Build901 2013/11/27)

>  <Rbt.Parameter_File>
/export/apps/rDock/src/rDock_2013.1_src/data/scripts/dock_solv.prm

>  <Rbt.Receptor>
prm/pocket_docking_5.prm

>  <SCORE>
-10.3773

>  <SCORE.INTER>
-9.14981

>  <SCORE.INTER.CONST>
1

>  <SCORE.INTER.POLAR>
0

>  <SCORE.INTER.ROT>
10

>  <SCORE.INTER.SOLV>
9.09224

>  <SCORE.INTER.VDW>
-19.3973

>  <SCORE.INTER.norm>
-0.269112

>  <SCORE.INTRA>
-1.22747

>  <SCORE.INTRA.DIHEDRAL>
-1.50512

>  <SCORE.INTRA.DIHEDRAL.0>
12.2703

>  <SCORE.INTRA.POLAR>
0

>  <SCORE.INTRA.POLAR.0>
0

>  <SCORE.INTRA.REPUL>
0

>  <SCORE.INTRA.REPUL.0>
0

>  <SCORE.INTRA.SOLV>
2.29952

>  <SCORE.INTRA.SOLV.lig_0>
-64.3214

>  <SCORE.INTRA.VDW>
-1.62467

>  <SCORE.INTRA.VDW.0>
-1.67301

>  <SCORE.INTRA.norm>
-0.036102

>  <SCORE.RESTR>
0

>  <SCORE.RESTR.CAVITY>
0

>  <SCORE.RESTR.norm>
0

>  <SCORE.SYSTEM>
0

>  <SCORE.SYSTEM.CONST>
0

>  <SCORE.SYSTEM.DIHEDRAL>
0

>  <SCORE.SYSTEM.SOLV>
0

>  <SCORE.SYSTEM.norm>
0

>  <SCORE.heavy>
34

>  <SCORE.norm>
-0.305214

>  <RMSD>
9.735

$$$$
ligand
 OpenBabel11021811483D
libRbt.so/2013.1/901 2013/11/27
 34 36  0  0  0  0  0  0  0  0999 V2000
   10.5041   42.8190   68.7908 N   0  0  0  0  0  0  0  0  0  0  0  0
   11.2234   43.7540   67.8946 C   0  0  1  0  0  0  0  0  0  0  0  0
    9.2663   42.3638   68.5569 C   0  0  0  0  0  0  0  0  0  0  0  0
    8.5868   42.6716   67.5737 O   0  0  0  0  0  0  0  0  0  0  0  0
    9.4647   40.3154   77.0446 N   0  0  0  0  0  0  0  0  0  0  0  0
   12.5582   44.1671   68.5371 C   0  0  0  0  0  0  0  0  0  0  0  0
   12.3436   44.8635   69.8877 C   0  0  0  0  0  0  0  0  0  0  0  0
   11.9286   43.8578   70.9724 C   0  0  0  0  0  0  0  0  0  0  0  0
   12.8178   43.0921   71.4129 O   0  0  0  0  0  0  0  0  0  0  0  0
   10.7312   43.8787   71.3393 O   0  0  0  0  0  0  0  0  0  0  0  0
    8.7383   38.5868   75.6871 N   0  0  0  0  0  0  0  0  0  0  0  0
   12.0717   43.8483   65.6542 O   0  0  0  0  0  0  0  0  0  0  0  0
    8.4790   39.6975   76.3988 C   0  0  0  0  0  0  0  0  0  0  0  0
   11.0746   41.9646   66.3226 O   0  0  0  0  0  0  0  0  0  0  0  0
    7.1793   40.2147   76.4692 N   0  0  0  0  0  0  0  0  0  0  0  0
    6.1596   39.5643   75.7873 C   0  0  0  0  0  0  0  0  0  0  0  0
    6.4672   38.4380   75.0355 C   0  0  0  0  0  0  0  0  0  0  0  0
    5.0134   40.0045   75.8256 O   0  0  0  0  0  0  0  0  0  0  0  0
    4.2595   37.6509   74.9420 C   0  0  0  0  0  0  0  0  0  0  0  0
    5.4685   37.7153   74.3924 N   0  0  0  0  0  0  0  0  0  0  0  0
    4.0739   36.9966   75.9656 O   0  0  0  0  0  0  0  0  0  0  0  0
    5.8097   36.8782   73.2369 C   0  0  2  0  0  0  0  0  0  0  0  0
    7.0132   36.0051   73.6009 C   0  0  0  0  0  0  0  0  0  0  0  0
    7.7652   37.9457   75.0221 C   0  0  0  0  0  0  0  0  0  0  0  0
    8.0642   36.7853   74.2997 N   0  0  0  0  0  0  0  0  0  0  0  0
    6.1375   37.7506   72.0204 C   0  0  0  0  0  0  0  0  0  0  0  0
    7.2683   38.6325   72.3349 N   0  0  0  0  0  0  0  0  0  0  0  0
    8.7438   41.3608   69.6013 C   0  0  0  0  0  0  0  0  0  0  0  0
    7.6003   41.6439   70.3444 C   0  0  0  0  0  0  0  0  0  0  0  0
    7.0969   40.7114   71.2492 C   0  0  0  0  0  0  0  0  0  0  0  0
    7.7571   39.5045   71.4537 C   0  0  0  0  0  0  0  0  0  0  0  0
    8.9042   39.2238   70.7191 C   0  0  0  0  0  0  0  0  0  0  0  0
    9.3885   40.1412   69.7876 C   0  0  0  0  0  0  0  0  0  0  0  0
   11.4811   43.1383   66.5038 C   0  0  0  0  0  0  0  0  0  0  0  0
  1  3  1  0  0  0  0
  2  1  1  1  0  0  0
  2  6  1  0  0  0  0
  2 34  1  0  0  0  0
  3  4  2  0  0  0  0
  3 28  1  0  0  0  0
  5 13  1  0  0  0  0
  6  7  1  0  0  0  0
  7  8  1  0  0  0  0
  8  9  1  0  0  0  0
  8 10  1  0  0  0  0
 11 13  2  0  0  0  0
 11 24  1  0  0  0  0
 12 34  1  0  0  0  0
 13 15  1  0  0  0  0
 14 34  1  0  0  0  0
 15 16  1  0  0  0  0
 16 17  1  0  0  0  0
 16 18  2  0  0  0  0
 17 20  1  0  0  0  0
 17 24  2  0  0  0  0
 19 21  1  0  0  0  0
 19 20  1  0  0  0  0
 20 22  1  0  0  0  0
 22 23  1  0  0  0  0
 22 26  1  6  0  0  0
 23 25  1  0  0  0  0
 24 25  1  0  0  0  0
 26 27  1  0  0  0  0
 27 31  1  0  0  0  0
 28 29  2  0  0  0  0
 28 33  1  0  0  0  0
 29 30  1  0  0  0  0
 30 31  2  0  0  0  0
 31 32  1  0  0  0  0
 32 33  2  0  0  0  0
M  END
>  <CHROM.1>
174.59764897,-59.93348017,179.18801953,73.33163630,73.72272187,-70.82958808
59.30283882,-179.60444195,79.20508312,119.43548032,8.59249512,40.50992639
71.88205714,0.79755986,-0.77305214,-1.52415084

>  <Name>
ligand

>  <RI>
0

>  <Rbt.Current_Directory>
/home/itssahil/PROJECTS/Mol_Feturizer/New_Systems/rnas/3SUH

>  <Rbt.Executable>
rbdock ($Id: //depot/dev/client3/rdock/2013.1/src/exe/rbdock.cxx#4 $)

>  <Rbt.Library>
libRbt.so (2013.1, Build901 2013/11/27)

>  <Rbt.Parameter_File>
/export/apps/rDock/src/rDock_2013.1_src/data/scripts/dock_solv.prm

>  <Rbt.Receptor>
prm/pocket_docking_6.prm

>  <SCORE>
-15.4859

>  <SCORE.INTER>
-11.7431

>  <SCORE.INTER.CONST>
1

>  <SCORE.INTER.POLAR>
0

>  <SCORE.INTER.ROT>
10

>  <SCORE.INTER.SOLV>
8.72412

>  <SCORE.INTER.VDW>
-21.0034

>  <SCORE.INTER.norm>
-0.345384

>  <SCORE.INTRA>
-3.75319

>  <SCORE.INTRA.DIHEDRAL>
-5.31558

>  <SCORE.INTRA.DIHEDRAL.0>
12.2703

>  <SCORE.INTRA.POLAR>
0

>  <SCORE.INTRA.POLAR.0>
0

>  <SCORE.INTRA.REPUL>
0

>  <SCORE.INTRA.REPUL.0>
0

>  <SCORE.INTRA.SOLV>
2.38787

>  <SCORE.INTRA.SOLV.lig_0>
-64.3214

>  <SCORE.INTRA.VDW>
-2.28933

>  <SCORE.INTRA.VDW.0>
-1.67301

>  <SCORE.INTRA.norm>
-0.110388

>  <SCORE.RESTR>
0.0103459

>  <SCORE.RESTR.CAVITY>
0.0103459

>  <SCORE.RESTR.norm>
0.000304292

>  <SCORE.SYSTEM>
0

>  <SCORE.SYSTEM.CONST>
0

>  <SCORE.SYSTEM.DIHEDRAL>
0

>  <SCORE.SYSTEM.SOLV>
0

>  <SCORE.SYSTEM.norm>
0

>  <SCORE.heavy>
34

>  <SCORE.norm>
-0.455467

>  <RMSD>
9.746

$$$$
ligand
 OpenBabel11021811483D
libRbt.so/2013.1/901 2013/11/27
 34 36  0  0  0  0  0  0  0  0999 V2000
    9.1465   42.9356   69.9293 N   0  0  0  0  0  0  0  0  0  0  0  0
   10.0295   43.0754   68.7479 C   0  0  1  0  0  0  0  0  0  0  0  0
    7.9680   43.5587   70.0586 C   0  0  0  0  0  0  0  0  0  0  0  0
    7.4868   44.3181   69.2130 O   0  0  0  0  0  0  0  0  0  0  0  0
   11.4158   38.6860   77.7908 N   0  0  0  0  0  0  0  0  0  0  0  0
   11.3039   42.2382   68.9490 C   0  0  0  0  0  0  0  0  0  0  0  0
   12.2224   42.8542   70.0131 C   0  0  0  0  0  0  0  0  0  0  0  0
   12.6747   44.2654   69.6081 C   0  0  0  0  0  0  0  0  0  0  0  0
   12.7578   45.1229   70.5185 O   0  0  0  0  0  0  0  0  0  0  0  0
   12.9302   44.4550   68.3966 O   0  0  0  0  0  0  0  0  0  0  0  0
    9.4070   38.9321   76.6672 N   0  0  0  0  0  0  0  0  0  0  0  0
    8.2145   42.0693   67.5474 O   0  0  0  0  0  0  0  0  0  0  0  0
   10.1316   39.0339   77.7950 C   0  0  0  0  0  0  0  0  0  0  0  0
    9.9169   42.9084   66.3699 O   0  0  0  0  0  0  0  0  0  0  0  0
    9.5494   39.5037   78.9791 N   0  0  0  0  0  0  0  0  0  0  0  0
    8.2099   39.8685   78.9704 C   0  0  0  0  0  0  0  0  0  0  0  0
    7.4985   39.7815   77.7810 C   0  0  0  0  0  0  0  0  0  0  0  0
    7.6795   40.2930   79.9940 O   0  0  0  0  0  0  0  0  0  0  0  0
    5.3892   39.8092   78.8069 C   0  0  0  0  0  0  0  0  0  0  0  0
    6.1389   40.0703   77.7403 N   0  0  0  0  0  0  0  0  0  0  0  0
    4.3686   40.4580   79.0256 O   0  0  0  0  0  0  0  0  0  0  0  0
    5.5200   40.4656   76.4704 C   0  0  2  0  0  0  0  0  0  0  0  0
    5.9313   39.4623   75.3899 C   0  0  0  0  0  0  0  0  0  0  0  0
    8.1116   39.2801   76.6407 C   0  0  0  0  0  0  0  0  0  0  0  0
    7.3808   39.1517   75.4545 N   0  0  0  0  0  0  0  0  0  0  0  0
    5.9613   41.8791   76.0754 C   0  0  0  0  0  0  0  0  0  0  0  0
    5.2375   42.3042   74.8709 N   0  0  0  0  0  0  0  0  0  0  0  0
    7.2018   43.2202   71.3501 C   0  0  0  0  0  0  0  0  0  0  0  0
    7.0821   41.8997   71.7766 C   0  0  0  0  0  0  0  0  0  0  0  0
    6.4365   41.5999   72.9745 C   0  0  0  0  0  0  0  0  0  0  0  0
    5.8641   42.6132   73.7362 C   0  0  0  0  0  0  0  0  0  0  0  0
    5.9749   43.9315   73.3073 C   0  0  0  0  0  0  0  0  0  0  0  0
    6.6517   44.2358   72.1270 C   0  0  0  0  0  0  0  0  0  0  0  0
    9.3234   42.6475   67.4448 C   0  0  0  0  0  0  0  0  0  0  0  0
  1  3  1  0  0  0  0
  2  1  1  1  0  0  0
  2  6  1  0  0  0  0
  2 34  1  0  0  0  0
  3  4  2  0  0  0  0
  3 28  1  0  0  0  0
  5 13  1  0  0  0  0
  6  7  1  0  0  0  0
  7  8  1  0  0  0  0
  8  9  1  0  0  0  0
  8 10  1  0  0  0  0
 11 13  2  0  0  0  0
 11 24  1  0  0  0  0
 12 34  1  0  0  0  0
 13 15  1  0  0  0  0
 14 34  1  0  0  0  0
 15 16  1  0  0  0  0
 16 17  1  0  0  0  0
 16 18  2  0  0  0  0
 17 20  1  0  0  0  0
 17 24  2  0  0  0  0
 19 21  1  0  0  0  0
 19 20  1  0  0  0  0
 20 22  1  0  0  0  0
 22 23  1  0  0  0  0
 22 26  1  6  0  0  0
 23 25  1  0  0  0  0
 24 25  1  0  0  0  0
 26 27  1  0  0  0  0
 27 31  1  0  0  0  0
 28 29  2  0  0  0  0
 28 33  1  0  0  0  0
 29 30  1  0  0  0  0
 30 31  2  0  0  0  0
 31 32  1  0  0  0  0
 32 33  2  0  0  0  0
M  END
>  <CHROM.1>
179.15823938,-71.14332796,-10.11031640,-60.72638516,141.88889503,152.78415153
-174.78769551,-119.24452550,72.07671556,-45.61531185,8.31264207,41.68992622
73.50034958,1.26512373,0.11613972,-1.16573666

>  <Name>
ligand

>  <RI>
0

>  <Rbt.Current_Directory>
/home/itssahil/PROJECTS/Mol_Feturizer/New_Systems/rnas/3SUH

>  <Rbt.Executable>
rbdock ($Id: //depot/dev/client3/rdock/2013.1/src/exe/rbdock.cxx#4 $)

>  <Rbt.Library>
libRbt.so (2013.1, Build901 2013/11/27)

>  <Rbt.Parameter_File>
/export/apps/rDock/src/rDock_2013.1_src/data/scripts/dock_solv.prm

>  <Rbt.Receptor>
prm/pocket_docking_6.prm

>  <SCORE>
-9.56683

>  <SCORE.INTER>
-6.11539

>  <SCORE.INTER.CONST>
1

>  <SCORE.INTER.POLAR>
0

>  <SCORE.INTER.ROT>
10

>  <SCORE.INTER.SOLV>
7.75027

>  <SCORE.INTER.VDW>
-16.927

>  <SCORE.INTER.norm>
-0.179865

>  <SCORE.INTRA>
-3.45143

>  <SCORE.INTRA.DIHEDRAL>
-4.31386

>  <SCORE.INTRA.DIHEDRAL.0>
12.2703

>  <SCORE.INTRA.POLAR>
0

>  <SCORE.INTRA.POLAR.0>
0

>  <SCORE.INTRA.REPUL>
0

>  <SCORE.INTRA.REPUL.0>
0

>  <SCORE.INTRA.SOLV>
-0.552966

>  <SCORE.INTRA.SOLV.lig_0>
-64.3214

>  <SCORE.INTRA.VDW>
-1.01802

>  <SCORE.INTRA.VDW.0>
-1.67301

>  <SCORE.INTRA.norm>
-0.101513

>  <SCORE.RESTR>
0

>  <SCORE.RESTR.CAVITY>
0

>  <SCORE.RESTR.norm>
0

>  <SCORE.SYSTEM>
0

>  <SCORE.SYSTEM.CONST>
0

>  <SCORE.SYSTEM.DIHEDRAL>
0

>  <SCORE.SYSTEM.SOLV>
0

>  <SCORE.SYSTEM.norm>
0

>  <SCORE.heavy>
34

>  <SCORE.norm>
-0.281377

>  <RMSD>
9.750

$$$$
ligand
 OpenBabel11021811483D
libRbt.so/2013.1/901 2013/11/27
 34 36  0  0  0  0  0  0  0  0999 V2000
    8.3628   42.8747   69.5692 N   0  0  0  0  0  0  0  0  0  0  0  0
    9.1538   42.4297   68.3982 C   0  0  1  0  0  0  0  0  0  0  0  0
    7.5251   42.0813   70.2496 C   0  0  0  0  0  0  0  0  0  0  0  0
    7.3167   40.8955   69.9785 O   0  0  0  0  0  0  0  0  0  0  0  0
    5.9426   39.2608   76.1570 N   0  0  0  0  0  0  0  0  0  0  0  0
   10.2702   43.4467   68.1077 C   0  0  0  0  0  0  0  0  0  0  0  0
   11.0669   43.0678   66.8519 C   0  0  0  0  0  0  0  0  0  0  0  0
   12.3172   43.9474   66.6999 C   0  0  0  0  0  0  0  0  0  0  0  0
   12.6139   44.3248   65.5420 O   0  0  0  0  0  0  0  0  0  0  0  0
   12.9478   44.2255   67.7458 O   0  0  0  0  0  0  0  0  0  0  0  0
    5.2231   41.3987   76.6768 N   0  0  0  0  0  0  0  0  0  0  0  0
   10.0808   40.7057   69.7825 O   0  0  0  0  0  0  0  0  0  0  0  0
    6.2162   40.5449   76.3731 C   0  0  0  0  0  0  0  0  0  0  0  0
    9.9055   40.3135   67.5906 O   0  0  0  0  0  0  0  0  0  0  0  0
    7.5404   40.9918   76.2807 N   0  0  0  0  0  0  0  0  0  0  0  0
    7.8132   42.3348   76.5034 C   0  0  0  0  0  0  0  0  0  0  0  0
    6.7604   43.1959   76.7834 C   0  0  0  0  0  0  0  0  0  0  0  0
    8.9653   42.7526   76.4181 O   0  0  0  0  0  0  0  0  0  0  0  0
    8.1140   44.8719   77.7114 C   0  0  0  0  0  0  0  0  0  0  0  0
    6.9932   44.5341   77.0807 N   0  0  0  0  0  0  0  0  0  0  0  0
    8.0998   45.1304   78.9128 O   0  0  0  0  0  0  0  0  0  0  0  0
    5.9239   45.5179   76.8786 C   0  0  2  0  0  0  0  0  0  0  0  0
    4.6435   44.9935   77.5338 C   0  0  0  0  0  0  0  0  0  0  0  0
    5.4687   42.6995   76.8950 C   0  0  0  0  0  0  0  0  0  0  0  0
    4.4155   43.5612   77.2209 N   0  0  0  0  0  0  0  0  0  0  0  0
    5.6923   45.7592   75.3831 C   0  0  0  0  0  0  0  0  0  0  0  0
    5.1378   44.5475   74.7669 N   0  0  0  0  0  0  0  0  0  0  0  0
    6.8516   42.7495   71.4619 C   0  0  0  0  0  0  0  0  0  0  0  0
    6.5084   41.9988   72.5837 C   0  0  0  0  0  0  0  0  0  0  0  0
    5.9498   42.6145   73.7020 C   0  0  0  0  0  0  0  0  0  0  0  0
    5.6867   43.9802   73.6933 C   0  0  0  0  0  0  0  0  0  0  0  0
    6.0206   44.7299   72.5705 C   0  0  0  0  0  0  0  0  0  0  0  0
    6.6122   44.1208   71.4648 C   0  0  0  0  0  0  0  0  0  0  0  0
    9.7650   41.0295   68.6120 C   0  0  0  0  0  0  0  0  0  0  0  0
  1  3  1  0  0  0  0
  2  1  1  1  0  0  0
  2  6  1  0  0  0  0
  2 34  1  0  0  0  0
  3  4  2  0  0  0  0
  3 28  1  0  0  0  0
  5 13  1  0  0  0  0
  6  7  1  0  0  0  0
  7  8  1  0  0  0  0
  8  9  1  0  0  0  0
  8 10  1  0  0  0  0
 11 13  2  0  0  0  0
 11 24  1  0  0  0  0
 12 34  1  0  0  0  0
 13 15  1  0  0  0  0
 14 34  1  0  0  0  0
 15 16  1  0  0  0  0
 16 17  1  0  0  0  0
 16 18  2  0  0  0  0
 17 20  1  0  0  0  0
 17 24  2  0  0  0  0
 19 21  1  0  0  0  0
 19 20  1  0  0  0  0
 20 22  1  0  0  0  0
 22 23  1  0  0  0  0
 22 26  1  6  0  0  0
 23 25  1  0  0  0  0
 24 25  1  0  0  0  0
 26 27  1  0  0  0  0
 27 31  1  0  0  0  0
 28 29  2  0  0  0  0
 28 33  1  0  0  0  0
 29 30  1  0  0  0  0
 30 31  2  0  0  0  0
 31 32  1  0  0  0  0
 32 33  2  0  0  0  0
M  END
>  <CHROM.1>
-164.56837559,-176.74159577,-31.72552947,-170.52868470,-140.40740955,-102.46589658
67.44962995,-126.82280920,130.07903171,-148.95327461,7.80152935,42.98635975
72.94830563,0.69447983,-0.96520491,-2.42945709

>  <Name>
ligand

>  <RI>
0

>  <Rbt.Current_Directory>
/home/itssahil/PROJECTS/Mol_Feturizer/New_Systems/rnas/3SUH

>  <Rbt.Executable>
rbdock ($Id: //depot/dev/client3/rdock/2013.1/src/exe/rbdock.cxx#4 $)

>  <Rbt.Library>
libRbt.so (2013.1, Build901 2013/11/27)

>  <Rbt.Parameter_File>
/export/apps/rDock/src/rDock_2013.1_src/data/scripts/dock_solv.prm

>  <Rbt.Receptor>
prm/pocket_docking_5.prm

>  <SCORE>
-13.8671

>  <SCORE.INTER>
-11.0666

>  <SCORE.INTER.CONST>
1

>  <SCORE.INTER.POLAR>
0

>  <SCORE.INTER.ROT>
10

>  <SCORE.INTER.SOLV>
8.74021

>  <SCORE.INTER.VDW>
-20.5578

>  <SCORE.INTER.norm>
-0.325489

>  <SCORE.INTRA>
-2.80043

>  <SCORE.INTRA.DIHEDRAL>
-4.0057

>  <SCORE.INTRA.DIHEDRAL.0>
12.2703

>  <SCORE.INTRA.POLAR>
0

>  <SCORE.INTRA.POLAR.0>
0

>  <SCORE.INTRA.REPUL>
0

>  <SCORE.INTRA.REPUL.0>
0

>  <SCORE.INTRA.SOLV>
1.80332

>  <SCORE.INTRA.SOLV.lig_0>
-64.3214

>  <SCORE.INTRA.VDW>
-1.69923

>  <SCORE.INTRA.VDW.0>
-1.67301

>  <SCORE.INTRA.norm>
-0.0823655

>  <SCORE.RESTR>
0

>  <SCORE.RESTR.CAVITY>
0

>  <SCORE.RESTR.norm>
0

>  <SCORE.SYSTEM>
0

>  <SCORE.SYSTEM.CONST>
0

>  <SCORE.SYSTEM.DIHEDRAL>
0

>  <SCORE.SYSTEM.SOLV>
0

>  <SCORE.SYSTEM.norm>
0

>  <SCORE.heavy>
34

>  <SCORE.norm>
-0.407855

>  <RMSD>
9.794

$$$$
ligand
 OpenBabel11021811483D
libRbt.so/2013.1/901 2013/11/27
 34 36  0  0  0  0  0  0  0  0999 V2000
    8.2522   42.9115   69.9910 N   0  0  0  0  0  0  0  0  0  0  0  0
    8.8447   43.7278   68.9059 C   0  0  1  0  0  0  0  0  0  0  0  0
    7.7960   41.6635   69.8225 C   0  0  0  0  0  0  0  0  0  0  0  0
    7.8157   41.0553   68.7487 O   0  0  0  0  0  0  0  0  0  0  0  0
    1.6106   37.7728   71.3218 N   0  0  0  0  0  0  0  0  0  0  0  0
    9.1430   45.1446   69.4246 C   0  0  0  0  0  0  0  0  0  0  0  0
    7.8528   45.9254   69.7090 C   0  0  0  0  0  0  0  0  0  0  0  0
    8.1557   47.3872   70.0719 C   0  0  0  0  0  0  0  0  0  0  0  0
    7.3307   48.2528   69.6959 O   0  0  0  0  0  0  0  0  0  0  0  0
    9.2048   47.6067   70.7198 O   0  0  0  0  0  0  0  0  0  0  0  0
    2.6519   37.6116   73.3829 N   0  0  0  0  0  0  0  0  0  0  0  0
   10.2463   43.0115   67.0976 O   0  0  0  0  0  0  0  0  0  0  0  0
    2.6742   37.4417   72.0495 C   0  0  0  0  0  0  0  0  0  0  0  0
   10.9818   42.7027   69.1838 O   0  0  0  0  0  0  0  0  0  0  0  0
    3.8075   36.9188   71.4139 N   0  0  0  0  0  0  0  0  0  0  0  0
    4.9132   36.5814   72.1828 C   0  0  0  0  0  0  0  0  0  0  0  0
    4.8691   36.7994   73.5535 C   0  0  0  0  0  0  0  0  0  0  0  0
    5.9226   36.1306   71.6471 O   0  0  0  0  0  0  0  0  0  0  0  0
    6.6382   35.3398   74.0453 C   0  0  0  0  0  0  0  0  0  0  0  0
    5.9253   36.4137   74.3714 N   0  0  0  0  0  0  0  0  0  0  0  0
    6.2416   34.2147   74.3408 O   0  0  0  0  0  0  0  0  0  0  0  0
    6.1110   37.0674   75.6715 C   0  0  2  0  0  0  0  0  0  0  0  0
    4.7733   37.0698   76.4159 C   0  0  0  0  0  0  0  0  0  0  0  0
    3.7113   37.2910   74.1412 C   0  0  0  0  0  0  0  0  0  0  0  0
    3.6534   37.4683   75.5279 N   0  0  0  0  0  0  0  0  0  0  0  0
    6.6144   38.5027   75.4836 C   0  0  0  0  0  0  0  0  0  0  0  0
    5.7636   39.2016   74.5125 N   0  0  0  0  0  0  0  0  0  0  0  0
    7.2716   40.9936   71.1055 C   0  0  0  0  0  0  0  0  0  0  0  0
    6.7294   41.7608   72.1336 C   0  0  0  0  0  0  0  0  0  0  0  0
    6.2045   41.1491   73.2703 C   0  0  0  0  0  0  0  0  0  0  0  0
    6.2570   39.7664   73.4110 C   0  0  0  0  0  0  0  0  0  0  0  0
    6.8063   38.9993   72.3891 C   0  0  0  0  0  0  0  0  0  0  0  0
    7.2994   39.6080   71.2359 C   0  0  0  0  0  0  0  0  0  0  0  0
   10.1345   43.0944   68.3446 C   0  0  0  0  0  0  0  0  0  0  0  0
  1  3  1  0  0  0  0
  2  1  1  1  0  0  0
  2  6  1  0  0  0  0
  2 34  1  0  0  0  0
  3  4  2  0  0  0  0
  3 28  1  0  0  0  0
  5 13  1  0  0  0  0
  6  7  1  0  0  0  0
  7  8  1  0  0  0  0
  8  9  1  0  0  0  0
  8 10  1  0  0  0  0
 11 13  2  0  0  0  0
 11 24  1  0  0  0  0
 12 34  1  0  0  0  0
 13 15  1  0  0  0  0
 14 34  1  0  0  0  0
 15 16  1  0  0  0  0
 16 17  1  0  0  0  0
 16 18  2  0  0  0  0
 17 20  1  0  0  0  0
 17 24  2  0  0  0  0
 19 21  1  0  0  0  0
 19 20  1  0  0  0  0
 20 22  1  0  0  0  0
 22 23  1  0  0  0  0
 22 26  1  6  0  0  0
 23 25  1  0  0  0  0
 24 25  1  0  0  0  0
 26 27  1  0  0  0  0
 27 31  1  0  0  0  0
 28 29  2  0  0  0  0
 28 33  1  0  0  0  0
 29 30  1  0  0  0  0
 30 31  2  0  0  0  0
 31 32  1  0  0  0  0
 32 33  2  0  0  0  0
M  END
>  <CHROM.1>
175.00641186,-68.82388573,132.34849042,-173.51358326,145.53673834,-82.60009684
50.14029542,-123.56274799,-114.03068249,28.93258959,6.59254341,40.24286966
71.87358523,-0.93693574,-0.84670303,-3.13682513

>  <Name>
ligand

>  <RI>
0

>  <Rbt.Current_Directory>
/home/itssahil/PROJECTS/Mol_Feturizer/New_Systems/rnas/3SUH

>  <Rbt.Executable>
rbdock ($Id: //depot/dev/client3/rdock/2013.1/src/exe/rbdock.cxx#4 $)

>  <Rbt.Library>
libRbt.so (2013.1, Build901 2013/11/27)

>  <Rbt.Parameter_File>
/export/apps/rDock/src/rDock_2013.1_src/data/scripts/dock_solv.prm

>  <Rbt.Receptor>
prm/pocket_docking_8.prm

>  <SCORE>
-11.5864

>  <SCORE.INTER>
-8.11981

>  <SCORE.INTER.CONST>
1

>  <SCORE.INTER.POLAR>
0

>  <SCORE.INTER.ROT>
10

>  <SCORE.INTER.SOLV>
13.6259

>  <SCORE.INTER.VDW>
-20.2218

>  <SCORE.INTER.norm>
-0.238818

>  <SCORE.INTRA>
-3.46662

>  <SCORE.INTRA.DIHEDRAL>
-4.16974

>  <SCORE.INTRA.DIHEDRAL.0>
12.2703

>  <SCORE.INTRA.POLAR>
0

>  <SCORE.INTRA.POLAR.0>
0

>  <SCORE.INTRA.REPUL>
0

>  <SCORE.INTRA.REPUL.0>
0

>  <SCORE.INTRA.SOLV>
2.16967

>  <SCORE.INTRA.SOLV.lig_0>
-64.3214

>  <SCORE.INTRA.VDW>
-2.46658

>  <SCORE.INTRA.VDW.0>
-1.67301

>  <SCORE.INTRA.norm>
-0.101959

>  <SCORE.RESTR>
0

>  <SCORE.RESTR.CAVITY>
0

>  <SCORE.RESTR.norm>
0

>  <SCORE.SYSTEM>
0

>  <SCORE.SYSTEM.CONST>
0

>  <SCORE.SYSTEM.DIHEDRAL>
0

>  <SCORE.SYSTEM.SOLV>
0

>  <SCORE.SYSTEM.norm>
0

>  <SCORE.heavy>
34

>  <SCORE.norm>
-0.340777

>  <RMSD>
9.794

$$$$
ligand
 OpenBabel11021811483D
libRbt.so/2013.1/901 2013/11/27
 34 36  0  0  0  0  0  0  0  0999 V2000
    9.3548   41.8073   69.4420 N   0  0  0  0  0  0  0  0  0  0  0  0
   10.3137   41.0899   68.5699 C   0  0  1  0  0  0  0  0  0  0  0  0
    8.4694   41.1961   70.2398 C   0  0  0  0  0  0  0  0  0  0  0  0
    8.3513   39.9714   70.3373 O   0  0  0  0  0  0  0  0  0  0  0  0
    5.1918   38.0106   76.5842 N   0  0  0  0  0  0  0  0  0  0  0  0
   10.4174   41.8048   67.2122 C   0  0  0  0  0  0  0  0  0  0  0  0
   10.6794   43.3073   67.3834 C   0  0  0  0  0  0  0  0  0  0  0  0
   12.0901   43.6840   66.9059 C   0  0  0  0  0  0  0  0  0  0  0  0
   12.3337   43.5549   65.6831 O   0  0  0  0  0  0  0  0  0  0  0  0
   12.8936   44.0954   67.7741 O   0  0  0  0  0  0  0  0  0  0  0  0
    4.7017   40.2561   76.8604 N   0  0  0  0  0  0  0  0  0  0  0  0
   12.2745   39.8624   69.1997 O   0  0  0  0  0  0  0  0  0  0  0  0
    5.5090   39.2885   76.3920 C   0  0  0  0  0  0  0  0  0  0  0  0
   12.1858   42.0353   69.7088 O   0  0  0  0  0  0  0  0  0  0  0  0
    6.6844   39.6097   75.7013 N   0  0  0  0  0  0  0  0  0  0  0  0
    7.0027   40.9464   75.5025 C   0  0  0  0  0  0  0  0  0  0  0  0
    6.1310   41.9206   75.9711 C   0  0  0  0  0  0  0  0  0  0  0  0
    8.0229   41.2532   74.8908 O   0  0  0  0  0  0  0  0  0  0  0  0
    7.7150   43.6499   75.9154 C   0  0  0  0  0  0  0  0  0  0  0  0
    6.4419   43.2710   75.8556 N   0  0  0  0  0  0  0  0  0  0  0  0
    8.0259   44.8233   75.7241 O   0  0  0  0  0  0  0  0  0  0  0  0
    5.3644   44.2663   75.8716 C   0  0  2  0  0  0  0  0  0  0  0  0
    4.4510   43.9826   77.0669 C   0  0  0  0  0  0  0  0  0  0  0  0
    4.9938   41.5527   76.6773 C   0  0  0  0  0  0  0  0  0  0  0  0
    4.1398   42.5369   77.1871 N   0  0  0  0  0  0  0  0  0  0  0  0
    4.5618   44.2095   74.5673 C   0  0  0  0  0  0  0  0  0  0  0  0
    5.3856   44.7061   73.4582 N   0  0  0  0  0  0  0  0  0  0  0  0
    7.6114   42.1475   71.0933 C   0  0  0  0  0  0  0  0  0  0  0  0
    6.8820   41.6632   72.1765 C   0  0  0  0  0  0  0  0  0  0  0  0
    6.1503   42.5340   72.9815 C   0  0  0  0  0  0  0  0  0  0  0  0
    6.1036   43.8921   72.6851 C   0  0  0  0  0  0  0  0  0  0  0  0
    6.8242   44.3761   71.5985 C   0  0  0  0  0  0  0  0  0  0  0  0
    7.5852   43.5109   70.8137 C   0  0  0  0  0  0  0  0  0  0  0  0
   11.7120   40.9840   69.2129 C   0  0  0  0  0  0  0  0  0  0  0  0
  1  3  1  0  0  0  0
  2  1  1  1  0  0  0
  2  6  1  0  0  0  0
  2 34  1  0  0  0  0
  3  4  2  0  0  0  0
  3 28  1  0  0  0  0
  5 13  1  0  0  0  0
  6  7  1  0  0  0  0
  7  8  1  0  0  0  0
  8  9  1  0  0  0  0
  8 10  1  0  0  0  0
 11 13  2  0  0  0  0
 11 24  1  0  0  0  0
 12 34  1  0  0  0  0
 13 15  1  0  0  0  0
 14 34  1  0  0  0  0
 15 16  1  0  0  0  0
 16 17  1  0  0  0  0
 16 18  2  0  0  0  0
 17 20  1  0  0  0  0
 17 24  2  0  0  0  0
 19 21  1  0  0  0  0
 19 20  1  0  0  0  0
 20 22  1  0  0  0  0
 22 23  1  0  0  0  0
 22 26  1  6  0  0  0
 23 25  1  0  0  0  0
 24 25  1  0  0  0  0
 26 27  1  0  0  0  0
 27 31  1  0  0  0  0
 28 29  2  0  0  0  0
 28 33  1  0  0  0  0
 29 30  1  0  0  0  0
 30 31  2  0  0  0  0
 31 32  1  0  0  0  0
 32 33  2  0  0  0  0
M  END
>  <CHROM.1>
139.49056042,50.73813195,132.54974070,111.45551731,65.66705924,174.94233772
-69.51061362,93.92070759,-4.22262299,-165.02656985,7.94354655,42.23325379
72.50909658,-0.26235756,-0.92196584,2.85838732

>  <Name>
ligand

>  <RI>
0

>  <Rbt.Current_Directory>
/home/itssahil/PROJECTS/Mol_Feturizer/New_Systems/rnas/3SUH

>  <Rbt.Executable>
rbdock ($Id: //depot/dev/client3/rdock/2013.1/src/exe/rbdock.cxx#4 $)

>  <Rbt.Library>
libRbt.so (2013.1, Build901 2013/11/27)

>  <Rbt.Parameter_File>
/export/apps/rDock/src/rDock_2013.1_src/data/scripts/dock_solv.prm

>  <Rbt.Receptor>
prm/pocket_docking_5.prm

>  <SCORE>
-12.4175

>  <SCORE.INTER>
-11.7535

>  <SCORE.INTER.CONST>
1

>  <SCORE.INTER.POLAR>
0

>  <SCORE.INTER.ROT>
10

>  <SCORE.INTER.SOLV>
9.28812

>  <SCORE.INTER.VDW>
-21.1984

>  <SCORE.INTER.norm>
-0.345692

>  <SCORE.INTRA>
-0.663961

>  <SCORE.INTRA.DIHEDRAL>
2.17512

>  <SCORE.INTRA.DIHEDRAL.0>
12.2703

>  <SCORE.INTRA.POLAR>
0

>  <SCORE.INTRA.POLAR.0>
0

>  <SCORE.INTRA.REPUL>
0

>  <SCORE.INTRA.REPUL.0>
0

>  <SCORE.INTRA.SOLV>
0.127378

>  <SCORE.INTRA.SOLV.lig_0>
-64.3214

>  <SCORE.INTRA.VDW>
-1.81521

>  <SCORE.INTRA.VDW.0>
-1.67301

>  <SCORE.INTRA.norm>
-0.0195283

>  <SCORE.RESTR>
0

>  <SCORE.RESTR.CAVITY>
0

>  <SCORE.RESTR.norm>
0

>  <SCORE.SYSTEM>
0

>  <SCORE.SYSTEM.CONST>
0

>  <SCORE.SYSTEM.DIHEDRAL>
0

>  <SCORE.SYSTEM.SOLV>
0

>  <SCORE.SYSTEM.norm>
0

>  <SCORE.heavy>
34

>  <SCORE.norm>
-0.36522

>  <RMSD>
9.815

$$$$
ligand
 OpenBabel11021811483D
libRbt.so/2013.1/901 2013/11/27
 34 36  0  0  0  0  0  0  0  0999 V2000
   10.1538   43.2769   68.7718 N   0  0  0  0  0  0  0  0  0  0  0  0
   11.0906   43.7513   67.7267 C   0  0  1  0  0  0  0  0  0  0  0  0
    8.9454   42.7606   68.5128 C   0  0  0  0  0  0  0  0  0  0  0  0
    8.4765   42.6235   67.3794 O   0  0  0  0  0  0  0  0  0  0  0  0
   10.3490   41.0991   79.2122 N   0  0  0  0  0  0  0  0  0  0  0  0
   12.4746   44.0077   68.3464 C   0  0  0  0  0  0  0  0  0  0  0  0
   12.4061   45.0515   69.4694 C   0  0  0  0  0  0  0  0  0  0  0  0
   11.8668   44.4354   70.7693 C   0  0  0  0  0  0  0  0  0  0  0  0
   10.6686   44.6650   71.0571 O   0  0  0  0  0  0  0  0  0  0  0  0
   12.6642   43.7459   71.4457 O   0  0  0  0  0  0  0  0  0  0  0  0
    8.8550   39.8570   77.9538 N   0  0  0  0  0  0  0  0  0  0  0  0
   10.7404   41.5969   66.7347 O   0  0  0  0  0  0  0  0  0  0  0  0
    9.2616   41.0395   78.4476 C   0  0  0  0  0  0  0  0  0  0  0  0
   11.7945   43.1520   65.5265 O   0  0  0  0  0  0  0  0  0  0  0  0
    8.5526   42.2140   78.1661 N   0  0  0  0  0  0  0  0  0  0  0  0
    7.4224   42.1403   77.3631 C   0  0  0  0  0  0  0  0  0  0  0  0
    7.0480   40.9084   76.8430 C   0  0  0  0  0  0  0  0  0  0  0  0
    6.7896   43.1583   77.0938 O   0  0  0  0  0  0  0  0  0  0  0  0
    4.8441   41.5541   76.3655 C   0  0  0  0  0  0  0  0  0  0  0  0
    5.8859   40.7750   76.0912 N   0  0  0  0  0  0  0  0  0  0  0  0
    4.0623   41.2560   77.2657 O   0  0  0  0  0  0  0  0  0  0  0  0
    5.7552   39.6556   75.1520 C   0  0  2  0  0  0  0  0  0  0  0  0
    6.1277   38.3598   75.8769 C   0  0  0  0  0  0  0  0  0  0  0  0
    7.7653   39.7674   77.1763 C   0  0  0  0  0  0  0  0  0  0  0  0
    7.3604   38.5206   76.6870 N   0  0  0  0  0  0  0  0  0  0  0  0
    6.6676   39.8640   73.9384 C   0  0  0  0  0  0  0  0  0  0  0  0
    6.1814   40.9984   73.1436 N   0  0  0  0  0  0  0  0  0  0  0  0
    8.1701   42.2877   69.7559 C   0  0  0  0  0  0  0  0  0  0  0  0
    7.9764   40.9293   69.9948 C   0  0  0  0  0  0  0  0  0  0  0  0
    7.3231   40.5011   71.1487 C   0  0  0  0  0  0  0  0  0  0  0  0
    6.8167   41.4279   72.0537 C   0  0  0  0  0  0  0  0  0  0  0  0
    7.0015   42.7851   71.8122 C   0  0  0  0  0  0  0  0  0  0  0  0
    7.6862   43.2135   70.6759 C   0  0  0  0  0  0  0  0  0  0  0  0
   11.2168   42.7452   66.5641 C   0  0  0  0  0  0  0  0  0  0  0  0
  1  3  1  0  0  0  0
  2  1  1  1  0  0  0
  2  6  1  0  0  0  0
  2 34  1  0  0  0  0
  3  4  2  0  0  0  0
  3 28  1  0  0  0  0
  5 13  1  0  0  0  0
  6  7  1  0  0  0  0
  7  8  1  0  0  0  0
  8  9  1  0  0  0  0
  8 10  1  0  0  0  0
 11 13  2  0  0  0  0
 11 24  1  0  0  0  0
 12 34  1  0  0  0  0
 13 15  1  0  0  0  0
 14 34  1  0  0  0  0
 15 16  1  0  0  0  0
 16 17  1  0  0  0  0
 16 18  2  0  0  0  0
 17 20  1  0  0  0  0
 17 24  2  0  0  0  0
 19 21  1  0  0  0  0
 19 20  1  0  0  0  0
 20 22  1  0  0  0  0
 22 23  1  0  0  0  0
 22 26  1  6  0  0  0
 23 25  1  0  0  0  0
 24 25  1  0  0  0  0
 26 27  1  0  0  0  0
 27 31  1  0  0  0  0
 28 29  2  0  0  0  0
 28 33  1  0  0  0  0
 29 30  1  0  0  0  0
 30 31  2  0  0  0  0
 31 32  1  0  0  0  0
 32 33  2  0  0  0  0
M  END
>  <CHROM.1>
-168.49918480,-58.96164581,-12.41335584,78.33768025,-101.82441251,-83.26274294
-67.92985690,177.69777280,42.23337832,-109.13131363,8.57593501,41.91508233
72.75160501,1.12881202,-0.48253808,-1.50883841

>  <Name>
ligand

>  <RI>
0

>  <Rbt.Current_Directory>
/home/itssahil/PROJECTS/Mol_Feturizer/New_Systems/rnas/3SUH

>  <Rbt.Executable>
rbdock ($Id: //depot/dev/client3/rdock/2013.1/src/exe/rbdock.cxx#4 $)

>  <Rbt.Library>
libRbt.so (2013.1, Build901 2013/11/27)

>  <Rbt.Parameter_File>
/export/apps/rDock/src/rDock_2013.1_src/data/scripts/dock_solv.prm

>  <Rbt.Receptor>
prm/pocket_docking_4.prm

>  <SCORE>
-13.3265

>  <SCORE.INTER>
-9.79135

>  <SCORE.INTER.CONST>
1

>  <SCORE.INTER.POLAR>
0

>  <SCORE.INTER.ROT>
10

>  <SCORE.INTER.SOLV>
11.5913

>  <SCORE.INTER.VDW>
-20.658

>  <SCORE.INTER.norm>
-0.287981

>  <SCORE.INTRA>
-3.53794

>  <SCORE.INTRA.DIHEDRAL>
-4.5358

>  <SCORE.INTRA.DIHEDRAL.0>
12.2703

>  <SCORE.INTRA.POLAR>
0

>  <SCORE.INTRA.POLAR.0>
0

>  <SCORE.INTRA.REPUL>
0

>  <SCORE.INTRA.REPUL.0>
0

>  <SCORE.INTRA.SOLV>
-0.0926571

>  <SCORE.INTRA.SOLV.lig_0>
-64.3214

>  <SCORE.INTRA.VDW>
-1.22371

>  <SCORE.INTRA.VDW.0>
-1.67301

>  <SCORE.INTRA.norm>
-0.104057

>  <SCORE.RESTR>
0.00282829

>  <SCORE.RESTR.CAVITY>
0.00282829

>  <SCORE.RESTR.norm>
8.31849e-05

>  <SCORE.SYSTEM>
0

>  <SCORE.SYSTEM.CONST>
0

>  <SCORE.SYSTEM.DIHEDRAL>
0

>  <SCORE.SYSTEM.SOLV>
0

>  <SCORE.SYSTEM.norm>
0

>  <SCORE.heavy>
34

>  <SCORE.norm>
-0.391955

>  <RMSD>
9.837

$$$$
ligand
 OpenBabel11021811483D
libRbt.so/2013.1/901 2013/11/27
 34 36  0  0  0  0  0  0  0  0999 V2000
    8.8579   42.8446   69.7922 N   0  0  0  0  0  0  0  0  0  0  0  0
    9.5818   43.3318   68.5950 C   0  0  1  0  0  0  0  0  0  0  0  0
    7.7925   43.4594   70.3223 C   0  0  0  0  0  0  0  0  0  0  0  0
    7.2962   44.4979   69.8766 O   0  0  0  0  0  0  0  0  0  0  0  0
    5.0079   45.9363   76.7360 N   0  0  0  0  0  0  0  0  0  0  0  0
   11.0261   43.6995   68.9744 C   0  0  0  0  0  0  0  0  0  0  0  0
   11.0676   44.8358   70.0052 C   0  0  0  0  0  0  0  0  0  0  0  0
   12.3875   44.8258   70.7912 C   0  0  0  0  0  0  0  0  0  0  0  0
   13.2289   45.7106   70.5079 O   0  0  0  0  0  0  0  0  0  0  0  0
   12.5252   43.9347   71.6605 O   0  0  0  0  0  0  0  0  0  0  0  0
    6.0342   43.8773   76.9923 N   0  0  0  0  0  0  0  0  0  0  0  0
    9.3034   41.1027   67.7575 O   0  0  0  0  0  0  0  0  0  0  0  0
    4.9179   44.6144   76.8583 C   0  0  0  0  0  0  0  0  0  0  0  0
    9.8871   42.7032   66.3131 O   0  0  0  0  0  0  0  0  0  0  0  0
    3.6564   44.0060   76.8456 N   0  0  0  0  0  0  0  0  0  0  0  0
    3.5751   42.6255   76.9690 C   0  0  0  0  0  0  0  0  0  0  0  0
    4.7489   41.8909   77.0734 C   0  0  0  0  0  0  0  0  0  0  0  0
    2.4806   42.0680   76.9504 O   0  0  0  0  0  0  0  0  0  0  0  0
    3.7129   39.9839   77.9637 C   0  0  0  0  0  0  0  0  0  0  0  0
    4.7139   40.5145   77.2678 N   0  0  0  0  0  0  0  0  0  0  0  0
    2.7640   39.4563   77.3878 O   0  0  0  0  0  0  0  0  0  0  0  0
    5.8704   39.6988   76.8815 C   0  0  2  0  0  0  0  0  0  0  0  0
    7.1360   40.3337   77.4633 C   0  0  0  0  0  0  0  0  0  0  0  0
    5.9742   42.5424   77.1127 C   0  0  0  0  0  0  0  0  0  0  0  0
    7.1530   41.8037   77.2625 N   0  0  0  0  0  0  0  0  0  0  0  0
    5.9775   39.6082   75.3554 C   0  0  0  0  0  0  0  0  0  0  0  0
    5.4168   40.8213   74.7477 N   0  0  0  0  0  0  0  0  0  0  0  0
    7.1743   42.7401   71.5348 C   0  0  0  0  0  0  0  0  0  0  0  0
    6.6038   43.4694   72.5752 C   0  0  0  0  0  0  0  0  0  0  0  0
    5.9952   42.8162   73.6451 C   0  0  0  0  0  0  0  0  0  0  0  0
    5.9904   41.4268   73.7084 C   0  0  0  0  0  0  0  0  0  0  0  0
    6.5675   40.6970   72.6747 C   0  0  0  0  0  0  0  0  0  0  0  0
    7.1452   41.3493   71.5863 C   0  0  0  0  0  0  0  0  0  0  0  0
    9.5895   42.2876   67.4595 C   0  0  0  0  0  0  0  0  0  0  0  0
  1  3  1  0  0  0  0
  2  1  1  1  0  0  0
  2  6  1  0  0  0  0
  2 34  1  0  0  0  0
  3  4  2  0  0  0  0
  3 28  1  0  0  0  0
  5 13  1  0  0  0  0
  6  7  1  0  0  0  0
  7  8  1  0  0  0  0
  8  9  1  0  0  0  0
  8 10  1  0  0  0  0
 11 13  2  0  0  0  0
 11 24  1  0  0  0  0
 12 34  1  0  0  0  0
 13 15  1  0  0  0  0
 14 34  1  0  0  0  0
 15 16  1  0  0  0  0
 16 17  1  0  0  0  0
 16 18  2  0  0  0  0
 17 20  1  0  0  0  0
 17 24  2  0  0  0  0
 19 21  1  0  0  0  0
 19 20  1  0  0  0  0
 20 22  1  0  0  0  0
 22 23  1  0  0  0  0
 22 26  1  6  0  0  0
 23 25  1  0  0  0  0
 24 25  1  0  0  0  0
 26 27  1  0  0  0  0
 27 31  1  0  0  0  0
 28 29  2  0  0  0  0
 28 33  1  0  0  0  0
 29 30  1  0  0  0  0
 30 31  2  0  0  0  0
 31 32  1  0  0  0  0
 32 33  2  0  0  0  0
M  END
>  <CHROM.1>
116.70152059,-62.01628680,-16.60924189,157.07612890,105.64504731,100.08496225
29.26067303,138.91596185,-142.04826658,146.13193494,7.14032299,42.51840306
73.41559052,0.60609856,-0.77499671,-2.12058318

>  <Name>
ligand

>  <RI>
0

>  <Rbt.Current_Directory>
/home/itssahil/PROJECTS/Mol_Feturizer/New_Systems/rnas/3SUH

>  <Rbt.Executable>
rbdock ($Id: //depot/dev/client3/rdock/2013.1/src/exe/rbdock.cxx#4 $)

>  <Rbt.Library>
libRbt.so (2013.1, Build901 2013/11/27)

>  <Rbt.Parameter_File>
/export/apps/rDock/src/rDock_2013.1_src/data/scripts/dock_solv.prm

>  <Rbt.Receptor>
prm/pocket_docking_2.prm

>  <SCORE>
0.554841

>  <SCORE.INTER>
-2.31085

>  <SCORE.INTER.CONST>
1

>  <SCORE.INTER.POLAR>
0

>  <SCORE.INTER.ROT>
10

>  <SCORE.INTER.SOLV>
7.75784

>  <SCORE.INTER.VDW>
-14.3932

>  <SCORE.INTER.norm>
-0.0679661

>  <SCORE.INTRA>
-0.177329

>  <SCORE.INTRA.DIHEDRAL>
1.15618

>  <SCORE.INTRA.DIHEDRAL.0>
12.2703

>  <SCORE.INTRA.POLAR>
0

>  <SCORE.INTRA.POLAR.0>
0

>  <SCORE.INTRA.REPUL>
0

>  <SCORE.INTRA.REPUL.0>
0

>  <SCORE.INTRA.SOLV>
2.37255

>  <SCORE.INTRA.SOLV.lig_0>
-64.3214

>  <SCORE.INTRA.VDW>
-1.9417

>  <SCORE.INTRA.VDW.0>
-1.67301

>  <SCORE.INTRA.norm>
-0.00521555

>  <SCORE.RESTR>
3.04302

>  <SCORE.RESTR.CAVITY>
3.04302

>  <SCORE.RESTR.norm>
0.0895005

>  <SCORE.SYSTEM>
0

>  <SCORE.SYSTEM.CONST>
0

>  <SCORE.SYSTEM.DIHEDRAL>
0

>  <SCORE.SYSTEM.SOLV>
0

>  <SCORE.SYSTEM.norm>
0

>  <SCORE.heavy>
34

>  <SCORE.norm>
0.0163188

>  <RMSD>
9.842

$$$$
ligand
 OpenBabel11021811483D
libRbt.so/2013.1/901 2013/11/27
 34 36  0  0  0  0  0  0  0  0999 V2000
    7.9591   40.5830   70.3075 N   0  0  0  0  0  0  0  0  0  0  0  0
    8.4793   40.6380   68.9214 C   0  0  1  0  0  0  0  0  0  0  0  0
    8.0710   39.5128   71.1051 C   0  0  0  0  0  0  0  0  0  0  0  0
    8.6161   38.4552   70.7770 O   0  0  0  0  0  0  0  0  0  0  0  0
    5.5545   45.0576   81.4578 N   0  0  0  0  0  0  0  0  0  0  0  0
    7.9597   41.9045   68.2207 C   0  0  0  0  0  0  0  0  0  0  0  0
    8.4522   43.1791   68.9195 C   0  0  0  0  0  0  0  0  0  0  0  0
    7.8342   43.3205   70.3189 C   0  0  0  0  0  0  0  0  0  0  0  0
    8.5685   43.0519   71.2985 O   0  0  0  0  0  0  0  0  0  0  0  0
    6.6410   43.6968   70.3784 O   0  0  0  0  0  0  0  0  0  0  0  0
    4.4488   44.2554   79.5890 N   0  0  0  0  0  0  0  0  0  0  0  0
   10.6273   40.3984   69.9589 O   0  0  0  0  0  0  0  0  0  0  0  0
    5.5928   44.5770   80.2176 C   0  0  0  0  0  0  0  0  0  0  0  0
   10.5597   40.8167   67.7659 O   0  0  0  0  0  0  0  0  0  0  0  0
    6.8295   44.4116   79.5812 N   0  0  0  0  0  0  0  0  0  0  0  0
    6.8575   43.9046   78.2890 C   0  0  0  0  0  0  0  0  0  0  0  0
    5.6600   43.5525   77.6803 C   0  0  0  0  0  0  0  0  0  0  0  0
    7.9305   43.7410   77.7137 O   0  0  0  0  0  0  0  0  0  0  0  0
    6.5279   43.5789   75.5012 C   0  0  0  0  0  0  0  0  0  0  0  0
    5.6335   43.1058   76.3638 N   0  0  0  0  0  0  0  0  0  0  0  0
    6.2677   44.5602   74.8085 O   0  0  0  0  0  0  0  0  0  0  0  0
    4.5105   42.2834   75.9003 C   0  0  2  0  0  0  0  0  0  0  0  0
    3.2016   42.9651   76.3069 C   0  0  0  0  0  0  0  0  0  0  0  0
    4.4573   43.7644   78.3405 C   0  0  0  0  0  0  0  0  0  0  0  0
    3.2492   43.4501   77.7083 N   0  0  0  0  0  0  0  0  0  0  0  0
    4.5868   40.8789   76.5088 C   0  0  0  0  0  0  0  0  0  0  0  0
    5.9276   40.3202   76.2957 N   0  0  0  0  0  0  0  0  0  0  0  0
    7.5009   39.7065   72.5219 C   0  0  0  0  0  0  0  0  0  0  0  0
    8.1557   40.5202   73.4432 C   0  0  0  0  0  0  0  0  0  0  0  0
    7.6094   40.7389   74.7063 C   0  0  0  0  0  0  0  0  0  0  0  0
    6.4257   40.1103   75.0776 C   0  0  0  0  0  0  0  0  0  0  0  0
    5.7750   39.2902   74.1620 C   0  0  0  0  0  0  0  0  0  0  0  0
    6.3023   39.0991   72.8856 C   0  0  0  0  0  0  0  0  0  0  0  0
   10.0213   40.6139   68.8815 C   0  0  0  0  0  0  0  0  0  0  0  0
  1  3  1  0  0  0  0
  2  1  1  1  0  0  0
  2  6  1  0  0  0  0
  2 34  1  0  0  0  0
  3  4  2  0  0  0  0
  3 28  1  0  0  0  0
  5 13  1  0  0  0  0
  6  7  1  0  0  0  0
  7  8  1  0  0  0  0
  8  9  1  0  0  0  0
  8 10  1  0  0  0  0
 11 13  2  0  0  0  0
 11 24  1  0  0  0  0
 12 34  1  0  0  0  0
 13 15  1  0  0  0  0
 14 34  1  0  0  0  0
 15 16  1  0  0  0  0
 16 17  1  0  0  0  0
 16 18  2  0  0  0  0
 17 20  1  0  0  0  0
 17 24  2  0  0  0  0
 19 21  1  0  0  0  0
 19 20  1  0  0  0  0
 20 22  1  0  0  0  0
 22 23  1  0  0  0  0
 22 26  1  1  0  0  0
 23 25  1  0  0  0  0
 24 25  1  0  0  0  0
 26 27  1  0  0  0  0
 27 31  1  0  0  0  0
 28 29  2  0  0  0  0
 28 33  1  0  0  0  0
 29 30  1  0  0  0  0
 30 31  2  0  0  0  0
 31 32  1  0  0  0  0
 32 33  2  0  0  0  0
M  END
>  <CHROM.1>
169.84536483,62.28198379,8.04053185,-67.14940005,103.99671706,-92.59208669
-50.77184399,-61.51654140,121.22985528,-71.73972540,6.89146048,42.09886319
74.09547223,0.59168040,-1.13234149,-2.80504956

>  <Name>
ligand

>  <RI>
0

>  <Rbt.Current_Directory>
/home/itssahil/PROJECTS/Mol_Feturizer/New_Systems/rnas/3SUH

>  <Rbt.Executable>
rbdock ($Id: //depot/dev/client3/rdock/2013.1/src/exe/rbdock.cxx#4 $)

>  <Rbt.Library>
libRbt.so (2013.1, Build901 2013/11/27)

>  <Rbt.Parameter_File>
/export/apps/rDock/src/rDock_2013.1_src/data/scripts/dock_solv.prm

>  <Rbt.Receptor>
prm/pocket_docking_5.prm

>  <SCORE>
-8.77614

>  <SCORE.INTER>
-3.55734

>  <SCORE.INTER.CONST>
1

>  <SCORE.INTER.POLAR>
0

>  <SCORE.INTER.ROT>
10

>  <SCORE.INTER.SOLV>
8.23474

>  <SCORE.INTER.VDW>
-15.3831

>  <SCORE.INTER.norm>
-0.104628

>  <SCORE.INTRA>
-5.2188

>  <SCORE.INTRA.DIHEDRAL>
-5.55473

>  <SCORE.INTRA.DIHEDRAL.0>
12.2703

>  <SCORE.INTRA.POLAR>
0

>  <SCORE.INTRA.POLAR.0>
0

>  <SCORE.INTRA.REPUL>
0

>  <SCORE.INTRA.REPUL.0>
0

>  <SCORE.INTRA.SOLV>
0.40098

>  <SCORE.INTRA.SOLV.lig_0>
-64.3214

>  <SCORE.INTRA.VDW>
-2.64192

>  <SCORE.INTRA.VDW.0>
-1.67301

>  <SCORE.INTRA.norm>
-0.153494

>  <SCORE.RESTR>
0

>  <SCORE.RESTR.CAVITY>
0

>  <SCORE.RESTR.norm>
0

>  <SCORE.SYSTEM>
0

>  <SCORE.SYSTEM.CONST>
0

>  <SCORE.SYSTEM.DIHEDRAL>
0

>  <SCORE.SYSTEM.SOLV>
0

>  <SCORE.SYSTEM.norm>
0

>  <SCORE.heavy>
34

>  <SCORE.norm>
-0.258122

>  <RMSD>
9.844

$$$$
ligand
 OpenBabel11021811483D
libRbt.so/2013.1/901 2013/11/27
 34 36  0  0  0  0  0  0  0  0999 V2000
    9.8561   43.2206   69.3488 N   0  0  0  0  0  0  0  0  0  0  0  0
   10.6842   43.8300   68.2821 C   0  0  1  0  0  0  0  0  0  0  0  0
    8.5547   43.4834   69.5258 C   0  0  0  0  0  0  0  0  0  0  0  0
    7.9010   44.2607   68.8247 O   0  0  0  0  0  0  0  0  0  0  0  0
    2.1860   44.0062   75.9590 N   0  0  0  0  0  0  0  0  0  0  0  0
   12.1721   43.7313   68.6583 C   0  0  0  0  0  0  0  0  0  0  0  0
   12.4908   44.5444   69.9204 C   0  0  0  0  0  0  0  0  0  0  0  0
   11.9247   43.8657   71.1770 C   0  0  0  0  0  0  0  0  0  0  0  0
   12.5576   42.8839   71.6314 O   0  0  0  0  0  0  0  0  0  0  0  0
   10.8723   44.3456   71.6575 O   0  0  0  0  0  0  0  0  0  0  0  0
    4.3324   43.1501   75.8225 N   0  0  0  0  0  0  0  0  0  0  0  0
   11.2833   43.3820   66.0044 O   0  0  0  0  0  0  0  0  0  0  0  0
    3.0320   42.9928   76.1253 C   0  0  0  0  0  0  0  0  0  0  0  0
    9.4220   42.4431   66.8060 O   0  0  0  0  0  0  0  0  0  0  0  0
    2.5546   41.7706   76.6153 N   0  0  0  0  0  0  0  0  0  0  0  0
    3.4456   40.7187   76.7801 C   0  0  0  0  0  0  0  0  0  0  0  0
    4.7758   40.9047   76.4276 C   0  0  0  0  0  0  0  0  0  0  0  0
    3.0488   39.6341   77.1987 O   0  0  0  0  0  0  0  0  0  0  0  0
    5.5704   39.0865   77.6786 C   0  0  0  0  0  0  0  0  0  0  0  0
    5.7165   39.9029   76.6394 N   0  0  0  0  0  0  0  0  0  0  0  0
    5.8696   37.8982   77.5849 O   0  0  0  0  0  0  0  0  0  0  0  0
    6.9485   39.8860   75.8432 C   0  0  2  0  0  0  0  0  0  0  0  0
    7.5734   41.2831   75.8749 C   0  0  0  0  0  0  0  0  0  0  0  0
    5.2072   42.1444   75.9755 C   0  0  0  0  0  0  0  0  0  0  0  0
    6.5566   42.3426   75.6629 N   0  0  0  0  0  0  0  0  0  0  0  0
    6.6481   39.4736   74.3981 C   0  0  0  0  0  0  0  0  0  0  0  0
    6.0091   40.5888   73.6886 N   0  0  0  0  0  0  0  0  0  0  0  0
    7.8901   42.6922   70.6668 C   0  0  0  0  0  0  0  0  0  0  0  0
    7.3446   43.3550   71.7636 C   0  0  0  0  0  0  0  0  0  0  0  0
    6.6942   42.6416   72.7684 C   0  0  0  0  0  0  0  0  0  0  0  0
    6.6219   41.2539   72.7098 C   0  0  0  0  0  0  0  0  0  0  0  0
    7.1739   40.5896   71.6197 C   0  0  0  0  0  0  0  0  0  0  0  0
    7.7935   41.3053   70.5962 C   0  0  0  0  0  0  0  0  0  0  0  0
   10.4459   43.1613   66.9125 C   0  0  0  0  0  0  0  0  0  0  0  0
  1  3  1  0  0  0  0
  2  1  1  1  0  0  0
  2  6  1  0  0  0  0
  2 34  1  0  0  0  0
  3  4  2  0  0  0  0
  3 28  1  0  0  0  0
  5 13  1  0  0  0  0
  6  7  1  0  0  0  0
  7  8  1  0  0  0  0
  8  9  1  0  0  0  0
  8 10  1  0  0  0  0
 11 13  2  0  0  0  0
 11 24  1  0  0  0  0
 12 34  1  0  0  0  0
 13 15  1  0  0  0  0
 14 34  1  0  0  0  0
 15 16  1  0  0  0  0
 16 17  1  0  0  0  0
 16 18  2  0  0  0  0
 17 20  1  0  0  0  0
 17 24  2  0  0  0  0
 19 21  1  0  0  0  0
 19 20  1  0  0  0  0
 20 22  1  0  0  0  0
 22 23  1  0  0  0  0
 22 26  1  6  0  0  0
 23 25  1  0  0  0  0
 24 25  1  0  0  0  0
 26 27  1  0  0  0  0
 27 31  1  0  0  0  0
 28 29  2  0  0  0  0
 28 33  1  0  0  0  0
 29 30  1  0  0  0  0
 30 31  2  0  0  0  0
 31 32  1  0  0  0  0
 32 33  2  0  0  0  0
M  END
>  <CHROM.1>
159.49436284,-64.07509174,-164.77165406,72.45051615,77.65511194,143.19609366
74.89206045,111.23347018,-127.92507317,117.88931604,7.44318806,42.07476432
72.83409581,0.89662294,0.28610089,-1.01569505

>  <Name>
ligand

>  <RI>
0

>  <Rbt.Current_Directory>
/home/itssahil/PROJECTS/Mol_Feturizer/New_Systems/rnas/3SUH

>  <Rbt.Executable>
rbdock ($Id: //depot/dev/client3/rdock/2013.1/src/exe/rbdock.cxx#4 $)

>  <Rbt.Library>
libRbt.so (2013.1, Build901 2013/11/27)

>  <Rbt.Parameter_File>
/export/apps/rDock/src/rDock_2013.1_src/data/scripts/dock_solv.prm

>  <Rbt.Receptor>
prm/pocket_docking_3.prm

>  <SCORE>
-10.468

>  <SCORE.INTER>
-8.50347

>  <SCORE.INTER.CONST>
1

>  <SCORE.INTER.POLAR>
0

>  <SCORE.INTER.ROT>
10

>  <SCORE.INTER.SOLV>
9.78298

>  <SCORE.INTER.VDW>
-19.1966

>  <SCORE.INTER.norm>
-0.250102

>  <SCORE.INTRA>
-1.96448

>  <SCORE.INTRA.DIHEDRAL>
-3.16603

>  <SCORE.INTRA.DIHEDRAL.0>
12.2703

>  <SCORE.INTRA.POLAR>
0

>  <SCORE.INTRA.POLAR.0>
0

>  <SCORE.INTRA.REPUL>
0

>  <SCORE.INTRA.REPUL.0>
0

>  <SCORE.INTRA.SOLV>
2.82389

>  <SCORE.INTRA.SOLV.lig_0>
-64.3214

>  <SCORE.INTRA.VDW>
-1.79341

>  <SCORE.INTRA.VDW.0>
-1.67301

>  <SCORE.INTRA.norm>
-0.0577787

>  <SCORE.RESTR>
0

>  <SCORE.RESTR.CAVITY>
0

>  <SCORE.RESTR.norm>
0

>  <SCORE.SYSTEM>
0

>  <SCORE.SYSTEM.CONST>
0

>  <SCORE.SYSTEM.DIHEDRAL>
0

>  <SCORE.SYSTEM.SOLV>
0

>  <SCORE.SYSTEM.norm>
0

>  <SCORE.heavy>
34

>  <SCORE.norm>
-0.307881

>  <RMSD>
9.856

$$$$
ligand
 OpenBabel11021811483D
libRbt.so/2013.1/901 2013/11/27
 34 36  0  0  0  0  0  0  0  0999 V2000
    8.7121   43.0263   70.7343 N   0  0  0  0  0  0  0  0  0  0  0  0
    9.5955   42.9188   69.5498 C   0  0  1  0  0  0  0  0  0  0  0  0
    7.4798   43.5502   70.7018 C   0  0  0  0  0  0  0  0  0  0  0  0
    6.9435   44.0025   69.6864 O   0  0  0  0  0  0  0  0  0  0  0  0
    4.4999   37.9622   76.4442 N   0  0  0  0  0  0  0  0  0  0  0  0
    8.8659   42.1679   68.4233 C   0  0  0  0  0  0  0  0  0  0  0  0
    8.9012   40.6492   68.6416 C   0  0  0  0  0  0  0  0  0  0  0  0
    8.3197   40.2705   70.0122 C   0  0  0  0  0  0  0  0  0  0  0  0
    7.1955   40.7404   70.3064 O   0  0  0  0  0  0  0  0  0  0  0  0
    9.0113   39.5169   70.7351 O   0  0  0  0  0  0  0  0  0  0  0  0
    3.6681   40.0902   76.8161 N   0  0  0  0  0  0  0  0  0  0  0  0
   11.1759   44.3737   68.4852 O   0  0  0  0  0  0  0  0  0  0  0  0
    4.6423   39.1765   76.9693 C   0  0  0  0  0  0  0  0  0  0  0  0
    9.2677   45.2614   69.2334 O   0  0  0  0  0  0  0  0  0  0  0  0
    5.8101   39.4879   77.6771 N   0  0  0  0  0  0  0  0  0  0  0  0
    5.9498   40.7597   78.2163 C   0  0  0  0  0  0  0  0  0  0  0  0
    4.9389   41.6897   78.0123 C   0  0  0  0  0  0  0  0  0  0  0  0
    6.9692   41.0598   78.8325 O   0  0  0  0  0  0  0  0  0  0  0  0
    5.6016   43.0943   79.7702 C   0  0  0  0  0  0  0  0  0  0  0  0
    5.0041   42.9524   78.5910 N   0  0  0  0  0  0  0  0  0  0  0  0
    5.0243   42.7684   80.8050 O   0  0  0  0  0  0  0  0  0  0  0  0
    4.2476   44.0608   77.9983 C   0  0  2  0  0  0  0  0  0  0  0  0
    2.8050   43.6034   77.7677 C   0  0  0  0  0  0  0  0  0  0  0  0
    3.7864   41.3237   77.3303 C   0  0  0  0  0  0  0  0  0  0  0  0
    2.7500   42.2490   77.1642 N   0  0  0  0  0  0  0  0  0  0  0  0
    4.8827   44.4961   76.6733 C   0  0  0  0  0  0  0  0  0  0  0  0
    4.8080   43.3957   75.7043 N   0  0  0  0  0  0  0  0  0  0  0  0
    6.7293   43.5081   72.0452 C   0  0  0  0  0  0  0  0  0  0  0  0
    6.5743   42.3064   72.7320 C   0  0  0  0  0  0  0  0  0  0  0  0
    5.9436   42.2789   73.9742 C   0  0  0  0  0  0  0  0  0  0  0  0
    5.4212   43.4456   74.5223 C   0  0  0  0  0  0  0  0  0  0  0  0
    5.5673   44.6451   73.8336 C   0  0  0  0  0  0  0  0  0  0  0  0
    6.2295   44.6794   72.6073 C   0  0  0  0  0  0  0  0  0  0  0  0
   10.0546   44.3020   69.0440 C   0  0  0  0  0  0  0  0  0  0  0  0
  1  3  1  0  0  0  0
  2  1  1  1  0  0  0
  2  6  1  0  0  0  0
  2 34  1  0  0  0  0
  3  4  2  0  0  0  0
  3 28  1  0  0  0  0
  5 13  1  0  0  0  0
  6  7  1  0  0  0  0
  7  8  1  0  0  0  0
  8  9  1  0  0  0  0
  8 10  1  0  0  0  0
 11 13  2  0  0  0  0
 11 24  1  0  0  0  0
 12 34  1  0  0  0  0
 13 15  1  0  0  0  0
 14 34  1  0  0  0  0
 15 16  1  0  0  0  0
 16 17  1  0  0  0  0
 16 18  2  0  0  0  0
 17 20  1  0  0  0  0
 17 24  2  0  0  0  0
 19 21  1  0  0  0  0
 19 20  1  0  0  0  0
 20 22  1  0  0  0  0
 22 23  1  0  0  0  0
 22 26  1  6  0  0  0
 23 25  1  0  0  0  0
 24 25  1  0  0  0  0
 26 27  1  0  0  0  0
 27 31  1  0  0  0  0
 28 29  2  0  0  0  0
 28 33  1  0  0  0  0
 29 30  1  0  0  0  0
 30 31  2  0  0  0  0
 31 32  1  0  0  0  0
 32 33  2  0  0  0  0
M  END
>  <CHROM.1>
-54.67153856,-79.94921817,149.92958484,55.82243610,50.85713685,-77.75960567
63.66296324,-172.06643072,145.56730336,-54.12658947,6.44419003,42.34210797
74.08930717,0.17540770,1.11209748,-0.08189310

>  <Name>
ligand

>  <RI>
0

>  <Rbt.Current_Directory>
/home/itssahil/PROJECTS/Mol_Feturizer/New_Systems/rnas/3SUH

>  <Rbt.Executable>
rbdock ($Id: //depot/dev/client3/rdock/2013.1/src/exe/rbdock.cxx#4 $)

>  <Rbt.Library>
libRbt.so (2013.1, Build901 2013/11/27)

>  <Rbt.Parameter_File>
/export/apps/rDock/src/rDock_2013.1_src/data/scripts/dock_solv.prm

>  <Rbt.Receptor>
prm/pocket_docking_3.prm

>  <SCORE>
-6.26799

>  <SCORE.INTER>
-4.01316

>  <SCORE.INTER.CONST>
1

>  <SCORE.INTER.POLAR>
0

>  <SCORE.INTER.ROT>
10

>  <SCORE.INTER.SOLV>
6.819

>  <SCORE.INTER.VDW>
-15.2151

>  <SCORE.INTER.norm>
-0.118034

>  <SCORE.INTRA>
-2.25483

>  <SCORE.INTRA.DIHEDRAL>
-4.42484

>  <SCORE.INTRA.DIHEDRAL.0>
12.2703

>  <SCORE.INTRA.POLAR>
0

>  <SCORE.INTRA.POLAR.0>
0

>  <SCORE.INTRA.REPUL>
0

>  <SCORE.INTRA.REPUL.0>
0

>  <SCORE.INTRA.SOLV>
2.87125

>  <SCORE.INTRA.SOLV.lig_0>
-64.3214

>  <SCORE.INTRA.VDW>
-1.47804

>  <SCORE.INTRA.VDW.0>
-1.67301

>  <SCORE.INTRA.norm>
-0.0663185

>  <SCORE.RESTR>
0

>  <SCORE.RESTR.CAVITY>
0

>  <SCORE.RESTR.norm>
0

>  <SCORE.SYSTEM>
0

>  <SCORE.SYSTEM.CONST>
0

>  <SCORE.SYSTEM.DIHEDRAL>
0

>  <SCORE.SYSTEM.SOLV>
0

>  <SCORE.SYSTEM.norm>
0

>  <SCORE.heavy>
34

>  <SCORE.norm>
-0.184353

>  <RMSD>
9.905

$$$$
ligand
 OpenBabel11021811483D
libRbt.so/2013.1/901 2013/11/27
 34 36  0  0  0  0  0  0  0  0999 V2000
    9.4643   42.8381   69.0111 N   0  0  0  0  0  0  0  0  0  0  0  0
   10.2275   43.3466   67.8476 C   0  0  1  0  0  0  0  0  0  0  0  0
    8.3203   43.3803   69.4484 C   0  0  0  0  0  0  0  0  0  0  0  0
    7.7754   44.3616   68.9353 O   0  0  0  0  0  0  0  0  0  0  0  0
    4.4339   44.7969   77.1459 N   0  0  0  0  0  0  0  0  0  0  0  0
   11.3863   44.2336   68.3330 C   0  0  0  0  0  0  0  0  0  0  0  0
   12.3201   43.4726   69.2840 C   0  0  0  0  0  0  0  0  0  0  0  0
   11.6758   43.2876   70.6663 C   0  0  0  0  0  0  0  0  0  0  0  0
   11.3895   42.1173   71.0121 O   0  0  0  0  0  0  0  0  0  0  0  0
   11.4860   44.3208   71.3483 O   0  0  0  0  0  0  0  0  0  0  0  0
    5.6806   42.8876   76.7479 N   0  0  0  0  0  0  0  0  0  0  0  0
   11.4833   42.5140   65.9828 O   0  0  0  0  0  0  0  0  0  0  0  0
    4.4885   43.4912   76.8961 C   0  0  0  0  0  0  0  0  0  0  0  0
   10.4716   41.0333   67.3143 O   0  0  0  0  0  0  0  0  0  0  0  0
    3.2986   42.7601   76.7900 N   0  0  0  0  0  0  0  0  0  0  0  0
    3.3677   41.3992   76.5242 C   0  0  0  0  0  0  0  0  0  0  0  0
    4.6138   40.8130   76.3449 C   0  0  0  0  0  0  0  0  0  0  0  0
    2.3376   40.7386   76.4166 O   0  0  0  0  0  0  0  0  0  0  0  0
    3.8614   38.6237   76.7236 C   0  0  0  0  0  0  0  0  0  0  0  0
    4.7351   39.4423   76.1453 N   0  0  0  0  0  0  0  0  0  0  0  0
    3.9715   38.3336   77.9127 O   0  0  0  0  0  0  0  0  0  0  0  0
    5.9264   38.9105   75.4743 C   0  0  2  0  0  0  0  0  0  0  0  0
    7.1707   39.5121   76.1325 C   0  0  0  0  0  0  0  0  0  0  0  0
    5.7660   41.5736   76.4907 C   0  0  0  0  0  0  0  0  0  0  0  0
    7.0217   40.9717   76.3535 N   0  0  0  0  0  0  0  0  0  0  0  0
    5.8995   39.2538   73.9810 C   0  0  0  0  0  0  0  0  0  0  0  0
    5.8615   40.7113   73.8095 N   0  0  0  0  0  0  0  0  0  0  0  0
    7.6794   42.6495   70.6422 C   0  0  0  0  0  0  0  0  0  0  0  0
    7.2144   43.3648   71.7431 C   0  0  0  0  0  0  0  0  0  0  0  0
    6.5845   42.7074   72.7979 C   0  0  0  0  0  0  0  0  0  0  0  0
    6.4532   41.3228   72.7839 C   0  0  0  0  0  0  0  0  0  0  0  0
    6.9250   40.6061   71.6894 C   0  0  0  0  0  0  0  0  0  0  0  0
    7.5234   41.2665   70.6174 C   0  0  0  0  0  0  0  0  0  0  0  0
   10.7771   42.2017   66.9718 C   0  0  0  0  0  0  0  0  0  0  0  0
  1  3  1  0  0  0  0
  2  1  1  1  0  0  0
  2  6  1  0  0  0  0
  2 34  1  0  0  0  0
  3  4  2  0  0  0  0
  3 28  1  0  0  0  0
  5 13  1  0  0  0  0
  6  7  1  0  0  0  0
  7  8  1  0  0  0  0
  8  9  1  0  0  0  0
  8 10  1  0  0  0  0
 11 13  2  0  0  0  0
 11 24  1  0  0  0  0
 12 34  1  0  0  0  0
 13 15  1  0  0  0  0
 14 34  1  0  0  0  0
 15 16  1  0  0  0  0
 16 17  1  0  0  0  0
 16 18  2  0  0  0  0
 17 20  1  0  0  0  0
 17 24  2  0  0  0  0
 19 21  1  0  0  0  0
 19 20  1  0  0  0  0
 20 22  1  0  0  0  0
 22 23  1  0  0  0  0
 22 26  1  6  0  0  0
 23 25  1  0  0  0  0
 24 25  1  0  0  0  0
 26 27  1  0  0  0  0
 27 31  1  0  0  0  0
 28 29  2  0  0  0  0
 28 33  1  0  0  0  0
 29 30  1  0  0  0  0
 30 31  2  0  0  0  0
 31 32  1  0  0  0  0
 32 33  2  0  0  0  0
M  END
>  <CHROM.1>
98.72542958,57.67368038,-177.42933703,-74.28732302,113.42035590,-78.85115425
59.67220614,146.66421771,-168.79880917,133.55151178,7.32725973,41.84801052
72.80473710,-0.07880273,-0.93237514,-2.97209395

>  <Name>
ligand

>  <RI>
0

>  <Rbt.Current_Directory>
/home/itssahil/PROJECTS/Mol_Feturizer/New_Systems/rnas/3SUH

>  <Rbt.Executable>
rbdock ($Id: //depot/dev/client3/rdock/2013.1/src/exe/rbdock.cxx#4 $)

>  <Rbt.Library>
libRbt.so (2013.1, Build901 2013/11/27)

>  <Rbt.Parameter_File>
/export/apps/rDock/src/rDock_2013.1_src/data/scripts/dock_solv.prm

>  <Rbt.Receptor>
prm/pocket_docking_3.prm

>  <SCORE>
-8.57299

>  <SCORE.INTER>
-6.57643

>  <SCORE.INTER.CONST>
1

>  <SCORE.INTER.POLAR>
0

>  <SCORE.INTER.ROT>
10

>  <SCORE.INTER.SOLV>
11.3835

>  <SCORE.INTER.VDW>
-18.4454

>  <SCORE.INTER.norm>
-0.193424

>  <SCORE.INTRA>
-2.17324

>  <SCORE.INTRA.DIHEDRAL>
-3.76733

>  <SCORE.INTRA.DIHEDRAL.0>
12.2703

>  <SCORE.INTRA.POLAR>
0

>  <SCORE.INTRA.POLAR.0>
0

>  <SCORE.INTRA.REPUL>
0

>  <SCORE.INTRA.REPUL.0>
0

>  <SCORE.INTRA.SOLV>
2.34996

>  <SCORE.INTRA.SOLV.lig_0>
-64.3214

>  <SCORE.INTRA.VDW>
-1.46456

>  <SCORE.INTRA.VDW.0>
-1.67301

>  <SCORE.INTRA.norm>
-0.063919

>  <SCORE.RESTR>
0.176679

>  <SCORE.RESTR.CAVITY>
0.176679

>  <SCORE.RESTR.norm>
0.00519644

>  <SCORE.SYSTEM>
0

>  <SCORE.SYSTEM.CONST>
0

>  <SCORE.SYSTEM.DIHEDRAL>
0

>  <SCORE.SYSTEM.SOLV>
0

>  <SCORE.SYSTEM.norm>
0

>  <SCORE.heavy>
34

>  <SCORE.norm>
-0.252147

>  <RMSD>
9.907

$$$$
ligand
 OpenBabel11021811483D
libRbt.so/2013.1/901 2013/11/27
 34 36  0  0  0  0  0  0  0  0999 V2000
    8.8998   42.1033   70.2694 N   0  0  0  0  0  0  0  0  0  0  0  0
    9.7423   42.0831   69.0510 C   0  0  1  0  0  0  0  0  0  0  0  0
    7.8286   42.8925   70.4235 C   0  0  0  0  0  0  0  0  0  0  0  0
    7.4247   43.6901   69.5727 O   0  0  0  0  0  0  0  0  0  0  0  0
   10.5525   37.8799   78.9431 N   0  0  0  0  0  0  0  0  0  0  0  0
   10.6480   40.8402   69.0655 C   0  0  0  0  0  0  0  0  0  0  0  0
   11.7663   40.9683   70.1088 C   0  0  0  0  0  0  0  0  0  0  0  0
   12.5977   39.6792   70.1942 C   0  0  0  0  0  0  0  0  0  0  0  0
   12.3750   38.9180   71.1648 O   0  0  0  0  0  0  0  0  0  0  0  0
   13.4363   39.4819   69.2850 O   0  0  0  0  0  0  0  0  0  0  0  0
    8.5758   38.3484   77.8334 N   0  0  0  0  0  0  0  0  0  0  0  0
    9.3640   42.6962   66.7643 O   0  0  0  0  0  0  0  0  0  0  0  0
    9.3915   38.5274   78.8870 C   0  0  0  0  0  0  0  0  0  0  0  0
    7.7882   41.5064   67.8083 O   0  0  0  0  0  0  0  0  0  0  0  0
    9.0333   39.3905   79.9302 N   0  0  0  0  0  0  0  0  0  0  0  0
    7.8217   40.0646   79.8585 C   0  0  0  0  0  0  0  0  0  0  0  0
    7.0173   39.8818   78.7414 C   0  0  0  0  0  0  0  0  0  0  0  0
    7.4902   40.8347   80.7563 O   0  0  0  0  0  0  0  0  0  0  0  0
    5.0632   40.6723   79.7703 C   0  0  0  0  0  0  0  0  0  0  0  0
    5.7658   40.4819   78.6577 N   0  0  0  0  0  0  0  0  0  0  0  0
    4.4299   41.7121   79.9376 O   0  0  0  0  0  0  0  0  0  0  0  0
    5.1586   40.7107   77.3420 C   0  0  2  0  0  0  0  0  0  0  0  0
    5.2334   39.4127   76.5339 C   0  0  0  0  0  0  0  0  0  0  0  0
    7.4015   38.9916   77.7477 C   0  0  0  0  0  0  0  0  0  0  0  0
    6.5687   38.7753   76.6442 N   0  0  0  0  0  0  0  0  0  0  0  0
    5.8885   41.8372   76.6026 C   0  0  0  0  0  0  0  0  0  0  0  0
    5.1562   42.1796   75.3771 N   0  0  0  0  0  0  0  0  0  0  0  0
    7.0780   42.7023   71.7540 C   0  0  0  0  0  0  0  0  0  0  0  0
    6.8562   41.4259   72.2653 C   0  0  0  0  0  0  0  0  0  0  0  0
    6.2259   41.2578   73.4967 C   0  0  0  0  0  0  0  0  0  0  0  0
    5.7704   42.3623   74.2087 C   0  0  0  0  0  0  0  0  0  0  0  0
    5.9831   43.6373   73.6953 C   0  0  0  0  0  0  0  0  0  0  0  0
    6.6453   43.8081   72.4804 C   0  0  0  0  0  0  0  0  0  0  0  0
    8.8948   42.0971   67.7620 C   0  0  0  0  0  0  0  0  0  0  0  0
  1  3  1  0  0  0  0
  2  1  1  1  0  0  0
  2  6  1  0  0  0  0
  2 34  1  0  0  0  0
  3  4  2  0  0  0  0
  3 28  1  0  0  0  0
  5 13  1  0  0  0  0
  6  7  1  0  0  0  0
  7  8  1  0  0  0  0
  8  9  1  0  0  0  0
  8 10  1  0  0  0  0
 11 13  2  0  0  0  0
 11 24  1  0  0  0  0
 12 34  1  0  0  0  0
 13 15  1  0  0  0  0
 14 34  1  0  0  0  0
 15 16  1  0  0  0  0
 16 17  1  0  0  0  0
 16 18  2  0  0  0  0
 17 20  1  0  0  0  0
 17 24  2  0  0  0  0
 19 21  1  0  0  0  0
 19 20  1  0  0  0  0
 20 22  1  0  0  0  0
 22 23  1  0  0  0  0
 22 26  1  6  0  0  0
 23 25  1  0  0  0  0
 24 25  1  0  0  0  0
 26 27  1  0  0  0  0
 27 31  1  0  0  0  0
 28 29  2  0  0  0  0
 28 33  1  0  0  0  0
 29 30  1  0  0  0  0
 30 31  2  0  0  0  0
 31 32  1  0  0  0  0
 32 33  2  0  0  0  0
M  END
>  <CHROM.1>
-165.84251287,-72.00310386,146.66916913,175.50710443,-102.60849154,139.66580103
-172.07523357,-135.06593054,75.57706626,-41.97132525,7.98440528,40.92238606
74.16085673,1.22706568,0.52680984,-1.24077879

>  <Name>
ligand

>  <RI>
0

>  <Rbt.Current_Directory>
/home/itssahil/PROJECTS/Mol_Feturizer/New_Systems/rnas/3SUH

>  <Rbt.Executable>
rbdock ($Id: //depot/dev/client3/rdock/2013.1/src/exe/rbdock.cxx#4 $)

>  <Rbt.Library>
libRbt.so (2013.1, Build901 2013/11/27)

>  <Rbt.Parameter_File>
/export/apps/rDock/src/rDock_2013.1_src/data/scripts/dock_solv.prm

>  <Rbt.Receptor>
prm/pocket_docking_5.prm

>  <SCORE>
-10.4936

>  <SCORE.INTER>
-6.75822

>  <SCORE.INTER.CONST>
1

>  <SCORE.INTER.POLAR>
0

>  <SCORE.INTER.ROT>
10

>  <SCORE.INTER.SOLV>
6.97227

>  <SCORE.INTER.VDW>
-17.0962

>  <SCORE.INTER.norm>
-0.198771

>  <SCORE.INTRA>
-3.73542

>  <SCORE.INTRA.DIHEDRAL>
-3.94782

>  <SCORE.INTRA.DIHEDRAL.0>
12.2703

>  <SCORE.INTRA.POLAR>
0

>  <SCORE.INTRA.POLAR.0>
0

>  <SCORE.INTRA.REPUL>
0

>  <SCORE.INTRA.REPUL.0>
0

>  <SCORE.INTRA.SOLV>
-0.698901

>  <SCORE.INTRA.SOLV.lig_0>
-64.3214

>  <SCORE.INTRA.VDW>
-1.41207

>  <SCORE.INTRA.VDW.0>
-1.67301

>  <SCORE.INTRA.norm>
-0.109865

>  <SCORE.RESTR>
0

>  <SCORE.RESTR.CAVITY>
0

>  <SCORE.RESTR.norm>
0

>  <SCORE.SYSTEM>
0

>  <SCORE.SYSTEM.CONST>
0

>  <SCORE.SYSTEM.DIHEDRAL>
0

>  <SCORE.SYSTEM.SOLV>
0

>  <SCORE.SYSTEM.norm>
0

>  <SCORE.heavy>
34

>  <SCORE.norm>
-0.308637

>  <RMSD>
9.954

$$$$
ligand
 OpenBabel11021811483D
libRbt.so/2013.1/901 2013/11/27
 34 36  0  0  0  0  0  0  0  0999 V2000
   10.4296   42.0817   70.3203 N   0  0  0  0  0  0  0  0  0  0  0  0
   11.5731   41.7666   69.4327 C   0  0  1  0  0  0  0  0  0  0  0  0
    9.5096   41.1852   70.6996 C   0  0  0  0  0  0  0  0  0  0  0  0
    9.5091   40.0007   70.3530 O   0  0  0  0  0  0  0  0  0  0  0  0
    4.4454   48.1019   72.4972 N   0  0  0  0  0  0  0  0  0  0  0  0
   12.3050   43.0631   69.0471 C   0  0  0  0  0  0  0  0  0  0  0  0
   11.4369   43.9567   68.1508 C   0  0  0  0  0  0  0  0  0  0  0  0
   11.1811   43.2961   66.7875 C   0  0  0  0  0  0  0  0  0  0  0  0
   12.1109   43.3380   65.9480 O   0  0  0  0  0  0  0  0  0  0  0  0
   10.0616   42.7613   66.6157 O   0  0  0  0  0  0  0  0  0  0  0  0
    4.9975   46.7289   74.2773 N   0  0  0  0  0  0  0  0  0  0  0  0
   12.8804   40.9938   71.2878 O   0  0  0  0  0  0  0  0  0  0  0  0
    4.1552   47.0710   73.2869 C   0  0  0  0  0  0  0  0  0  0  0  0
   12.9835   39.8423   69.3768 O   0  0  0  0  0  0  0  0  0  0  0  0
    2.9715   46.3530   73.0747 N   0  0  0  0  0  0  0  0  0  0  0  0
    2.6816   45.2762   73.9018 C   0  0  0  0  0  0  0  0  0  0  0  0
    3.5884   44.9296   74.8948 C   0  0  0  0  0  0  0  0  0  0  0  0
    1.6546   44.6247   73.7290 O   0  0  0  0  0  0  0  0  0  0  0  0
    2.0469   43.6810   76.1465 C   0  0  0  0  0  0  0  0  0  0  0  0
    3.3083   43.9029   75.7896 N   0  0  0  0  0  0  0  0  0  0  0  0
    1.6011   42.5363   76.1823 O   0  0  0  0  0  0  0  0  0  0  0  0
    4.4102   43.2178   76.4742 C   0  0  2  0  0  0  0  0  0  0  0  0
    5.3455   44.2703   77.0750 C   0  0  0  0  0  0  0  0  0  0  0  0
    4.7332   45.6914   75.0858 C   0  0  0  0  0  0  0  0  0  0  0  0
    5.6236   45.3672   76.1153 N   0  0  0  0  0  0  0  0  0  0  0  0
    5.1787   42.3250   75.4940 C   0  0  0  0  0  0  0  0  0  0  0  0
    5.6045   43.1171   74.3336 N   0  0  0  0  0  0  0  0  0  0  0  0
    8.4433   41.7305   71.6668 C   0  0  0  0  0  0  0  0  0  0  0  0
    7.1854   41.1372   71.7409 C   0  0  0  0  0  0  0  0  0  0  0  0
    6.2404   41.5966   72.6562 C   0  0  0  0  0  0  0  0  0  0  0  0
    6.5273   42.6831   73.4757 C   0  0  0  0  0  0  0  0  0  0  0  0
    7.7798   43.2824   73.3968 C   0  0  0  0  0  0  0  0  0  0  0  0
    8.7384   42.8009   72.5064 C   0  0  0  0  0  0  0  0  0  0  0  0
   12.5629   40.7841   70.0921 C   0  0  0  0  0  0  0  0  0  0  0  0
  1  3  1  0  0  0  0
  2  1  1  1  0  0  0
  2  6  1  0  0  0  0
  2 34  1  0  0  0  0
  3  4  2  0  0  0  0
  3 28  1  0  0  0  0
  5 13  1  0  0  0  0
  6  7  1  0  0  0  0
  7  8  1  0  0  0  0
  8  9  1  0  0  0  0
  8 10  1  0  0  0  0
 11 13  2  0  0  0  0
 11 24  1  0  0  0  0
 12 34  1  0  0  0  0
 13 15  1  0  0  0  0
 14 34  1  0  0  0  0
 15 16  1  0  0  0  0
 16 17  1  0  0  0  0
 16 18  2  0  0  0  0
 17 20  1  0  0  0  0
 17 24  2  0  0  0  0
 19 21  1  0  0  0  0
 19 20  1  0  0  0  0
 20 22  1  0  0  0  0
 22 23  1  0  0  0  0
 22 26  1  6  0  0  0
 23 25  1  0  0  0  0
 24 25  1  0  0  0  0
 26 27  1  0  0  0  0
 27 31  1  0  0  0  0
 28 29  2  0  0  0  0
 28 33  1  0  0  0  0
 29 30  1  0  0  0  0
 30 31  2  0  0  0  0
 31 32  1  0  0  0  0
 32 33  2  0  0  0  0
M  END
>  <CHROM.1>
171.95838125,-67.48861733,-44.63334085,-65.99893696,-77.86977878,135.03375740
53.80533617,164.99081951,67.84877458,154.86657025,7.21248377,43.31009666
72.35425946,-0.22966553,-0.67281143,2.37335768

>  <Name>
ligand

>  <RI>
0

>  <Rbt.Current_Directory>
/home/itssahil/PROJECTS/Mol_Feturizer/New_Systems/rnas/3SUH

>  <Rbt.Executable>
rbdock ($Id: //depot/dev/client3/rdock/2013.1/src/exe/rbdock.cxx#4 $)

>  <Rbt.Library>
libRbt.so (2013.1, Build901 2013/11/27)

>  <Rbt.Parameter_File>
/export/apps/rDock/src/rDock_2013.1_src/data/scripts/dock_solv.prm

>  <Rbt.Receptor>
prm/pocket_docking_6.prm

>  <SCORE>
-11.3467

>  <SCORE.INTER>
-7.60384

>  <SCORE.INTER.CONST>
1

>  <SCORE.INTER.POLAR>
0

>  <SCORE.INTER.ROT>
10

>  <SCORE.INTER.SOLV>
9.02877

>  <SCORE.INTER.VDW>
-18.3455

>  <SCORE.INTER.norm>
-0.223642

>  <SCORE.INTRA>
-3.74287

>  <SCORE.INTRA.DIHEDRAL>
-5.35195

>  <SCORE.INTRA.DIHEDRAL.0>
12.2703

>  <SCORE.INTRA.POLAR>
0

>  <SCORE.INTRA.POLAR.0>
0

>  <SCORE.INTRA.REPUL>
0

>  <SCORE.INTRA.REPUL.0>
0

>  <SCORE.INTRA.SOLV>
2.00859

>  <SCORE.INTRA.SOLV.lig_0>
-64.3214

>  <SCORE.INTRA.VDW>
-2.07119

>  <SCORE.INTRA.VDW.0>
-1.67301

>  <SCORE.INTRA.norm>
-0.110084

>  <SCORE.RESTR>
0

>  <SCORE.RESTR.CAVITY>
0

>  <SCORE.RESTR.norm>
0

>  <SCORE.SYSTEM>
0

>  <SCORE.SYSTEM.CONST>
0

>  <SCORE.SYSTEM.DIHEDRAL>
0

>  <SCORE.SYSTEM.SOLV>
0

>  <SCORE.SYSTEM.norm>
0

>  <SCORE.heavy>
34

>  <SCORE.norm>
-0.333727

>  <RMSD>
9.974

$$$$
ligand
 OpenBabel11021811483D
libRbt.so/2013.1/901 2013/11/27
 34 36  0  0  0  0  0  0  0  0999 V2000
   10.4304   42.9127   68.7143 N   0  0  0  0  0  0  0  0  0  0  0  0
   11.1898   43.8546   67.8594 C   0  0  1  0  0  0  0  0  0  0  0  0
    9.2459   42.3865   68.3764 C   0  0  0  0  0  0  0  0  0  0  0  0
    8.6545   42.6267   67.3201 O   0  0  0  0  0  0  0  0  0  0  0  0
    3.2627   44.5152   75.5597 N   0  0  0  0  0  0  0  0  0  0  0  0
   12.3982   44.4036   68.6363 C   0  0  0  0  0  0  0  0  0  0  0  0
   11.9761   45.0136   69.9799 C   0  0  0  0  0  0  0  0  0  0  0  0
   13.1874   45.5717   70.7424 C   0  0  0  0  0  0  0  0  0  0  0  0
   13.4444   46.7897   70.5954 O   0  0  0  0  0  0  0  0  0  0  0  0
   13.8285   44.7683   71.4581 O   0  0  0  0  0  0  0  0  0  0  0  0
    5.1040   43.3090   74.8436 N   0  0  0  0  0  0  0  0  0  0  0  0
   12.4905   43.8229   65.8457 O   0  0  0  0  0  0  0  0  0  0  0  0
    3.9883   43.4002   75.5880 C   0  0  0  0  0  0  0  0  0  0  0  0
   11.1907   42.0606   66.2855 O   0  0  0  0  0  0  0  0  0  0  0  0
    3.5783   42.3322   76.3961 N   0  0  0  0  0  0  0  0  0  0  0  0
    4.3406   41.1720   76.4138 C   0  0  0  0  0  0  0  0  0  0  0  0
    5.4697   41.0986   75.6086 C   0  0  0  0  0  0  0  0  0  0  0  0
    3.9959   40.2180   77.1067 O   0  0  0  0  0  0  0  0  0  0  0  0
    6.4409   39.3185   76.7876 C   0  0  0  0  0  0  0  0  0  0  0  0
    6.3007   39.9844   75.6454 N   0  0  0  0  0  0  0  0  0  0  0  0
    6.3053   38.0974   76.8182 O   0  0  0  0  0  0  0  0  0  0  0  0
    7.1568   39.6809   74.4934 C   0  0  2  0  0  0  0  0  0  0  0  0
    7.9099   40.9519   74.0925 C   0  0  0  0  0  0  0  0  0  0  0  0
    5.8525   42.1955   74.8486 C   0  0  0  0  0  0  0  0  0  0  0  0
    7.0150   42.1352   74.0721 N   0  0  0  0  0  0  0  0  0  0  0  0
    6.3150   39.1719   73.3184 C   0  0  0  0  0  0  0  0  0  0  0  0
    7.1978   38.7533   72.2227 N   0  0  0  0  0  0  0  0  0  0  0  0
    8.6704   41.3918   69.4007 C   0  0  0  0  0  0  0  0  0  0  0  0
    9.2861   40.1611   69.6152 C   0  0  0  0  0  0  0  0  0  0  0  0
    8.7965   39.2852   70.5821 C   0  0  0  0  0  0  0  0  0  0  0  0
    7.6593   39.6113   71.3134 C   0  0  0  0  0  0  0  0  0  0  0  0
    7.0379   40.8361   71.0942 C   0  0  0  0  0  0  0  0  0  0  0  0
    7.5479   41.7283   70.1521 C   0  0  0  0  0  0  0  0  0  0  0  0
   11.6674   43.1909   66.5512 C   0  0  0  0  0  0  0  0  0  0  0  0
  1  3  1  0  0  0  0
  2  1  1  1  0  0  0
  2  6  1  0  0  0  0
  2 34  1  0  0  0  0
  3  4  2  0  0  0  0
  3 28  1  0  0  0  0
  5 13  1  0  0  0  0
  6  7  1  0  0  0  0
  7  8  1  0  0  0  0
  8  9  1  0  0  0  0
  8 10  1  0  0  0  0
 11 13  2  0  0  0  0
 11 24  1  0  0  0  0
 12 34  1  0  0  0  0
 13 15  1  0  0  0  0
 14 34  1  0  0  0  0
 15 16  1  0  0  0  0
 16 17  1  0  0  0  0
 16 18  2  0  0  0  0
 17 20  1  0  0  0  0
 17 24  2  0  0  0  0
 19 21  1  0  0  0  0
 19 20  1  0  0  0  0
 20 22  1  0  0  0  0
 22 23  1  0  0  0  0
 22 26  1  6  0  0  0
 23 25  1  0  0  0  0
 24 25  1  0  0  0  0
 26 27  1  0  0  0  0
 27 31  1  0  0  0  0
 28 29  2  0  0  0  0
 28 33  1  0  0  0  0
 29 30  1  0  0  0  0
 30 31  2  0  0  0  0
 31 32  1  0  0  0  0
 32 33  2  0  0  0  0
M  END
>  <CHROM.1>
172.16329900,-53.70065431,-169.27570473,-179.43933509,94.27428469,129.99911566
-174.63138004,-85.63170261,159.25539988,-67.91603225,8.27065681,41.99910855
72.00159507,0.29246943,-0.84851002,-2.38748573

>  <Name>
ligand

>  <RI>
0

>  <Rbt.Current_Directory>
/home/itssahil/PROJECTS/Mol_Feturizer/New_Systems/rnas/3SUH

>  <Rbt.Executable>
rbdock ($Id: //depot/dev/client3/rdock/2013.1/src/exe/rbdock.cxx#4 $)

>  <Rbt.Library>
libRbt.so (2013.1, Build901 2013/11/27)

>  <Rbt.Parameter_File>
/export/apps/rDock/src/rDock_2013.1_src/data/scripts/dock_solv.prm

>  <Rbt.Receptor>
prm/pocket_docking_6.prm

>  <SCORE>
-18.4122

>  <SCORE.INTER>
-15.2333

>  <SCORE.INTER.CONST>
1

>  <SCORE.INTER.POLAR>
0

>  <SCORE.INTER.ROT>
10

>  <SCORE.INTER.SOLV>
11.2455

>  <SCORE.INTER.VDW>
-24.1707

>  <SCORE.INTER.norm>
-0.448037

>  <SCORE.INTRA>
-3.17891

>  <SCORE.INTRA.DIHEDRAL>
-5.20506

>  <SCORE.INTRA.DIHEDRAL.0>
12.2703

>  <SCORE.INTRA.POLAR>
0

>  <SCORE.INTRA.POLAR.0>
0

>  <SCORE.INTRA.REPUL>
0

>  <SCORE.INTRA.REPUL.0>
0

>  <SCORE.INTRA.SOLV>
-0.278399

>  <SCORE.INTRA.SOLV.lig_0>
-64.3214

>  <SCORE.INTRA.VDW>
-0.437184

>  <SCORE.INTRA.VDW.0>
-1.67301

>  <SCORE.INTRA.norm>
-0.0934975

>  <SCORE.RESTR>
0

>  <SCORE.RESTR.CAVITY>
0

>  <SCORE.RESTR.norm>
0

>  <SCORE.SYSTEM>
0

>  <SCORE.SYSTEM.CONST>
0

>  <SCORE.SYSTEM.DIHEDRAL>
0

>  <SCORE.SYSTEM.SOLV>
0

>  <SCORE.SYSTEM.norm>
0

>  <SCORE.heavy>
34

>  <SCORE.norm>
-0.541534

>  <RMSD>
9.977

$$$$
ligand
 OpenBabel11021811483D
libRbt.so/2013.1/901 2013/11/27
 34 36  0  0  0  0  0  0  0  0999 V2000
    9.2512   42.6352   69.2859 N   0  0  0  0  0  0  0  0  0  0  0  0
    9.9289   43.3750   68.1958 C   0  0  1  0  0  0  0  0  0  0  0  0
    8.2279   41.7928   69.0928 C   0  0  0  0  0  0  0  0  0  0  0  0
    7.7345   41.5398   67.9902 O   0  0  0  0  0  0  0  0  0  0  0  0
    7.9106   42.8444   77.6980 N   0  0  0  0  0  0  0  0  0  0  0  0
   10.9503   44.3585   68.7914 C   0  0  0  0  0  0  0  0  0  0  0  0
   12.0813   43.6238   69.5238 C   0  0  0  0  0  0  0  0  0  0  0  0
   12.9963   44.6100   70.2657 C   0  0  0  0  0  0  0  0  0  0  0  0
   13.2296   44.3753   71.4747 O   0  0  0  0  0  0  0  0  0  0  0  0
   13.4446   45.5761   69.6066 O   0  0  0  0  0  0  0  0  0  0  0  0
    7.5752   40.6533   77.0312 N   0  0  0  0  0  0  0  0  0  0  0  0
   10.5838   41.1951   67.4429 O   0  0  0  0  0  0  0  0  0  0  0  0
    7.0902   41.8806   77.2875 C   0  0  0  0  0  0  0  0  0  0  0  0
   11.2127   42.9602   66.2272 O   0  0  0  0  0  0  0  0  0  0  0  0
    5.7269   42.1588   77.1272 N   0  0  0  0  0  0  0  0  0  0  0  0
    4.8812   41.1467   76.6936 C   0  0  0  0  0  0  0  0  0  0  0  0
    5.4197   39.8992   76.4069 C   0  0  0  0  0  0  0  0  0  0  0  0
    3.6834   41.3690   76.5357 O   0  0  0  0  0  0  0  0  0  0  0  0
    3.3715   38.7630   76.5347 C   0  0  0  0  0  0  0  0  0  0  0  0
    4.6019   38.8374   76.0363 N   0  0  0  0  0  0  0  0  0  0  0  0
    2.4420   38.3544   75.8423 O   0  0  0  0  0  0  0  0  0  0  0  0
    5.1668   37.7211   75.2702 C   0  0  2  0  0  0  0  0  0  0  0  0
    6.4493   37.2504   75.9607 C   0  0  0  0  0  0  0  0  0  0  0  0
    6.7725   39.6636   76.6115 C   0  0  0  0  0  0  0  0  0  0  0  0
    7.3050   38.3934   76.3642 N   0  0  0  0  0  0  0  0  0  0  0  0
    5.4691   38.1557   73.8320 C   0  0  0  0  0  0  0  0  0  0  0  0
    6.4483   39.2494   73.8418 N   0  0  0  0  0  0  0  0  0  0  0  0
    7.7189   41.0989   70.3692 C   0  0  0  0  0  0  0  0  0  0  0  0
    8.0098   39.7583   70.6100 C   0  0  0  0  0  0  0  0  0  0  0  0
    7.5959   39.1468   71.7917 C   0  0  0  0  0  0  0  0  0  0  0  0
    6.8479   39.8567   72.7249 C   0  0  0  0  0  0  0  0  0  0  0  0
    6.5488   41.1931   72.4820 C   0  0  0  0  0  0  0  0  0  0  0  0
    6.9930   41.8157   71.3163 C   0  0  0  0  0  0  0  0  0  0  0  0
   10.6338   42.4261   67.2046 C   0  0  0  0  0  0  0  0  0  0  0  0
  1  3  1  0  0  0  0
  2  1  1  1  0  0  0
  2  6  1  0  0  0  0
  2 34  1  0  0  0  0
  3  4  2  0  0  0  0
  3 28  1  0  0  0  0
  5 13  1  0  0  0  0
  6  7  1  0  0  0  0
  7  8  1  0  0  0  0
  8  9  1  0  0  0  0
  8 10  1  0  0  0  0
 11 13  2  0  0  0  0
 11 24  1  0  0  0  0
 12 34  1  0  0  0  0
 13 15  1  0  0  0  0
 14 34  1  0  0  0  0
 15 16  1  0  0  0  0
 16 17  1  0  0  0  0
 16 18  2  0  0  0  0
 17 20  1  0  0  0  0
 17 24  2  0  0  0  0
 19 21  1  0  0  0  0
 19 20  1  0  0  0  0
 20 22  1  0  0  0  0
 22 23  1  0  0  0  0
 22 26  1  6  0  0  0
 23 25  1  0  0  0  0
 24 25  1  0  0  0  0
 26 27  1  0  0  0  0
 27 31  1  0  0  0  0
 28 29  2  0  0  0  0
 28 33  1  0  0  0  0
 29 30  1  0  0  0  0
 30 31  2  0  0  0  0
 31 32  1  0  0  0  0
 32 33  2  0  0  0  0
M  END
>  <CHROM.1>
173.91049381,64.43488760,-1.70836640,-172.76236440,128.99368774,143.08272498
60.71368485,-177.09753801,-66.97237351,-105.49283682,7.81438019,41.14374409
72.70504095,0.69780261,-0.72479434,-1.78110776

>  <Name>
ligand

>  <RI>
0

>  <Rbt.Current_Directory>
/home/itssahil/PROJECTS/Mol_Feturizer/New_Systems/rnas/3SUH

>  <Rbt.Executable>
rbdock ($Id: //depot/dev/client3/rdock/2013.1/src/exe/rbdock.cxx#4 $)

>  <Rbt.Library>
libRbt.so (2013.1, Build901 2013/11/27)

>  <Rbt.Parameter_File>
/export/apps/rDock/src/rDock_2013.1_src/data/scripts/dock_solv.prm

>  <Rbt.Receptor>
prm/pocket_docking_5.prm

>  <SCORE>
-13.4057

>  <SCORE.INTER>
-10.4367

>  <SCORE.INTER.CONST>
1

>  <SCORE.INTER.POLAR>
0

>  <SCORE.INTER.ROT>
10

>  <SCORE.INTER.SOLV>
9.44923

>  <SCORE.INTER.VDW>
-20.3742

>  <SCORE.INTER.norm>
-0.306963

>  <SCORE.INTRA>
-2.96899

>  <SCORE.INTRA.DIHEDRAL>
-5.81419

>  <SCORE.INTRA.DIHEDRAL.0>
12.2703

>  <SCORE.INTRA.POLAR>
0

>  <SCORE.INTRA.POLAR.0>
0

>  <SCORE.INTRA.REPUL>
0

>  <SCORE.INTRA.REPUL.0>
0

>  <SCORE.INTRA.SOLV>
1.90145

>  <SCORE.INTRA.SOLV.lig_0>
-64.3214

>  <SCORE.INTRA.VDW>
-1.01262

>  <SCORE.INTRA.VDW.0>
-1.67301

>  <SCORE.INTRA.norm>
-0.0873231

>  <SCORE.RESTR>
0

>  <SCORE.RESTR.CAVITY>
0

>  <SCORE.RESTR.norm>
0

>  <SCORE.SYSTEM>
0

>  <SCORE.SYSTEM.CONST>
0

>  <SCORE.SYSTEM.DIHEDRAL>
0

>  <SCORE.SYSTEM.SOLV>
0

>  <SCORE.SYSTEM.norm>
0

>  <SCORE.heavy>
34

>  <SCORE.norm>
-0.394286

>  <RMSD>
9.993

$$$$
ligand
 OpenBabel11021811483D
libRbt.so/2013.1/901 2013/11/27
 34 36  0  0  0  0  0  0  0  0999 V2000
   10.2365   43.1421   68.6748 N   0  0  0  0  0  0  0  0  0  0  0  0
   11.1204   43.8287   67.7043 C   0  0  1  0  0  0  0  0  0  0  0  0
    9.0497   42.6088   68.3565 C   0  0  0  0  0  0  0  0  0  0  0  0
    8.5593   42.6303   67.2242 O   0  0  0  0  0  0  0  0  0  0  0  0
   10.5921   39.8057   79.2329 N   0  0  0  0  0  0  0  0  0  0  0  0
   12.4853   44.1120   68.3538 C   0  0  0  0  0  0  0  0  0  0  0  0
   12.3648   45.1195   69.5052 C   0  0  0  0  0  0  0  0  0  0  0  0
   11.6426   44.5013   70.7121 C   0  0  0  0  0  0  0  0  0  0  0  0
   10.4262   44.7703   70.8503 O   0  0  0  0  0  0  0  0  0  0  0  0
   12.3225   43.7707   71.4689 O   0  0  0  0  0  0  0  0  0  0  0  0
    9.2256   39.0315   77.5325 N   0  0  0  0  0  0  0  0  0  0  0  0
   11.8101   43.5862   65.4210 O   0  0  0  0  0  0  0  0  0  0  0  0
    9.4522   39.8796   78.5506 C   0  0  0  0  0  0  0  0  0  0  0  0
   10.9604   41.7997   66.4580 O   0  0  0  0  0  0  0  0  0  0  0  0
    8.4999   40.8441   78.9035 N   0  0  0  0  0  0  0  0  0  0  0  0
    7.3162   40.9152   78.1813 C   0  0  0  0  0  0  0  0  0  0  0  0
    7.1274   40.0455   77.1153 C   0  0  0  0  0  0  0  0  0  0  0  0
    6.4701   41.7593   78.4653 O   0  0  0  0  0  0  0  0  0  0  0  0
    4.7987   40.3181   77.0447 C   0  0  0  0  0  0  0  0  0  0  0  0
    5.9306   40.0340   76.4076 N   0  0  0  0  0  0  0  0  0  0  0  0
    3.9657   41.0634   76.5338 O   0  0  0  0  0  0  0  0  0  0  0  0
    5.9062   39.5194   75.0340 C   0  0  2  0  0  0  0  0  0  0  0  0
    6.6083   38.1594   75.0061 C   0  0  0  0  0  0  0  0  0  0  0  0
    8.0876   39.0860   76.8240 C   0  0  0  0  0  0  0  0  0  0  0  0
    7.8757   38.1818   75.7774 N   0  0  0  0  0  0  0  0  0  0  0  0
    6.6062   40.4958   74.0825 C   0  0  0  0  0  0  0  0  0  0  0  0
    6.4942   40.0072   72.7027 N   0  0  0  0  0  0  0  0  0  0  0  0
    8.3321   41.9007   69.5199 C   0  0  0  0  0  0  0  0  0  0  0  0
    8.5300   40.5416   69.7512 C   0  0  0  0  0  0  0  0  0  0  0  0
    7.9235   39.9142   70.8376 C   0  0  0  0  0  0  0  0  0  0  0  0
    7.0768   40.6291   71.6781 C   0  0  0  0  0  0  0  0  0  0  0  0
    6.8710   41.9844   71.4434 C   0  0  0  0  0  0  0  0  0  0  0  0
    7.5054   42.6209   70.3776 C   0  0  0  0  0  0  0  0  0  0  0  0
   11.3160   43.0028   66.4161 C   0  0  0  0  0  0  0  0  0  0  0  0
  1  3  1  0  0  0  0
  2  1  1  1  0  0  0
  2  6  1  0  0  0  0
  2 34  1  0  0  0  0
  3  4  2  0  0  0  0
  3 28  1  0  0  0  0
  5 13  1  0  0  0  0
  6  7  1  0  0  0  0
  7  8  1  0  0  0  0
  8  9  1  0  0  0  0
  8 10  1  0  0  0  0
 11 13  2  0  0  0  0
 11 24  1  0  0  0  0
 12 34  1  0  0  0  0
 13 15  1  0  0  0  0
 14 34  1  0  0  0  0
 15 16  1  0  0  0  0
 16 17  1  0  0  0  0
 16 18  2  0  0  0  0
 17 20  1  0  0  0  0
 17 24  2  0  0  0  0
 19 21  1  0  0  0  0
 19 20  1  0  0  0  0
 20 22  1  0  0  0  0
 22 23  1  0  0  0  0
 22 26  1  6  0  0  0
 23 25  1  0  0  0  0
 24 25  1  0  0  0  0
 26 27  1  0  0  0  0
 27 31  1  0  0  0  0
 28 29  2  0  0  0  0
 28 33  1  0  0  0  0
 29 30  1  0  0  0  0
 30 31  2  0  0  0  0
 31 32  1  0  0  0  0
 32 33  2  0  0  0  0
M  END
>  <CHROM.1>
-170.93561629,-65.80496665,165.73505015,70.25251717,-99.33593512,136.15787098
-176.29830346,-176.38309573,125.75999016,-90.83425773,8.65873321,41.50350115
72.68547652,-1.17172738,0.46383753,1.72584729

>  <Name>
ligand

>  <RI>
0

>  <Rbt.Current_Directory>
/home/itssahil/PROJECTS/Mol_Feturizer/New_Systems/rnas/3SUH

>  <Rbt.Executable>
rbdock ($Id: //depot/dev/client3/rdock/2013.1/src/exe/rbdock.cxx#4 $)

>  <Rbt.Library>
libRbt.so (2013.1, Build901 2013/11/27)

>  <Rbt.Parameter_File>
/export/apps/rDock/src/rDock_2013.1_src/data/scripts/dock_solv.prm

>  <Rbt.Receptor>
prm/pocket_docking_5.prm

>  <SCORE>
-14.6545

>  <SCORE.INTER>
-10.6756

>  <SCORE.INTER.CONST>
1

>  <SCORE.INTER.POLAR>
0

>  <SCORE.INTER.ROT>
10

>  <SCORE.INTER.SOLV>
11.2753

>  <SCORE.INTER.VDW>
-21.1421

>  <SCORE.INTER.norm>
-0.313987

>  <SCORE.INTRA>
-3.97891

>  <SCORE.INTRA.DIHEDRAL>
-5.39686

>  <SCORE.INTRA.DIHEDRAL.0>
12.2703

>  <SCORE.INTRA.POLAR>
0

>  <SCORE.INTRA.POLAR.0>
0

>  <SCORE.INTRA.REPUL>
0

>  <SCORE.INTRA.REPUL.0>
0

>  <SCORE.INTRA.SOLV>
-0.228635

>  <SCORE.INTRA.SOLV.lig_0>
-64.3214

>  <SCORE.INTRA.VDW>
-1.16616

>  <SCORE.INTRA.VDW.0>
-1.67301

>  <SCORE.INTRA.norm>
-0.117027

>  <SCORE.RESTR>
0

>  <SCORE.RESTR.CAVITY>
0

>  <SCORE.RESTR.norm>
0

>  <SCORE.SYSTEM>
0

>  <SCORE.SYSTEM.CONST>
0

>  <SCORE.SYSTEM.DIHEDRAL>
0

>  <SCORE.SYSTEM.SOLV>
0

>  <SCORE.SYSTEM.norm>
0

>  <SCORE.heavy>
34

>  <SCORE.norm>
-0.431014

>  <RMSD>
10.031

$$$$
ligand
 OpenBabel11021811483D
libRbt.so/2013.1/901 2013/11/27
 34 36  0  0  0  0  0  0  0  0999 V2000
   10.4272   42.9221   68.6929 N   0  0  0  0  0  0  0  0  0  0  0  0
   11.1671   43.8669   67.8242 C   0  0  1  0  0  0  0  0  0  0  0  0
    9.2714   42.3395   68.3483 C   0  0  0  0  0  0  0  0  0  0  0  0
    8.6934   42.5240   67.2736 O   0  0  0  0  0  0  0  0  0  0  0  0
    3.2135   44.4786   75.5103 N   0  0  0  0  0  0  0  0  0  0  0  0
   12.4024   44.4000   68.5692 C   0  0  0  0  0  0  0  0  0  0  0  0
   12.0074   45.1994   69.8183 C   0  0  0  0  0  0  0  0  0  0  0  0
   13.1892   46.0274   70.3456 C   0  0  0  0  0  0  0  0  0  0  0  0
   13.9582   45.4704   71.1638 O   0  0  0  0  0  0  0  0  0  0  0  0
   13.2991   47.1990   69.9167 O   0  0  0  0  0  0  0  0  0  0  0  0
    5.0819   43.3146   74.7944 N   0  0  0  0  0  0  0  0  0  0  0  0
   11.2435   42.0275   66.2883 O   0  0  0  0  0  0  0  0  0  0  0  0
    3.9766   43.3895   75.5559 C   0  0  0  0  0  0  0  0  0  0  0  0
   12.2851   43.9188   65.7164 O   0  0  0  0  0  0  0  0  0  0  0  0
    3.6164   42.3314   76.3999 N   0  0  0  0  0  0  0  0  0  0  0  0
    4.4174   41.1980   76.4356 C   0  0  0  0  0  0  0  0  0  0  0  0
    5.5345   41.1396   75.6126 C   0  0  0  0  0  0  0  0  0  0  0  0
    4.1168   40.2527   77.1602 O   0  0  0  0  0  0  0  0  0  0  0  0
    6.5848   39.4260   76.8220 C   0  0  0  0  0  0  0  0  0  0  0  0
    6.4029   40.0550   75.6648 N   0  0  0  0  0  0  0  0  0  0  0  0
    7.3294   39.8982   77.6781 O   0  0  0  0  0  0  0  0  0  0  0  0
    7.2491   39.7481   74.5064 C   0  0  2  0  0  0  0  0  0  0  0  0
    7.9522   41.0317   74.0576 C   0  0  0  0  0  0  0  0  0  0  0  0
    5.8674   42.2271   74.8163 C   0  0  0  0  0  0  0  0  0  0  0  0
    7.0178   42.1837   74.0210 N   0  0  0  0  0  0  0  0  0  0  0  0
    6.4050   39.1790   73.3608 C   0  0  0  0  0  0  0  0  0  0  0  0
    7.2834   38.7494   72.2658 N   0  0  0  0  0  0  0  0  0  0  0  0
    8.7137   41.3544   69.3915 C   0  0  0  0  0  0  0  0  0  0  0  0
    9.3966   40.1778   69.6899 C   0  0  0  0  0  0  0  0  0  0  0  0
    8.9197   39.3143   70.6741 C   0  0  0  0  0  0  0  0  0  0  0  0
    7.7308   39.5957   71.3387 C   0  0  0  0  0  0  0  0  0  0  0  0
    7.0428   40.7658   71.0356 C   0  0  0  0  0  0  0  0  0  0  0  0
    7.5379   41.6479   70.0763 C   0  0  0  0  0  0  0  0  0  0  0  0
   11.6000   43.2126   66.4958 C   0  0  0  0  0  0  0  0  0  0  0  0
  1  3  1  0  0  0  0
  2  1  1  1  0  0  0
  2  6  1  0  0  0  0
  2 34  1  0  0  0  0
  3  4  2  0  0  0  0
  3 28  1  0  0  0  0
  5 13  1  0  0  0  0
  6  7  1  0  0  0  0
  7  8  1  0  0  0  0
  8  9  1  0  0  0  0
  8 10  1  0  0  0  0
 11 13  2  0  0  0  0
 11 24  1  0  0  0  0
 12 34  1  0  0  0  0
 13 15  1  0  0  0  0
 14 34  1  0  0  0  0
 15 16  1  0  0  0  0
 16 17  1  0  0  0  0
 16 18  2  0  0  0  0
 17 20  1  0  0  0  0
 17 24  2  0  0  0  0
 19 21  1  0  0  0  0
 19 20  1  0  0  0  0
 20 22  1  0  0  0  0
 22 23  1  0  0  0  0
 22 26  1  6  0  0  0
 23 25  1  0  0  0  0
 24 25  1  0  0  0  0
 26 27  1  0  0  0  0
 27 31  1  0  0  0  0
 28 29  2  0  0  0  0
 28 33  1  0  0  0  0
 29 30  1  0  0  0  0
 30 31  2  0  0  0  0
 31 32  1  0  0  0  0
 32 33  2  0  0  0  0
M  END
>  <CHROM.1>
176.72700200,-62.93002761,2.82061113,-165.13207089,-88.38749783,-79.10409783
-174.16706172,-84.19998961,154.52084215,-65.67585211,8.33352738,42.12553049
71.97185444,0.35409685,-0.85236297,-2.32493595

>  <Name>
ligand

>  <RI>
0

>  <Rbt.Current_Directory>
/home/itssahil/PROJECTS/Mol_Feturizer/New_Systems/rnas/3SUH

>  <Rbt.Executable>
rbdock ($Id: //depot/dev/client3/rdock/2013.1/src/exe/rbdock.cxx#4 $)

>  <Rbt.Library>
libRbt.so (2013.1, Build901 2013/11/27)

>  <Rbt.Parameter_File>
/export/apps/rDock/src/rDock_2013.1_src/data/scripts/dock_solv.prm

>  <Rbt.Receptor>
prm/pocket_docking_6.prm

>  <SCORE>
-18.8431

>  <SCORE.INTER>
-15.3996

>  <SCORE.INTER.CONST>
1

>  <SCORE.INTER.POLAR>
0

>  <SCORE.INTER.ROT>
10

>  <SCORE.INTER.SOLV>
11.3266

>  <SCORE.INTER.VDW>
-24.3086

>  <SCORE.INTER.norm>
-0.452928

>  <SCORE.INTRA>
-3.44354

>  <SCORE.INTRA.DIHEDRAL>
-4.68515

>  <SCORE.INTRA.DIHEDRAL.0>
12.2703

>  <SCORE.INTRA.POLAR>
0

>  <SCORE.INTRA.POLAR.0>
0

>  <SCORE.INTRA.REPUL>
0

>  <SCORE.INTRA.REPUL.0>
0

>  <SCORE.INTRA.SOLV>
-0.393823

>  <SCORE.INTRA.SOLV.lig_0>
-64.3214

>  <SCORE.INTRA.VDW>
-0.904059

>  <SCORE.INTRA.VDW.0>
-1.67301

>  <SCORE.INTRA.norm>
-0.101281

>  <SCORE.RESTR>
0

>  <SCORE.RESTR.CAVITY>
0

>  <SCORE.RESTR.norm>
0

>  <SCORE.SYSTEM>
0

>  <SCORE.SYSTEM.CONST>
0

>  <SCORE.SYSTEM.DIHEDRAL>
0

>  <SCORE.SYSTEM.SOLV>
0

>  <SCORE.SYSTEM.norm>
0

>  <SCORE.heavy>
34

>  <SCORE.norm>
-0.554209

>  <RMSD>
10.031

$$$$
ligand
 OpenBabel11021811483D
libRbt.so/2013.1/901 2013/11/27
 34 36  0  0  0  0  0  0  0  0999 V2000
    8.0632   41.2482   70.8261 N   0  0  0  0  0  0  0  0  0  0  0  0
    8.8073   40.5007   69.7858 C   0  0  1  0  0  0  0  0  0  0  0  0
    7.1355   40.6987   71.6208 C   0  0  0  0  0  0  0  0  0  0  0  0
    6.7956   39.5131   71.5757 O   0  0  0  0  0  0  0  0  0  0  0  0
    0.4180   41.3171   75.5443 N   0  0  0  0  0  0  0  0  0  0  0  0
    9.5413   41.4867   68.8615 C   0  0  0  0  0  0  0  0  0  0  0  0
    8.5598   42.4113   68.1285 C   0  0  0  0  0  0  0  0  0  0  0  0
    8.0650   43.5383   69.0478 C   0  0  0  0  0  0  0  0  0  0  0  0
    6.9329   43.3976   69.5670 O   0  0  0  0  0  0  0  0  0  0  0  0
    8.8313   44.5151   69.2133 O   0  0  0  0  0  0  0  0  0  0  0  0
    1.6060   43.1505   76.3095 N   0  0  0  0  0  0  0  0  0  0  0  0
   11.0320   39.8204   70.3655 O   0  0  0  0  0  0  0  0  0  0  0  0
    1.4648   41.8185   76.1949 C   0  0  0  0  0  0  0  0  0  0  0  0
    9.3450   38.4516   70.8847 O   0  0  0  0  0  0  0  0  0  0  0  0
    2.4094   40.9484   76.7537 N   0  0  0  0  0  0  0  0  0  0  0  0
    3.5001   41.4830   77.4261 C   0  0  0  0  0  0  0  0  0  0  0  0
    3.6329   42.8634   77.4986 C   0  0  0  0  0  0  0  0  0  0  0  0
    4.3473   40.7403   77.9159 O   0  0  0  0  0  0  0  0  0  0  0  0
    5.1299   42.8258   79.3041 C   0  0  0  0  0  0  0  0  0  0  0  0
    4.6709   43.4431   78.2197 N   0  0  0  0  0  0  0  0  0  0  0  0
    6.3389   42.7022   79.4865 O   0  0  0  0  0  0  0  0  0  0  0  0
    5.1045   44.8067   77.8961 C   0  0  2  0  0  0  0  0  0  0  0  0
    3.8714   45.7112   77.8274 C   0  0  0  0  0  0  0  0  0  0  0  0
    2.6537   43.6842   76.9557 C   0  0  0  0  0  0  0  0  0  0  0  0
    2.7668   45.0743   77.0686 N   0  0  0  0  0  0  0  0  0  0  0  0
    5.8521   44.8289   76.5584 C   0  0  0  0  0  0  0  0  0  0  0  0
    5.0093   44.2386   75.5114 N   0  0  0  0  0  0  0  0  0  0  0  0
    6.5331   41.6588   72.6625 C   0  0  0  0  0  0  0  0  0  0  0  0
    6.0796   41.1787   73.8887 C   0  0  0  0  0  0  0  0  0  0  0  0
    5.5860   42.0562   74.8521 C   0  0  0  0  0  0  0  0  0  0  0  0
    5.4987   43.4178   74.5825 C   0  0  0  0  0  0  0  0  0  0  0  0
    5.9428   43.8979   73.3551 C   0  0  0  0  0  0  0  0  0  0  0  0
    6.4699   43.0252   72.4042 C   0  0  0  0  0  0  0  0  0  0  0  0
    9.8171   39.5081   70.3983 C   0  0  0  0  0  0  0  0  0  0  0  0
  1  3  1  0  0  0  0
  2  1  1  1  0  0  0
  2  6  1  0  0  0  0
  2 34  1  0  0  0  0
  3  4  2  0  0  0  0
  3 28  1  0  0  0  0
  5 13  1  0  0  0  0
  6  7  1  0  0  0  0
  7  8  1  0  0  0  0
  8  9  1  0  0  0  0
  8 10  1  0  0  0  0
 11 13  2  0  0  0  0
 11 24  1  0  0  0  0
 12 34  1  0  0  0  0
 13 15  1  0  0  0  0
 14 34  1  0  0  0  0
 15 16  1  0  0  0  0
 16 17  1  0  0  0  0
 16 18  2  0  0  0  0
 17 20  1  0  0  0  0
 17 24  2  0  0  0  0
 19 21  1  0  0  0  0
 19 20  1  0  0  0  0
 20 22  1  0  0  0  0
 22 23  1  0  0  0  0
 22 26  1  6  0  0  0
 23 25  1  0  0  0  0
 24 25  1  0  0  0  0
 26 27  1  0  0  0  0
 27 31  1  0  0  0  0
 28 29  2  0  0  0  0
 28 33  1  0  0  0  0
 29 30  1  0  0  0  0
 30 31  2  0  0  0  0
 31 32  1  0  0  0  0
 32 33  2  0  0  0  0
M  END
>  <CHROM.1>
167.10981923,-61.74363692,-104.48408309,78.26720811,-100.20187400,133.94577203
55.14688783,-138.77445660,86.67458864,-149.93069872,5.88294782,42.32670426
74.04221427,-0.05178337,-0.98253250,2.84257479

>  <Name>
ligand

>  <RI>
0

>  <Rbt.Current_Directory>
/home/itssahil/PROJECTS/Mol_Feturizer/New_Systems/rnas/3SUH

>  <Rbt.Executable>
rbdock ($Id: //depot/dev/client3/rdock/2013.1/src/exe/rbdock.cxx#4 $)

>  <Rbt.Library>
libRbt.so (2013.1, Build901 2013/11/27)

>  <Rbt.Parameter_File>
/export/apps/rDock/src/rDock_2013.1_src/data/scripts/dock_solv.prm

>  <Rbt.Receptor>
prm/pocket_docking_4.prm

>  <SCORE>
-9.47352

>  <SCORE.INTER>
-6.59775

>  <SCORE.INTER.CONST>
1

>  <SCORE.INTER.POLAR>
0

>  <SCORE.INTER.ROT>
10

>  <SCORE.INTER.SOLV>
8.9254

>  <SCORE.INTER.VDW>
-17.6403

>  <SCORE.INTER.norm>
-0.194051

>  <SCORE.INTRA>
-2.87577

>  <SCORE.INTRA.DIHEDRAL>
-3.4664

>  <SCORE.INTRA.DIHEDRAL.0>
12.2703

>  <SCORE.INTRA.POLAR>
0

>  <SCORE.INTRA.POLAR.0>
0

>  <SCORE.INTRA.REPUL>
0

>  <SCORE.INTRA.REPUL.0>
0

>  <SCORE.INTRA.SOLV>
2.46007

>  <SCORE.INTRA.SOLV.lig_0>
-64.3214

>  <SCORE.INTRA.VDW>
-2.37261

>  <SCORE.INTRA.VDW.0>
-1.67301

>  <SCORE.INTRA.norm>
-0.0845815

>  <SCORE.RESTR>
0

>  <SCORE.RESTR.CAVITY>
0

>  <SCORE.RESTR.norm>
0

>  <SCORE.SYSTEM>
0

>  <SCORE.SYSTEM.CONST>
0

>  <SCORE.SYSTEM.DIHEDRAL>
0

>  <SCORE.SYSTEM.SOLV>
0

>  <SCORE.SYSTEM.norm>
0

>  <SCORE.heavy>
34

>  <SCORE.norm>
-0.278633

>  <RMSD>
10.033

$$$$
ligand
 OpenBabel11021811483D
libRbt.so/2013.1/901 2013/11/27
 34 36  0  0  0  0  0  0  0  0999 V2000
    9.8984   42.8663   69.2231 N   0  0  0  0  0  0  0  0  0  0  0  0
   10.7350   43.5801   68.2304 C   0  0  1  0  0  0  0  0  0  0  0  0
    8.5987   43.1200   69.4245 C   0  0  0  0  0  0  0  0  0  0  0  0
    7.9539   43.9744   68.8102 O   0  0  0  0  0  0  0  0  0  0  0  0
    9.5347   42.1530   79.5018 N   0  0  0  0  0  0  0  0  0  0  0  0
   12.1632   43.7450   68.7765 C   0  0  0  0  0  0  0  0  0  0  0  0
   12.1823   44.5749   70.0673 C   0  0  0  0  0  0  0  0  0  0  0  0
   11.6053   45.9795   69.8341 C   0  0  0  0  0  0  0  0  0  0  0  0
   10.3703   46.1242   69.9917 O   0  0  0  0  0  0  0  0  0  0  0  0
   12.4129   46.8788   69.5056 O   0  0  0  0  0  0  0  0  0  0  0  0
    8.7013   40.3110   78.3745 N   0  0  0  0  0  0  0  0  0  0  0  0
   11.1240   43.5067   65.8659 O   0  0  0  0  0  0  0  0  0  0  0  0
    8.6118   41.6091   78.7125 C   0  0  0  0  0  0  0  0  0  0  0  0
   10.4509   41.6336   66.8793 O   0  0  0  0  0  0  0  0  0  0  0  0
    7.5554   42.3994   78.2423 N   0  0  0  0  0  0  0  0  0  0  0  0
    6.6010   41.8223   77.4155 C   0  0  0  0  0  0  0  0  0  0  0  0
    6.7405   40.4873   77.0596 C   0  0  0  0  0  0  0  0  0  0  0  0
    5.6708   42.4976   76.9822 O   0  0  0  0  0  0  0  0  0  0  0  0
    4.5019   40.2175   76.4132 C   0  0  0  0  0  0  0  0  0  0  0  0
    5.7736   39.8494   76.2906 N   0  0  0  0  0  0  0  0  0  0  0  0
    3.7911   39.7235   77.2856 O   0  0  0  0  0  0  0  0  0  0  0  0
    6.1353   38.6588   75.5135 C   0  0  2  0  0  0  0  0  0  0  0  0
    6.8841   37.6848   76.4267 C   0  0  0  0  0  0  0  0  0  0  0  0
    7.7880   39.7370   77.5766 C   0  0  0  0  0  0  0  0  0  0  0  0
    7.9018   38.3807   77.2522 N   0  0  0  0  0  0  0  0  0  0  0  0
    7.0133   39.0445   74.3181 C   0  0  0  0  0  0  0  0  0  0  0  0
    6.2072   39.7650   73.3249 N   0  0  0  0  0  0  0  0  0  0  0  0
    7.9236   42.2159   70.4718 C   0  0  0  0  0  0  0  0  0  0  0  0
    7.8768   40.8358   70.2906 C   0  0  0  0  0  0  0  0  0  0  0  0
    7.3149   40.0139   71.2655 C   0  0  0  0  0  0  0  0  0  0  0  0
    6.7535   40.5669   72.4115 C   0  0  0  0  0  0  0  0  0  0  0  0
    6.7914   41.9457   72.5900 C   0  0  0  0  0  0  0  0  0  0  0  0
    7.3851   42.7659   71.6316 C   0  0  0  0  0  0  0  0  0  0  0  0
   10.7755   42.8461   66.8742 C   0  0  0  0  0  0  0  0  0  0  0  0
  1  3  1  0  0  0  0
  2  1  1  1  0  0  0
  2  6  1  0  0  0  0
  2 34  1  0  0  0  0
  3  4  2  0  0  0  0
  3 28  1  0  0  0  0
  5 13  1  0  0  0  0
  6  7  1  0  0  0  0
  7  8  1  0  0  0  0
  8  9  1  0  0  0  0
  8 10  1  0  0  0  0
 11 13  2  0  0  0  0
 11 24  1  0  0  0  0
 12 34  1  0  0  0  0
 13 15  1  0  0  0  0
 14 34  1  0  0  0  0
 15 16  1  0  0  0  0
 16 17  1  0  0  0  0
 16 18  2  0  0  0  0
 17 20  1  0  0  0  0
 17 24  2  0  0  0  0
 19 21  1  0  0  0  0
 19 20  1  0  0  0  0
 20 22  1  0  0  0  0
 22 23  1  0  0  0  0
 22 26  1  6  0  0  0
 23 25  1  0  0  0  0
 24 25  1  0  0  0  0
 26 27  1  0  0  0  0
 27 31  1  0  0  0  0
 28 29  2  0  0  0  0
 28 33  1  0  0  0  0
 29 30  1  0  0  0  0
 30 31  2  0  0  0  0
 31 32  1  0  0  0  0
 32 33  2  0  0  0  0
M  END
>  <CHROM.1>
144.85853134,-61.27990820,160.66693797,-59.64784066,89.35831187,-85.94914122
-70.58088934,158.58646174,80.50189609,-60.43764750,8.31452150,41.86051698
72.97739035,0.95318310,-0.84053380,-1.65330806

>  <Name>
ligand

>  <RI>
0

>  <Rbt.Current_Directory>
/home/itssahil/PROJECTS/Mol_Feturizer/New_Systems/rnas/3SUH

>  <Rbt.Executable>
rbdock ($Id: //depot/dev/client3/rdock/2013.1/src/exe/rbdock.cxx#4 $)

>  <Rbt.Library>
libRbt.so (2013.1, Build901 2013/11/27)

>  <Rbt.Parameter_File>
/export/apps/rDock/src/rDock_2013.1_src/data/scripts/dock_solv.prm

>  <Rbt.Receptor>
prm/pocket_docking_4.prm

>  <SCORE>
-13.3584

>  <SCORE.INTER>
-8.31543

>  <SCORE.INTER.CONST>
1

>  <SCORE.INTER.POLAR>
0

>  <SCORE.INTER.ROT>
10

>  <SCORE.INTER.SOLV>
8.77096

>  <SCORE.INTER.VDW>
-18.7339

>  <SCORE.INTER.norm>
-0.244572

>  <SCORE.INTRA>
-5.04294

>  <SCORE.INTRA.DIHEDRAL>
-4.65526

>  <SCORE.INTRA.DIHEDRAL.0>
12.2703

>  <SCORE.INTRA.POLAR>
0

>  <SCORE.INTRA.POLAR.0>
0

>  <SCORE.INTRA.REPUL>
0

>  <SCORE.INTRA.REPUL.0>
0

>  <SCORE.INTRA.SOLV>
-0.483451

>  <SCORE.INTRA.SOLV.lig_0>
-64.3214

>  <SCORE.INTRA.VDW>
-2.47358

>  <SCORE.INTRA.VDW.0>
-1.67301

>  <SCORE.INTRA.norm>
-0.148322

>  <SCORE.RESTR>
0

>  <SCORE.RESTR.CAVITY>
0

>  <SCORE.RESTR.norm>
0

>  <SCORE.SYSTEM>
0

>  <SCORE.SYSTEM.CONST>
0

>  <SCORE.SYSTEM.DIHEDRAL>
0

>  <SCORE.SYSTEM.SOLV>
0

>  <SCORE.SYSTEM.norm>
0

>  <SCORE.heavy>
34

>  <SCORE.norm>
-0.392893

>  <RMSD>
10.034

$$$$
ligand
 OpenBabel11021811483D
libRbt.so/2013.1/901 2013/11/27
 34 36  0  0  0  0  0  0  0  0999 V2000
    7.9303   41.1224   70.9948 N   0  0  0  0  0  0  0  0  0  0  0  0
    8.5619   40.1033   70.1246 C   0  0  1  0  0  0  0  0  0  0  0  0
    6.9872   40.8462   71.9050 C   0  0  0  0  0  0  0  0  0  0  0  0
    6.5381   39.7168   72.1198 O   0  0  0  0  0  0  0  0  0  0  0  0
    0.3841   40.0405   76.1069 N   0  0  0  0  0  0  0  0  0  0  0  0
    9.4218   40.7949   69.0534 C   0  0  0  0  0  0  0  0  0  0  0  0
    8.5738   41.6897   68.1393 C   0  0  0  0  0  0  0  0  0  0  0  0
    8.2076   43.0088   68.8365 C   0  0  0  0  0  0  0  0  0  0  0  0
    7.0686   43.0854   69.3542 O   0  0  0  0  0  0  0  0  0  0  0  0
    9.0761   43.9113   68.8386 O   0  0  0  0  0  0  0  0  0  0  0  0
    0.7565   42.3179   76.2894 N   0  0  0  0  0  0  0  0  0  0  0  0
   10.4788   39.5520   71.4548 O   0  0  0  0  0  0  0  0  0  0  0  0
    1.2087   41.0538   76.3592 C   0  0  0  0  0  0  0  0  0  0  0  0
    9.0142   37.9287   70.9975 O   0  0  0  0  0  0  0  0  0  0  0  0
    2.5424   40.7889   76.6952 N   0  0  0  0  0  0  0  0  0  0  0  0
    3.3949   41.8543   76.9515 C   0  0  0  0  0  0  0  0  0  0  0  0
    2.9041   43.1484   76.8393 C   0  0  0  0  0  0  0  0  0  0  0  0
    4.5715   41.6476   77.2382 O   0  0  0  0  0  0  0  0  0  0  0  0
    4.6197   44.1237   78.1073 C   0  0  0  0  0  0  0  0  0  0  0  0
    3.7016   44.2434   77.1530 N   0  0  0  0  0  0  0  0  0  0  0  0
    4.2844   43.9534   79.2773 O   0  0  0  0  0  0  0  0  0  0  0  0
    3.3894   45.5558   76.5767 C   0  0  2  0  0  0  0  0  0  0  0  0
    1.9010   45.8441   76.7885 C   0  0  0  0  0  0  0  0  0  0  0  0
    1.5663   43.3593   76.5339 C   0  0  0  0  0  0  0  0  0  0  0  0
    1.0631   44.6631   76.4649 N   0  0  0  0  0  0  0  0  0  0  0  0
    3.7252   45.5791   75.0816 C   0  0  0  0  0  0  0  0  0  0  0  0
    5.1556   45.3083   74.8921 N   0  0  0  0  0  0  0  0  0  0  0  0
    6.5161   42.0584   72.7286 C   0  0  0  0  0  0  0  0  0  0  0  0
    6.5137   43.3349   72.1714 C   0  0  0  0  0  0  0  0  0  0  0  0
    6.0348   44.4225   72.8990 C   0  0  0  0  0  0  0  0  0  0  0  0
    5.5954   44.2529   74.2077 C   0  0  0  0  0  0  0  0  0  0  0  0
    5.6055   42.9803   74.7688 C   0  0  0  0  0  0  0  0  0  0  0  0
    6.0511   41.8858   74.0292 C   0  0  0  0  0  0  0  0  0  0  0  0
    9.4274   39.1121   70.9297 C   0  0  0  0  0  0  0  0  0  0  0  0
  1  3  1  0  0  0  0
  2  1  1  1  0  0  0
  2  6  1  0  0  0  0
  2 34  1  0  0  0  0
  3  4  2  0  0  0  0
  3 28  1  0  0  0  0
  5 13  1  0  0  0  0
  6  7  1  0  0  0  0
  7  8  1  0  0  0  0
  8  9  1  0  0  0  0
  8 10  1  0  0  0  0
 11 13  2  0  0  0  0
 11 24  1  0  0  0  0
 12 34  1  0  0  0  0
 13 15  1  0  0  0  0
 14 34  1  0  0  0  0
 15 16  1  0  0  0  0
 16 17  1  0  0  0  0
 16 18  2  0  0  0  0
 17 20  1  0  0  0  0
 17 24  2  0  0  0  0
 19 21  1  0  0  0  0
 19 20  1  0  0  0  0
 20 22  1  0  0  0  0
 22 23  1  0  0  0  0
 22 26  1  6  0  0  0
 23 25  1  0  0  0  0
 24 25  1  0  0  0  0
 26 27  1  0  0  0  0
 27 31  1  0  0  0  0
 28 29  2  0  0  0  0
 28 33  1  0  0  0  0
 29 30  1  0  0  0  0
 30 31  2  0  0  0  0
 31 32  1  0  0  0  0
 32 33  2  0  0  0  0
M  END
>  <CHROM.1>
170.77623075,-61.96195878,-68.34654968,76.89441896,-98.76674396,-66.67265600
-60.10497081,118.64086771,101.32487280,30.97217355,5.43031592,42.41885960
73.82307491,0.17856425,-0.86446573,3.03291052

>  <Name>
ligand

>  <RI>
0

>  <Rbt.Current_Directory>
/home/itssahil/PROJECTS/Mol_Feturizer/New_Systems/rnas/3SUH

>  <Rbt.Executable>
rbdock ($Id: //depot/dev/client3/rdock/2013.1/src/exe/rbdock.cxx#4 $)

>  <Rbt.Library>
libRbt.so (2013.1, Build901 2013/11/27)

>  <Rbt.Parameter_File>
/export/apps/rDock/src/rDock_2013.1_src/data/scripts/dock_solv.prm

>  <Rbt.Receptor>
prm/pocket_docking_8.prm

>  <SCORE>
-12.5662

>  <SCORE.INTER>
-7.31755

>  <SCORE.INTER.CONST>
1

>  <SCORE.INTER.POLAR>
0

>  <SCORE.INTER.ROT>
10

>  <SCORE.INTER.SOLV>
8.37111

>  <SCORE.INTER.VDW>
-17.9354

>  <SCORE.INTER.norm>
-0.215222

>  <SCORE.INTRA>
-5.24869

>  <SCORE.INTRA.DIHEDRAL>
-3.70029

>  <SCORE.INTRA.DIHEDRAL.0>
12.2703

>  <SCORE.INTRA.POLAR>
0

>  <SCORE.INTRA.POLAR.0>
0

>  <SCORE.INTRA.REPUL>
0

>  <SCORE.INTRA.REPUL.0>
0

>  <SCORE.INTRA.SOLV>
0.295089

>  <SCORE.INTRA.SOLV.lig_0>
-64.3214

>  <SCORE.INTRA.VDW>
-3.54609

>  <SCORE.INTRA.VDW.0>
-1.67301

>  <SCORE.INTRA.norm>
-0.154373

>  <SCORE.RESTR>
0

>  <SCORE.RESTR.CAVITY>
0

>  <SCORE.RESTR.norm>
0

>  <SCORE.SYSTEM>
0

>  <SCORE.SYSTEM.CONST>
0

>  <SCORE.SYSTEM.DIHEDRAL>
0

>  <SCORE.SYSTEM.SOLV>
0

>  <SCORE.SYSTEM.norm>
0

>  <SCORE.heavy>
34

>  <SCORE.norm>
-0.369595

>  <RMSD>
10.042

$$$$
ligand
 OpenBabel11021811483D
libRbt.so/2013.1/901 2013/11/27
 34 36  0  0  0  0  0  0  0  0999 V2000
    7.9009   42.7534   69.9668 N   0  0  0  0  0  0  0  0  0  0  0  0
    8.4390   43.5981   68.8751 C   0  0  1  0  0  0  0  0  0  0  0  0
    7.7801   41.4216   69.8901 C   0  0  0  0  0  0  0  0  0  0  0  0
    8.1003   40.7502   68.9053 O   0  0  0  0  0  0  0  0  0  0  0  0
    7.1825   42.9832   78.1101 N   0  0  0  0  0  0  0  0  0  0  0  0
    8.7467   45.0065   69.4108 C   0  0  0  0  0  0  0  0  0  0  0  0
    7.4686   45.7392   69.8406 C   0  0  0  0  0  0  0  0  0  0  0  0
    7.7766   47.1728   70.2992 C   0  0  0  0  0  0  0  0  0  0  0  0
    8.0669   48.0078   69.4106 O   0  0  0  0  0  0  0  0  0  0  0  0
    7.7125   47.4028   71.5287 O   0  0  0  0  0  0  0  0  0  0  0  0
    6.7159   40.7498   77.7194 N   0  0  0  0  0  0  0  0  0  0  0  0
   10.6919   42.7877   68.9994 O   0  0  0  0  0  0  0  0  0  0  0  0
    6.3295   42.0374   77.7249 C   0  0  0  0  0  0  0  0  0  0  0  0
    9.6660   42.7420   67.0159 O   0  0  0  0  0  0  0  0  0  0  0  0
    5.0353   42.3975   77.3286 N   0  0  0  0  0  0  0  0  0  0  0  0
    4.1554   41.4027   76.9240 C   0  0  0  0  0  0  0  0  0  0  0  0
    4.5965   40.0861   76.8995 C   0  0  0  0  0  0  0  0  0  0  0  0
    3.0183   41.6947   76.5622 O   0  0  0  0  0  0  0  0  0  0  0  0
    2.4439   39.1542   76.8858 C   0  0  0  0  0  0  0  0  0  0  0  0
    3.7307   39.0500   76.5677 N   0  0  0  0  0  0  0  0  0  0  0  0
    1.5774   39.0543   76.0200 O   0  0  0  0  0  0  0  0  0  0  0  0
    4.2748   37.7861   76.0591 C   0  0  2  0  0  0  0  0  0  0  0  0
    5.3993   37.3252   76.9900 C   0  0  0  0  0  0  0  0  0  0  0  0
    5.8788   39.7757   77.3316 C   0  0  0  0  0  0  0  0  0  0  0  0
    6.3064   38.4435   77.3481 N   0  0  0  0  0  0  0  0  0  0  0  0
    4.8083   37.9662   74.6338 C   0  0  0  0  0  0  0  0  0  0  0  0
    5.9045   38.9428   74.6362 N   0  0  0  0  0  0  0  0  0  0  0  0
    7.2439   40.7516   71.1682 C   0  0  0  0  0  0  0  0  0  0  0  0
    7.2630   39.3654   71.3020 C   0  0  0  0  0  0  0  0  0  0  0  0
    6.8289   38.7635   72.4814 C   0  0  0  0  0  0  0  0  0  0  0  0
    6.3291   39.5386   73.5224 C   0  0  0  0  0  0  0  0  0  0  0  0
    6.3010   40.9225   73.3870 C   0  0  0  0  0  0  0  0  0  0  0  0
    6.7682   41.5278   72.2212 C   0  0  0  0  0  0  0  0  0  0  0  0
    9.7090   42.9893   68.2458 C   0  0  0  0  0  0  0  0  0  0  0  0
  1  3  1  0  0  0  0
  2  1  1  1  0  0  0
  2  6  1  0  0  0  0
  2 34  1  0  0  0  0
  3  4  2  0  0  0  0
  3 28  1  0  0  0  0
  5 13  1  0  0  0  0
  6  7  1  0  0  0  0
  7  8  1  0  0  0  0
  8  9  1  0  0  0  0
  8 10  1  0  0  0  0
 11 13  2  0  0  0  0
 11 24  1  0  0  0  0
 12 34  1  0  0  0  0
 13 15  1  0  0  0  0
 14 34  1  0  0  0  0
 15 16  1  0  0  0  0
 16 17  1  0  0  0  0
 16 18  2  0  0  0  0
 17 20  1  0  0  0  0
 17 24  2  0  0  0  0
 19 21  1  0  0  0  0
 19 20  1  0  0  0  0
 20 22  1  0  0  0  0
 22 23  1  0  0  0  0
 22 26  1  6  0  0  0
 23 25  1  0  0  0  0
 24 25  1  0  0  0  0
 26 27  1  0  0  0  0
 27 31  1  0  0  0  0
 28 29  2  0  0  0  0
 28 33  1  0  0  0  0
 29 30  1  0  0  0  0
 30 31  2  0  0  0  0
 31 32  1  0  0  0  0
 32 33  2  0  0  0  0
M  END
>  <CHROM.1>
-166.59277334,-65.62705046,-59.00034659,-176.77933714,73.27938901,123.97434886
61.96067316,-162.92830632,-60.23243838,-170.03688352,6.47845760,41.54341194
73.30785506,-0.31205123,-1.11727068,-2.91993962

>  <Name>
ligand

>  <RI>
0

>  <Rbt.Current_Directory>
/home/itssahil/PROJECTS/Mol_Feturizer/New_Systems/rnas/3SUH

>  <Rbt.Executable>
rbdock ($Id: //depot/dev/client3/rdock/2013.1/src/exe/rbdock.cxx#4 $)

>  <Rbt.Library>
libRbt.so (2013.1, Build901 2013/11/27)

>  <Rbt.Parameter_File>
/export/apps/rDock/src/rDock_2013.1_src/data/scripts/dock_solv.prm

>  <Rbt.Receptor>
prm/pocket_docking_5.prm

>  <SCORE>
-9.9468

>  <SCORE.INTER>
-6.80876

>  <SCORE.INTER.CONST>
1

>  <SCORE.INTER.POLAR>
0

>  <SCORE.INTER.ROT>
10

>  <SCORE.INTER.SOLV>
9.18379

>  <SCORE.INTER.VDW>
-17.8671

>  <SCORE.INTER.norm>
-0.200258

>  <SCORE.INTRA>
-3.13803

>  <SCORE.INTRA.DIHEDRAL>
-5.26

>  <SCORE.INTRA.DIHEDRAL.0>
12.2703

>  <SCORE.INTRA.POLAR>
0

>  <SCORE.INTRA.POLAR.0>
0

>  <SCORE.INTRA.REPUL>
0

>  <SCORE.INTRA.REPUL.0>
0

>  <SCORE.INTRA.SOLV>
2.02969

>  <SCORE.INTRA.SOLV.lig_0>
-64.3214

>  <SCORE.INTRA.VDW>
-1.52288

>  <SCORE.INTRA.VDW.0>
-1.67301

>  <SCORE.INTRA.norm>
-0.0922951

>  <SCORE.RESTR>
0

>  <SCORE.RESTR.CAVITY>
0

>  <SCORE.RESTR.norm>
0

>  <SCORE.SYSTEM>
0

>  <SCORE.SYSTEM.CONST>
0

>  <SCORE.SYSTEM.DIHEDRAL>
0

>  <SCORE.SYSTEM.SOLV>
0

>  <SCORE.SYSTEM.norm>
0

>  <SCORE.heavy>
34

>  <SCORE.norm>
-0.292553

>  <RMSD>
10.046

$$$$
ligand
 OpenBabel11021811483D
libRbt.so/2013.1/901 2013/11/27
 34 36  0  0  0  0  0  0  0  0999 V2000
    8.6028   42.3171   69.6320 N   0  0  0  0  0  0  0  0  0  0  0  0
    9.0818   43.2812   68.6141 C   0  0  1  0  0  0  0  0  0  0  0  0
    8.2683   41.0489   69.3602 C   0  0  0  0  0  0  0  0  0  0  0  0
    8.3194   40.5422   68.2360 O   0  0  0  0  0  0  0  0  0  0  0  0
    8.0103   36.8501   81.5049 N   0  0  0  0  0  0  0  0  0  0  0  0
    9.3991   44.6291   69.2831 C   0  0  0  0  0  0  0  0  0  0  0  0
    8.1197   45.3757   69.6845 C   0  0  0  0  0  0  0  0  0  0  0  0
    7.3549   44.6190   70.7811 C   0  0  0  0  0  0  0  0  0  0  0  0
    6.5045   43.7769   70.4086 O   0  0  0  0  0  0  0  0  0  0  0  0
    7.6394   44.8975   71.9687 O   0  0  0  0  0  0  0  0  0  0  0  0
    7.4056   37.9884   79.5821 N   0  0  0  0  0  0  0  0  0  0  0  0
   11.1674   42.1021   68.5270 O   0  0  0  0  0  0  0  0  0  0  0  0
    8.3320   37.3423   80.3113 C   0  0  0  0  0  0  0  0  0  0  0  0
   10.4125   43.0434   66.6474 O   0  0  0  0  0  0  0  0  0  0  0  0
    9.6366   37.1797   79.8284 N   0  0  0  0  0  0  0  0  0  0  0  0
    9.9595   37.6931   78.5795 C   0  0  0  0  0  0  0  0  0  0  0  0
    8.9707   38.3268   77.8384 C   0  0  0  0  0  0  0  0  0  0  0  0
   11.0943   37.5542   78.1300 O   0  0  0  0  0  0  0  0  0  0  0  0
   10.4685   39.4469   76.4227 C   0  0  0  0  0  0  0  0  0  0  0  0
    9.2645   38.9161   76.6138 N   0  0  0  0  0  0  0  0  0  0  0  0
   11.0268   39.3499   75.3323 O   0  0  0  0  0  0  0  0  0  0  0  0
    8.1930   39.1216   75.6331 C   0  0  2  0  0  0  0  0  0  0  0  0
    7.0103   39.7972   76.3318 C   0  0  0  0  0  0  0  0  0  0  0  0
    7.7001   38.4907   78.3735 C   0  0  0  0  0  0  0  0  0  0  0  0
    6.7175   39.1686   77.6435 N   0  0  0  0  0  0  0  0  0  0  0  0
    7.7557   37.7834   75.0276 C   0  0  0  0  0  0  0  0  0  0  0  0
    6.8085   38.0227   73.9318 N   0  0  0  0  0  0  0  0  0  0  0  0
    7.8478   40.2196   70.5871 C   0  0  0  0  0  0  0  0  0  0  0  0
    8.3793   38.9498   70.7990 C   0  0  0  0  0  0  0  0  0  0  0  0
    8.0403   38.2232   71.9387 C   0  0  0  0  0  0  0  0  0  0  0  0
    7.1315   38.7398   72.8560 C   0  0  0  0  0  0  0  0  0  0  0  0
    6.5929   40.0040   72.6415 C   0  0  0  0  0  0  0  0  0  0  0  0
    6.9588   40.7465   71.5197 C   0  0  0  0  0  0  0  0  0  0  0  0
   10.3281   42.7620   67.8678 C   0  0  0  0  0  0  0  0  0  0  0  0
  1  3  1  0  0  0  0
  2  1  1  1  0  0  0
  2  6  1  0  0  0  0
  2 34  1  0  0  0  0
  3  4  2  0  0  0  0
  3 28  1  0  0  0  0
  5 13  1  0  0  0  0
  6  7  1  0  0  0  0
  7  8  1  0  0  0  0
  8  9  1  0  0  0  0
  8 10  1  0  0  0  0
 11 13  2  0  0  0  0
 11 24  1  0  0  0  0
 12 34  1  0  0  0  0
 13 15  1  0  0  0  0
 14 34  1  0  0  0  0
 15 16  1  0  0  0  0
 16 17  1  0  0  0  0
 16 18  2  0  0  0  0
 17 20  1  0  0  0  0
 17 24  2  0  0  0  0
 19 21  1  0  0  0  0
 19 20  1  0  0  0  0
 20 22  1  0  0  0  0
 22 23  1  0  0  0  0
 22 26  1  1  0  0  0
 23 25  1  0  0  0  0
 24 25  1  0  0  0  0
 26 27  1  0  0  0  0
 27 31  1  0  0  0  0
 28 29  2  0  0  0  0
 28 33  1  0  0  0  0
 29 30  1  0  0  0  0
 30 31  2  0  0  0  0
 31 32  1  0  0  0  0
 32 33  2  0  0  0  0
M  END
>  <CHROM.1>
-178.81711768,-72.90649152,-36.51902146,65.66162516,-89.70723869,142.48097034
-172.86615963,59.85282575,69.99817921,-132.15095433,8.53309029,40.30770453
73.55307392,-1.55064027,-0.87390878,2.07107414

>  <Name>
ligand

>  <RI>
0

>  <Rbt.Current_Directory>
/home/itssahil/PROJECTS/Mol_Feturizer/New_Systems/rnas/3SUH

>  <Rbt.Executable>
rbdock ($Id: //depot/dev/client3/rdock/2013.1/src/exe/rbdock.cxx#4 $)

>  <Rbt.Library>
libRbt.so (2013.1, Build901 2013/11/27)

>  <Rbt.Parameter_File>
/export/apps/rDock/src/rDock_2013.1_src/data/scripts/dock_solv.prm

>  <Rbt.Receptor>
prm/pocket_docking_8.prm

>  <SCORE>
-10.542

>  <SCORE.INTER>
-5.64532

>  <SCORE.INTER.CONST>
1

>  <SCORE.INTER.POLAR>
0

>  <SCORE.INTER.ROT>
10

>  <SCORE.INTER.SOLV>
5.68353

>  <SCORE.INTER.VDW>
-15.9247

>  <SCORE.INTER.norm>
-0.166039

>  <SCORE.INTRA>
-4.89673

>  <SCORE.INTRA.DIHEDRAL>
-5.07591

>  <SCORE.INTRA.DIHEDRAL.0>
12.2703

>  <SCORE.INTRA.POLAR>
0

>  <SCORE.INTRA.POLAR.0>
0

>  <SCORE.INTRA.REPUL>
0

>  <SCORE.INTRA.REPUL.0>
0

>  <SCORE.INTRA.SOLV>
-0.343405

>  <SCORE.INTRA.SOLV.lig_0>
-64.3214

>  <SCORE.INTRA.VDW>
-2.18707

>  <SCORE.INTRA.VDW.0>
-1.67301

>  <SCORE.INTRA.norm>
-0.144021

>  <SCORE.RESTR>
0

>  <SCORE.RESTR.CAVITY>
0

>  <SCORE.RESTR.norm>
0

>  <SCORE.SYSTEM>
0

>  <SCORE.SYSTEM.CONST>
0

>  <SCORE.SYSTEM.DIHEDRAL>
0

>  <SCORE.SYSTEM.SOLV>
0

>  <SCORE.SYSTEM.norm>
0

>  <SCORE.heavy>
34

>  <SCORE.norm>
-0.31006

>  <RMSD>
10.078

$$$$
ligand
 OpenBabel11021811483D
libRbt.so/2013.1/901 2013/11/27
 34 36  0  0  0  0  0  0  0  0999 V2000
    8.2702   42.6820   70.0275 N   0  0  0  0  0  0  0  0  0  0  0  0
    8.9738   42.4922   68.7377 C   0  0  1  0  0  0  0  0  0  0  0  0
    7.4935   43.7371   70.3062 C   0  0  0  0  0  0  0  0  0  0  0  0
    7.2781   44.6674   69.5244 O   0  0  0  0  0  0  0  0  0  0  0  0
    9.8512   39.0956   79.1879 N   0  0  0  0  0  0  0  0  0  0  0  0
   10.4861   42.6894   68.9361 C   0  0  0  0  0  0  0  0  0  0  0  0
   10.8153   44.1203   69.3828 C   0  0  0  0  0  0  0  0  0  0  0  0
   12.3329   44.3348   69.4882 C   0  0  0  0  0  0  0  0  0  0  0  0
   12.9840   44.3528   68.4172 O   0  0  0  0  0  0  0  0  0  0  0  0
   12.8086   44.4788   70.6379 O   0  0  0  0  0  0  0  0  0  0  0  0
    7.8655   39.7409   78.1884 N   0  0  0  0  0  0  0  0  0  0  0  0
    7.5105   40.7893   67.8972 O   0  0  0  0  0  0  0  0  0  0  0  0
    8.8130   39.9254   79.1242 C   0  0  0  0  0  0  0  0  0  0  0  0
    9.7048   40.3730   67.9191 O   0  0  0  0  0  0  0  0  0  0  0  0
    8.7209   40.9843   80.0363 N   0  0  0  0  0  0  0  0  0  0  0  0
    7.6357   41.8466   79.9571 C   0  0  0  0  0  0  0  0  0  0  0  0
    6.6915   41.6470   78.9586 C   0  0  0  0  0  0  0  0  0  0  0  0
    7.5381   42.7887   80.7395 O   0  0  0  0  0  0  0  0  0  0  0  0
    5.0218   42.9198   80.0047 C   0  0  0  0  0  0  0  0  0  0  0  0
    5.5539   42.4429   78.8834 N   0  0  0  0  0  0  0  0  0  0  0  0
    5.0025   44.1295   80.2205 O   0  0  0  0  0  0  0  0  0  0  0  0
    4.8479   42.5786   77.6046 C   0  0  2  0  0  0  0  0  0  0  0  0
    4.6176   41.1827   77.0199 C   0  0  0  0  0  0  0  0  0  0  0  0
    6.8103   40.5645   78.0975 C   0  0  0  0  0  0  0  0  0  0  0  0
    5.8344   40.3395   77.1203 N   0  0  0  0  0  0  0  0  0  0  0  0
    5.6643   43.4329   76.6288 C   0  0  0  0  0  0  0  0  0  0  0  0
    4.9308   43.5774   75.3654 N   0  0  0  0  0  0  0  0  0  0  0  0
    6.8242   43.6925   71.6918 C   0  0  0  0  0  0  0  0  0  0  0  0
    6.3716   44.8624   72.2971 C   0  0  0  0  0  0  0  0  0  0  0  0
    5.7162   44.8141   73.5259 C   0  0  0  0  0  0  0  0  0  0  0  0
    5.5465   43.6005   74.1838 C   0  0  0  0  0  0  0  0  0  0  0  0
    6.0058   42.4323   73.5849 C   0  0  0  0  0  0  0  0  0  0  0  0
    6.6300   42.4755   72.3390 C   0  0  0  0  0  0  0  0  0  0  0  0
    8.7035   41.0996   68.1314 C   0  0  0  0  0  0  0  0  0  0  0  0
  1  3  1  0  0  0  0
  2  1  1  1  0  0  0
  2  6  1  0  0  0  0
  2 34  1  0  0  0  0
  3  4  2  0  0  0  0
  3 28  1  0  0  0  0
  5 13  1  0  0  0  0
  6  7  1  0  0  0  0
  7  8  1  0  0  0  0
  8  9  1  0  0  0  0
  8 10  1  0  0  0  0
 11 13  2  0  0  0  0
 11 24  1  0  0  0  0
 12 34  1  0  0  0  0
 13 15  1  0  0  0  0
 14 34  1  0  0  0  0
 15 16  1  0  0  0  0
 16 17  1  0  0  0  0
 16 18  2  0  0  0  0
 17 20  1  0  0  0  0
 17 24  2  0  0  0  0
 19 21  1  0  0  0  0
 19 20  1  0  0  0  0
 20 22  1  0  0  0  0
 22 23  1  0  0  0  0
 22 26  1  6  0  0  0
 23 25  1  0  0  0  0
 24 25  1  0  0  0  0
 26 27  1  0  0  0  0
 27 31  1  0  0  0  0
 28 29  2  0  0  0  0
 28 33  1  0  0  0  0
 29 30  1  0  0  0  0
 30 31  2  0  0  0  0
 31 32  1  0  0  0  0
 32 33  2  0  0  0  0
M  END
>  <CHROM.1>
108.95634886,-63.12905235,58.37967703,-176.22587438,69.59412046,115.13191947
-178.96355525,-143.58050512,-103.33042918,158.56380948,7.70239095,42.50325985
74.19783805,1.24537239,0.29469177,-1.35313034

>  <Name>
ligand

>  <RI>
0

>  <Rbt.Current_Directory>
/home/itssahil/PROJECTS/Mol_Feturizer/New_Systems/rnas/3SUH

>  <Rbt.Executable>
rbdock ($Id: //depot/dev/client3/rdock/2013.1/src/exe/rbdock.cxx#4 $)

>  <Rbt.Library>
libRbt.so (2013.1, Build901 2013/11/27)

>  <Rbt.Parameter_File>
/export/apps/rDock/src/rDock_2013.1_src/data/scripts/dock_solv.prm

>  <Rbt.Receptor>
prm/pocket_docking_6.prm

>  <SCORE>
-6.61743

>  <SCORE.INTER>
-4.30148

>  <SCORE.INTER.CONST>
1

>  <SCORE.INTER.POLAR>
0

>  <SCORE.INTER.ROT>
10

>  <SCORE.INTER.SOLV>
6.31165

>  <SCORE.INTER.VDW>
-15.2382

>  <SCORE.INTER.norm>
-0.126514

>  <SCORE.INTRA>
-2.31596

>  <SCORE.INTRA.DIHEDRAL>
-3.78476

>  <SCORE.INTRA.DIHEDRAL.0>
12.2703

>  <SCORE.INTRA.POLAR>
0

>  <SCORE.INTRA.POLAR.0>
0

>  <SCORE.INTRA.REPUL>
0

>  <SCORE.INTRA.REPUL.0>
0

>  <SCORE.INTRA.SOLV>
-0.574615

>  <SCORE.INTRA.SOLV.lig_0>
-64.3214

>  <SCORE.INTRA.VDW>
-0.136271

>  <SCORE.INTRA.VDW.0>
-1.67301

>  <SCORE.INTRA.norm>
-0.0681164

>  <SCORE.RESTR>
0

>  <SCORE.RESTR.CAVITY>
0

>  <SCORE.RESTR.norm>
0

>  <SCORE.SYSTEM>
0

>  <SCORE.SYSTEM.CONST>
0

>  <SCORE.SYSTEM.DIHEDRAL>
0

>  <SCORE.SYSTEM.SOLV>
0

>  <SCORE.SYSTEM.norm>
0

>  <SCORE.heavy>
34

>  <SCORE.norm>
-0.19463

>  <RMSD>
10.090

$$$$
ligand
 OpenBabel11021811483D
libRbt.so/2013.1/901 2013/11/27
 34 36  0  0  0  0  0  0  0  0999 V2000
    9.2205   42.6043   69.3846 N   0  0  0  0  0  0  0  0  0  0  0  0
    9.8437   43.3875   68.2924 C   0  0  1  0  0  0  0  0  0  0  0  0
    8.2177   41.7352   69.2021 C   0  0  0  0  0  0  0  0  0  0  0  0
    7.7004   41.4905   68.1087 O   0  0  0  0  0  0  0  0  0  0  0  0
    7.0768   43.9843   79.0565 N   0  0  0  0  0  0  0  0  0  0  0  0
   10.8778   44.3641   68.8773 C   0  0  0  0  0  0  0  0  0  0  0  0
   11.9989   43.6229   69.6182 C   0  0  0  0  0  0  0  0  0  0  0  0
   12.9629   44.6079   70.2971 C   0  0  0  0  0  0  0  0  0  0  0  0
   13.2668   44.3796   71.4915 O   0  0  0  0  0  0  0  0  0  0  0  0
   13.3770   45.5665   69.6055 O   0  0  0  0  0  0  0  0  0  0  0  0
    7.3756   41.7454   78.5504 N   0  0  0  0  0  0  0  0  0  0  0  0
   10.5197   41.2440   67.4580 O   0  0  0  0  0  0  0  0  0  0  0  0
    6.6692   42.8830   78.4310 C   0  0  0  0  0  0  0  0  0  0  0  0
   11.0204   43.0505   66.2437 O   0  0  0  0  0  0  0  0  0  0  0  0
    5.5051   42.9237   77.6533 N   0  0  0  0  0  0  0  0  0  0  0  0
    5.0921   41.7697   77.0012 C   0  0  0  0  0  0  0  0  0  0  0  0
    5.8621   40.6201   77.1195 C   0  0  0  0  0  0  0  0  0  0  0  0
    4.0800   41.7831   76.3051 O   0  0  0  0  0  0  0  0  0  0  0  0
    4.1513   39.1632   76.4464 C   0  0  0  0  0  0  0  0  0  0  0  0
    5.4516   39.4241   76.5411 N   0  0  0  0  0  0  0  0  0  0  0  0
    3.5045   38.8476   77.4425 O   0  0  0  0  0  0  0  0  0  0  0  0
    6.4457   38.3909   76.2305 C   0  0  2  0  0  0  0  0  0  0  0  0
    7.3228   38.1660   77.4648 C   0  0  0  0  0  0  0  0  0  0  0  0
    6.9912   40.6211   77.9273 C   0  0  0  0  0  0  0  0  0  0  0  0
    7.7409   39.4496   78.0805 N   0  0  0  0  0  0  0  0  0  0  0  0
    7.3091   38.8178   75.0386 C   0  0  0  0  0  0  0  0  0  0  0  0
    6.4600   39.0079   73.8562 N   0  0  0  0  0  0  0  0  0  0  0  0
    7.7671   40.9990   70.4768 C   0  0  0  0  0  0  0  0  0  0  0  0
    7.0235   41.6609   71.4509 C   0  0  0  0  0  0  0  0  0  0  0  0
    6.5689   40.9785   72.5776 C   0  0  0  0  0  0  0  0  0  0  0  0
    6.8913   39.6385   72.7643 C   0  0  0  0  0  0  0  0  0  0  0  0
    7.6413   38.9784   71.7969 C   0  0  0  0  0  0  0  0  0  0  0  0
    8.0663   39.6509   70.6521 C   0  0  0  0  0  0  0  0  0  0  0  0
   10.5174   42.4801   67.2423 C   0  0  0  0  0  0  0  0  0  0  0  0
  1  3  1  0  0  0  0
  2  1  1  1  0  0  0
  2  6  1  0  0  0  0
  2 34  1  0  0  0  0
  3  4  2  0  0  0  0
  3 28  1  0  0  0  0
  5 13  1  0  0  0  0
  6  7  1  0  0  0  0
  7  8  1  0  0  0  0
  8  9  1  0  0  0  0
  8 10  1  0  0  0  0
 11 13  2  0  0  0  0
 11 24  1  0  0  0  0
 12 34  1  0  0  0  0
 13 15  1  0  0  0  0
 14 34  1  0  0  0  0
 15 16  1  0  0  0  0
 16 17  1  0  0  0  0
 16 18  2  0  0  0  0
 17 20  1  0  0  0  0
 17 24  2  0  0  0  0
 19 21  1  0  0  0  0
 19 20  1  0  0  0  0
 20 22  1  0  0  0  0
 22 23  1  0  0  0  0
 22 26  1  6  0  0  0
 23 25  1  0  0  0  0
 24 25  1  0  0  0  0
 26 27  1  0  0  0  0
 27 31  1  0  0  0  0
 28 29  2  0  0  0  0
 28 33  1  0  0  0  0
 29 30  1  0  0  0  0
 30 31  2  0  0  0  0
 31 32  1  0  0  0  0
 32 33  2  0  0  0  0
M  END
>  <CHROM.1>
175.33673717,60.68513346,-3.39282877,-175.30981100,132.45724984,-73.95432445
-60.78509174,165.75953260,-98.17678557,74.01046035,8.00289607,41.45038389
73.15283839,0.81117694,-0.78243202,-1.85359635

>  <Name>
ligand

>  <RI>
0

>  <Rbt.Current_Directory>
/home/itssahil/PROJECTS/Mol_Feturizer/New_Systems/rnas/3SUH

>  <Rbt.Executable>
rbdock ($Id: //depot/dev/client3/rdock/2013.1/src/exe/rbdock.cxx#4 $)

>  <Rbt.Library>
libRbt.so (2013.1, Build901 2013/11/27)

>  <Rbt.Parameter_File>
/export/apps/rDock/src/rDock_2013.1_src/data/scripts/dock_solv.prm

>  <Rbt.Receptor>
prm/pocket_docking_4.prm

>  <SCORE>
-13.6878

>  <SCORE.INTER>
-9.16836

>  <SCORE.INTER.CONST>
1

>  <SCORE.INTER.POLAR>
0

>  <SCORE.INTER.ROT>
10

>  <SCORE.INTER.SOLV>
7.87026

>  <SCORE.INTER.VDW>
-19.0023

>  <SCORE.INTER.norm>
-0.269658

>  <SCORE.INTRA>
-4.51941

>  <SCORE.INTRA.DIHEDRAL>
-5.77448

>  <SCORE.INTRA.DIHEDRAL.0>
12.2703

>  <SCORE.INTRA.POLAR>
0

>  <SCORE.INTRA.POLAR.0>
0

>  <SCORE.INTRA.REPUL>
0

>  <SCORE.INTRA.REPUL.0>
0

>  <SCORE.INTRA.SOLV>
-0.423044

>  <SCORE.INTRA.SOLV.lig_0>
-64.3214

>  <SCORE.INTRA.VDW>
-1.42064

>  <SCORE.INTRA.VDW.0>
-1.67301

>  <SCORE.INTRA.norm>
-0.132924

>  <SCORE.RESTR>
0

>  <SCORE.RESTR.CAVITY>
0

>  <SCORE.RESTR.norm>
0

>  <SCORE.SYSTEM>
0

>  <SCORE.SYSTEM.CONST>
0

>  <SCORE.SYSTEM.DIHEDRAL>
0

>  <SCORE.SYSTEM.SOLV>
0

>  <SCORE.SYSTEM.norm>
0

>  <SCORE.heavy>
34

>  <SCORE.norm>
-0.402581

>  <RMSD>
10.163

$$$$
ligand
 OpenBabel11021811483D
libRbt.so/2013.1/901 2013/11/27
 34 36  0  0  0  0  0  0  0  0999 V2000
    9.4222   42.5324   69.1661 N   0  0  0  0  0  0  0  0  0  0  0  0
   10.0135   43.4422   68.1574 C   0  0  1  0  0  0  0  0  0  0  0  0
    8.3960   41.7081   68.9178 C   0  0  0  0  0  0  0  0  0  0  0  0
    7.8280   41.6145   67.8261 O   0  0  0  0  0  0  0  0  0  0  0  0
    7.1783   37.2030   81.0302 N   0  0  0  0  0  0  0  0  0  0  0  0
   11.1498   44.2584   68.7959 C   0  0  0  0  0  0  0  0  0  0  0  0
   12.3506   43.3718   69.1530 C   0  0  0  0  0  0  0  0  0  0  0  0
   11.9585   42.2860   70.1666 C   0  0  0  0  0  0  0  0  0  0  0  0
   11.7767   42.6491   71.3524 O   0  0  0  0  0  0  0  0  0  0  0  0
   11.8464   41.1165   69.7326 O   0  0  0  0  0  0  0  0  0  0  0  0
    6.4261   38.0800   79.0243 N   0  0  0  0  0  0  0  0  0  0  0  0
   10.9728   43.3514   65.9622 O   0  0  0  0  0  0  0  0  0  0  0  0
    7.4045   37.9198   79.9323 C   0  0  0  0  0  0  0  0  0  0  0  0
   10.5114   41.4220   66.9885 O   0  0  0  0  0  0  0  0  0  0  0  0
    8.6641   38.5000   79.7362 N   0  0  0  0  0  0  0  0  0  0  0  0
    8.8902   39.2417   78.5846 C   0  0  0  0  0  0  0  0  0  0  0  0
    7.8684   39.3608   77.6518 C   0  0  0  0  0  0  0  0  0  0  0  0
    9.9899   39.7518   78.3853 O   0  0  0  0  0  0  0  0  0  0  0  0
    8.7877   41.2375   76.5864 C   0  0  0  0  0  0  0  0  0  0  0  0
    8.0263   40.1497   76.5177 N   0  0  0  0  0  0  0  0  0  0  0  0
    9.5196   41.5466   75.6488 O   0  0  0  0  0  0  0  0  0  0  0  0
    7.2021   39.8880   75.3327 C   0  0  2  0  0  0  0  0  0  0  0  0
    5.7376   39.7836   75.7660 C   0  0  0  0  0  0  0  0  0  0  0  0
    6.6271   38.7933   77.9059 C   0  0  0  0  0  0  0  0  0  0  0  0
    5.5854   38.9520   76.9853 N   0  0  0  0  0  0  0  0  0  0  0  0
    7.6447   38.5909   74.6469 C   0  0  0  0  0  0  0  0  0  0  0  0
    6.9712   38.4637   73.3486 N   0  0  0  0  0  0  0  0  0  0  0  0
    7.9858   40.8189   70.1056 C   0  0  0  0  0  0  0  0  0  0  0  0
    8.5720   39.5690   70.2897 C   0  0  0  0  0  0  0  0  0  0  0  0
    8.2404   38.7891   71.3958 C   0  0  0  0  0  0  0  0  0  0  0  0
    7.2857   39.2311   72.3056 C   0  0  0  0  0  0  0  0  0  0  0  0
    6.6927   40.4752   72.1185 C   0  0  0  0  0  0  0  0  0  0  0  0
    7.0500   41.2716   71.0314 C   0  0  0  0  0  0  0  0  0  0  0  0
   10.5468   42.6754   66.9297 C   0  0  0  0  0  0  0  0  0  0  0  0
  1  3  1  0  0  0  0
  2  1  1  1  0  0  0
  2  6  1  0  0  0  0
  2 34  1  0  0  0  0
  3  4  2  0  0  0  0
  3 28  1  0  0  0  0
  5 13  1  0  0  0  0
  6  7  1  0  0  0  0
  7  8  1  0  0  0  0
  8  9  1  0  0  0  0
  8 10  1  0  0  0  0
 11 13  2  0  0  0  0
 11 24  1  0  0  0  0
 12 34  1  0  0  0  0
 13 15  1  0  0  0  0
 14 34  1  0  0  0  0
 15 16  1  0  0  0  0
 16 17  1  0  0  0  0
 16 18  2  0  0  0  0
 17 20  1  0  0  0  0
 17 24  2  0  0  0  0
 19 21  1  0  0  0  0
 19 20  1  0  0  0  0
 20 22  1  0  0  0  0
 22 23  1  0  0  0  0
 22 26  1  1  0  0  0
 23 25  1  0  0  0  0
 24 25  1  0  0  0  0
 26 27  1  0  0  0  0
 27 31  1  0  0  0  0
 28 29  2  0  0  0  0
 28 33  1  0  0  0  0
 29 30  1  0  0  0  0
 30 31  2  0  0  0  0
 31 32  1  0  0  0  0
 32 33  2  0  0  0  0
M  END
>  <CHROM.1>
178.84556606,68.16882802,174.40582883,-60.77961548,-74.18996025,141.06844464
-170.40479854,71.79529269,92.25264563,-89.53280688,8.75381985,40.57998957
73.11339597,1.27782284,-0.49922928,-1.36893108

>  <Name>
ligand

>  <RI>
0

>  <Rbt.Current_Directory>
/home/itssahil/PROJECTS/Mol_Feturizer/New_Systems/rnas/3SUH

>  <Rbt.Executable>
rbdock ($Id: //depot/dev/client3/rdock/2013.1/src/exe/rbdock.cxx#4 $)

>  <Rbt.Library>
libRbt.so (2013.1, Build901 2013/11/27)

>  <Rbt.Parameter_File>
/export/apps/rDock/src/rDock_2013.1_src/data/scripts/dock_solv.prm

>  <Rbt.Receptor>
prm/pocket_docking_5.prm

>  <SCORE>
-13.8367

>  <SCORE.INTER>
-9.00921

>  <SCORE.INTER.CONST>
1

>  <SCORE.INTER.POLAR>
0

>  <SCORE.INTER.ROT>
10

>  <SCORE.INTER.SOLV>
6.38278

>  <SCORE.INTER.VDW>
-18.4004

>  <SCORE.INTER.norm>
-0.264977

>  <SCORE.INTRA>
-4.82746

>  <SCORE.INTRA.DIHEDRAL>
-5.47733

>  <SCORE.INTRA.DIHEDRAL.0>
12.2703

>  <SCORE.INTRA.POLAR>
0

>  <SCORE.INTRA.POLAR.0>
0

>  <SCORE.INTRA.REPUL>
0

>  <SCORE.INTRA.REPUL.0>
0

>  <SCORE.INTRA.SOLV>
-0.320326

>  <SCORE.INTRA.SOLV.lig_0>
-64.3214

>  <SCORE.INTRA.VDW>
-1.92863

>  <SCORE.INTRA.VDW.0>
-1.67301

>  <SCORE.INTRA.norm>
-0.141984

>  <SCORE.RESTR>
0

>  <SCORE.RESTR.CAVITY>
0

>  <SCORE.RESTR.norm>
0

>  <SCORE.SYSTEM>
0

>  <SCORE.SYSTEM.CONST>
0

>  <SCORE.SYSTEM.DIHEDRAL>
0

>  <SCORE.SYSTEM.SOLV>
0

>  <SCORE.SYSTEM.norm>
0

>  <SCORE.heavy>
34

>  <SCORE.norm>
-0.406961

>  <RMSD>
10.209

$$$$
ligand
 OpenBabel11021811483D
libRbt.so/2013.1/901 2013/11/27
 34 36  0  0  0  0  0  0  0  0999 V2000
    8.5001   42.6262   69.7374 N   0  0  0  0  0  0  0  0  0  0  0  0
    9.2305   42.3373   68.4813 C   0  0  1  0  0  0  0  0  0  0  0  0
    7.5760   41.8143   70.2675 C   0  0  0  0  0  0  0  0  0  0  0  0
    7.2284   40.7392   69.7712 O   0  0  0  0  0  0  0  0  0  0  0  0
    8.9627   40.4581   78.0164 N   0  0  0  0  0  0  0  0  0  0  0  0
   10.3624   43.3608   68.2907 C   0  0  0  0  0  0  0  0  0  0  0  0
   11.0761   43.1698   66.9455 C   0  0  0  0  0  0  0  0  0  0  0  0
   12.2991   44.0923   66.8287 C   0  0  0  0  0  0  0  0  0  0  0  0
   12.5319   44.5940   65.7039 O   0  0  0  0  0  0  0  0  0  0  0  0
   12.9731   44.2777   67.8680 O   0  0  0  0  0  0  0  0  0  0  0  0
    6.7683   40.8601   77.3990 N   0  0  0  0  0  0  0  0  0  0  0  0
    9.9075   40.3079   69.5636 O   0  0  0  0  0  0  0  0  0  0  0  0
    7.9119   41.2731   77.9726 C   0  0  0  0  0  0  0  0  0  0  0  0
   10.1480   40.4484   67.3475 O   0  0  0  0  0  0  0  0  0  0  0  0
    8.0116   42.5556   78.5266 N   0  0  0  0  0  0  0  0  0  0  0  0
    6.9103   43.3991   78.4706 C   0  0  0  0  0  0  0  0  0  0  0  0
    5.7548   42.9531   77.8426 C   0  0  0  0  0  0  0  0  0  0  0  0
    6.9766   44.5322   78.9405 O   0  0  0  0  0  0  0  0  0  0  0  0
    4.3535   44.5415   78.8504 C   0  0  0  0  0  0  0  0  0  0  0  0
    4.6060   43.7363   77.8229 N   0  0  0  0  0  0  0  0  0  0  0  0
    4.2736   44.0908   79.9909 O   0  0  0  0  0  0  0  0  0  0  0  0
    3.5989   43.5190   76.7786 C   0  0  2  0  0  0  0  0  0  0  0  0
    3.2812   42.0233   76.7059 C   0  0  0  0  0  0  0  0  0  0  0  0
    5.6944   41.6619   77.3361 C   0  0  0  0  0  0  0  0  0  0  0  0
    4.5145   41.1992   76.7432 N   0  0  0  0  0  0  0  0  0  0  0  0
    4.1144   44.0168   75.4240 C   0  0  0  0  0  0  0  0  0  0  0  0
    5.5093   43.5969   75.2414 N   0  0  0  0  0  0  0  0  0  0  0  0
    6.9885   42.2985   71.6055 C   0  0  0  0  0  0  0  0  0  0  0  0
    6.7292   41.3948   72.6330 C   0  0  0  0  0  0  0  0  0  0  0  0
    6.2499   41.8416   73.8628 C   0  0  0  0  0  0  0  0  0  0  0  0
    5.9820   43.1916   74.0632 C   0  0  0  0  0  0  0  0  0  0  0  0
    6.2319   44.0944   73.0352 C   0  0  0  0  0  0  0  0  0  0  0  0
    6.7451   43.6528   71.8165 C   0  0  0  0  0  0  0  0  0  0  0  0
    9.8104   40.9078   68.4657 C   0  0  0  0  0  0  0  0  0  0  0  0
  1  3  1  0  0  0  0
  2  1  1  1  0  0  0
  2  6  1  0  0  0  0
  2 34  1  0  0  0  0
  3  4  2  0  0  0  0
  3 28  1  0  0  0  0
  5 13  1  0  0  0  0
  6  7  1  0  0  0  0
  7  8  1  0  0  0  0
  8  9  1  0  0  0  0
  8 10  1  0  0  0  0
 11 13  2  0  0  0  0
 11 24  1  0  0  0  0
 12 34  1  0  0  0  0
 13 15  1  0  0  0  0
 14 34  1  0  0  0  0
 15 16  1  0  0  0  0
 16 17  1  0  0  0  0
 16 18  2  0  0  0  0
 17 20  1  0  0  0  0
 17 24  2  0  0  0  0
 19 21  1  0  0  0  0
 19 20  1  0  0  0  0
 20 22  1  0  0  0  0
 22 23  1  0  0  0  0
 22 26  1  6  0  0  0
 23 25  1  0  0  0  0
 24 25  1  0  0  0  0
 26 27  1  0  0  0  0
 27 31  1  0  0  0  0
 28 29  2  0  0  0  0
 28 33  1  0  0  0  0
 29 30  1  0  0  0  0
 30 31  2  0  0  0  0
 31 32  1  0  0  0  0
 32 33  2  0  0  0  0
M  END
>  <CHROM.1>
-171.02427261,-175.42943352,-17.43898724,-173.81479580,-142.48533900,-56.70344776
43.54750955,141.40700709,-107.08425192,-140.25416749,7.46890234,42.64279960
73.42353030,1.08668697,-0.18068226,-1.69283534

>  <Name>
ligand

>  <RI>
0

>  <Rbt.Current_Directory>
/home/itssahil/PROJECTS/Mol_Feturizer/New_Systems/rnas/3SUH

>  <Rbt.Executable>
rbdock ($Id: //depot/dev/client3/rdock/2013.1/src/exe/rbdock.cxx#4 $)

>  <Rbt.Library>
libRbt.so (2013.1, Build901 2013/11/27)

>  <Rbt.Parameter_File>
/export/apps/rDock/src/rDock_2013.1_src/data/scripts/dock_solv.prm

>  <Rbt.Receptor>
prm/pocket_docking_4.prm

>  <SCORE>
-11.4793

>  <SCORE.INTER>
-9.789

>  <SCORE.INTER.CONST>
1

>  <SCORE.INTER.POLAR>
0

>  <SCORE.INTER.ROT>
10

>  <SCORE.INTER.SOLV>
9.66344

>  <SCORE.INTER.VDW>
-20.0138

>  <SCORE.INTER.norm>
-0.287912

>  <SCORE.INTRA>
-1.69033

>  <SCORE.INTRA.DIHEDRAL>
-3.71968

>  <SCORE.INTRA.DIHEDRAL.0>
12.2703

>  <SCORE.INTRA.POLAR>
0

>  <SCORE.INTRA.POLAR.0>
0

>  <SCORE.INTRA.REPUL>
0

>  <SCORE.INTRA.REPUL.0>
0

>  <SCORE.INTRA.SOLV>
2.26001

>  <SCORE.INTRA.SOLV.lig_0>
-64.3214

>  <SCORE.INTRA.VDW>
-0.960495

>  <SCORE.INTRA.VDW.0>
-1.67301

>  <SCORE.INTRA.norm>
-0.0497157

>  <SCORE.RESTR>
0

>  <SCORE.RESTR.CAVITY>
0

>  <SCORE.RESTR.norm>
0

>  <SCORE.SYSTEM>
0

>  <SCORE.SYSTEM.CONST>
0

>  <SCORE.SYSTEM.DIHEDRAL>
0

>  <SCORE.SYSTEM.SOLV>
0

>  <SCORE.SYSTEM.norm>
0

>  <SCORE.heavy>
34

>  <SCORE.norm>
-0.337627

>  <RMSD>
10.226

$$$$
ligand
 OpenBabel11021811483D
libRbt.so/2013.1/901 2013/11/27
 34 36  0  0  0  0  0  0  0  0999 V2000
    9.1619   42.3930   69.3041 N   0  0  0  0  0  0  0  0  0  0  0  0
    9.6890   43.2844   68.2448 C   0  0  1  0  0  0  0  0  0  0  0  0
    8.2124   41.4706   69.0997 C   0  0  0  0  0  0  0  0  0  0  0  0
    7.6701   41.2607   68.0111 O   0  0  0  0  0  0  0  0  0  0  0  0
    7.4755   36.9579   80.7025 N   0  0  0  0  0  0  0  0  0  0  0  0
   10.6268   44.3330   68.8664 C   0  0  0  0  0  0  0  0  0  0  0  0
    9.9320   45.1186   69.9868 C   0  0  0  0  0  0  0  0  0  0  0  0
    8.6445   45.7874   69.4816 C   0  0  0  0  0  0  0  0  0  0  0  0
    7.6400   45.0532   69.3301 O   0  0  0  0  0  0  0  0  0  0  0  0
    8.6924   47.0192   69.2602 O   0  0  0  0  0  0  0  0  0  0  0  0
    6.3106   38.1741   79.1143 N   0  0  0  0  0  0  0  0  0  0  0  0
   10.4994   41.2513   67.2663 O   0  0  0  0  0  0  0  0  0  0  0  0
    7.4672   37.6697   79.5783 C   0  0  0  0  0  0  0  0  0  0  0  0
   10.9355   43.1719   66.2127 O   0  0  0  0  0  0  0  0  0  0  0  0
    8.6682   37.8846   78.8906 N   0  0  0  0  0  0  0  0  0  0  0  0
    8.6465   38.6247   77.7161 C   0  0  0  0  0  0  0  0  0  0  0  0
    7.4305   39.1041   77.2474 C   0  0  0  0  0  0  0  0  0  0  0  0
    9.6854   38.8180   77.0896 O   0  0  0  0  0  0  0  0  0  0  0  0
    8.3818   40.7261   75.8451 C   0  0  0  0  0  0  0  0  0  0  0  0
    7.3695   39.9071   76.1139 N   0  0  0  0  0  0  0  0  0  0  0  0
    8.7982   40.8464   74.6951 O   0  0  0  0  0  0  0  0  0  0  0  0
    6.1199   39.9876   75.3495 C   0  0  2  0  0  0  0  0  0  0  0  0
    4.9680   40.2656   76.3186 C   0  0  0  0  0  0  0  0  0  0  0  0
    6.2713   38.8914   77.9812 C   0  0  0  0  0  0  0  0  0  0  0  0
    5.0539   39.4132   77.5300 N   0  0  0  0  0  0  0  0  0  0  0  0
    5.8693   38.6796   74.5913 C   0  0  0  0  0  0  0  0  0  0  0  0
    7.0087   38.3925   73.7111 N   0  0  0  0  0  0  0  0  0  0  0  0
    7.8613   40.6263   70.3381 C   0  0  0  0  0  0  0  0  0  0  0  0
    8.4473   39.3779   70.5329 C   0  0  0  0  0  0  0  0  0  0  0  0
    8.1711   38.6393   71.6818 C   0  0  0  0  0  0  0  0  0  0  0  0
    7.2712   39.1210   72.6265 C   0  0  0  0  0  0  0  0  0  0  0  0
    6.6783   40.3635   72.4293 C   0  0  0  0  0  0  0  0  0  0  0  0
    6.9813   41.1191   71.2975 C   0  0  0  0  0  0  0  0  0  0  0  0
   10.4372   42.4990   67.1479 C   0  0  0  0  0  0  0  0  0  0  0  0
  1  3  1  0  0  0  0
  2  1  1  1  0  0  0
  2  6  1  0  0  0  0
  2 34  1  0  0  0  0
  3  4  2  0  0  0  0
  3 28  1  0  0  0  0
  5 13  1  0  0  0  0
  6  7  1  0  0  0  0
  7  8  1  0  0  0  0
  8  9  1  0  0  0  0
  8 10  1  0  0  0  0
 11 13  2  0  0  0  0
 11 24  1  0  0  0  0
 12 34  1  0  0  0  0
 13 15  1  0  0  0  0
 14 34  1  0  0  0  0
 15 16  1  0  0  0  0
 16 17  1  0  0  0  0
 16 18  2  0  0  0  0
 17 20  1  0  0  0  0
 17 24  2  0  0  0  0
 19 21  1  0  0  0  0
 19 20  1  0  0  0  0
 20 22  1  0  0  0  0
 22 23  1  0  0  0  0
 22 26  1  1  0  0  0
 23 25  1  0  0  0  0
 24 25  1  0  0  0  0
 26 27  1  0  0  0  0
 27 31  1  0  0  0  0
 28 29  2  0  0  0  0
 28 33  1  0  0  0  0
 29 30  1  0  0  0  0
 30 31  2  0  0  0  0
 31 32  1  0  0  0  0
 32 33  2  0  0  0  0
M  END
>  <CHROM.1>
172.66479509,-55.18458814,0.65995738,-56.33331126,76.71738838,137.78401371
-57.24139627,-69.72325259,-166.08203954,-96.30279526,8.07352732,40.84894062
72.97887635,-0.39915402,-1.34943142,-3.07339698

>  <Name>
ligand

>  <RI>
0

>  <Rbt.Current_Directory>
/home/itssahil/PROJECTS/Mol_Feturizer/New_Systems/rnas/3SUH

>  <Rbt.Executable>
rbdock ($Id: //depot/dev/client3/rdock/2013.1/src/exe/rbdock.cxx#4 $)

>  <Rbt.Library>
libRbt.so (2013.1, Build901 2013/11/27)

>  <Rbt.Parameter_File>
/export/apps/rDock/src/rDock_2013.1_src/data/scripts/dock_solv.prm

>  <Rbt.Receptor>
prm/pocket_docking_8.prm

>  <SCORE>
-12.6743

>  <SCORE.INTER>
-8.77756

>  <SCORE.INTER.CONST>
1

>  <SCORE.INTER.POLAR>
0

>  <SCORE.INTER.ROT>
10

>  <SCORE.INTER.SOLV>
7.41115

>  <SCORE.INTER.VDW>
-18.5888

>  <SCORE.INTER.norm>
-0.258164

>  <SCORE.INTRA>
-3.89678

>  <SCORE.INTRA.DIHEDRAL>
-5.82692

>  <SCORE.INTRA.DIHEDRAL.0>
12.2703

>  <SCORE.INTRA.POLAR>
0

>  <SCORE.INTRA.POLAR.0>
0

>  <SCORE.INTRA.REPUL>
0

>  <SCORE.INTRA.REPUL.0>
0

>  <SCORE.INTRA.SOLV>
0.834336

>  <SCORE.INTRA.SOLV.lig_0>
-64.3214

>  <SCORE.INTRA.VDW>
-1.40049

>  <SCORE.INTRA.VDW.0>
-1.67301

>  <SCORE.INTRA.norm>
-0.114611

>  <SCORE.RESTR>
0

>  <SCORE.RESTR.CAVITY>
0

>  <SCORE.RESTR.norm>
0

>  <SCORE.SYSTEM>
0

>  <SCORE.SYSTEM.CONST>
0

>  <SCORE.SYSTEM.DIHEDRAL>
0

>  <SCORE.SYSTEM.SOLV>
0

>  <SCORE.SYSTEM.norm>
0

>  <SCORE.heavy>
34

>  <SCORE.norm>
-0.372775

>  <RMSD>
10.230

$$$$
ligand
 OpenBabel11021811483D
libRbt.so/2013.1/901 2013/11/27
 34 36  0  0  0  0  0  0  0  0999 V2000
    7.9233   42.4618   69.8590 N   0  0  0  0  0  0  0  0  0  0  0  0
    8.3219   43.4149   68.7971 C   0  0  1  0  0  0  0  0  0  0  0  0
    7.8953   41.1325   69.6972 C   0  0  0  0  0  0  0  0  0  0  0  0
    8.1954   40.5534   68.6494 O   0  0  0  0  0  0  0  0  0  0  0  0
    1.5904   43.7676   76.2130 N   0  0  0  0  0  0  0  0  0  0  0  0
    8.2573   44.8531   69.3380 C   0  0  0  0  0  0  0  0  0  0  0  0
    9.1786   45.0425   70.5507 C   0  0  0  0  0  0  0  0  0  0  0  0
    9.1327   46.4900   71.0635 C   0  0  0  0  0  0  0  0  0  0  0  0
    8.5238   46.6968   72.1394 O   0  0  0  0  0  0  0  0  0  0  0  0
    9.7101   47.3580   70.3692 O   0  0  0  0  0  0  0  0  0  0  0  0
    3.5818   42.5879   76.1829 N   0  0  0  0  0  0  0  0  0  0  0  0
    9.8940   43.1006   67.0145 O   0  0  0  0  0  0  0  0  0  0  0  0
    2.2741   42.6594   76.4866 C   0  0  0  0  0  0  0  0  0  0  0  0
   10.6352   42.9214   69.1139 O   0  0  0  0  0  0  0  0  0  0  0  0
    1.6197   41.5777   77.0895 N   0  0  0  0  0  0  0  0  0  0  0  0
    2.3422   40.4248   77.3658 C   0  0  0  0  0  0  0  0  0  0  0  0
    3.6835   40.3721   77.0101 C   0  0  0  0  0  0  0  0  0  0  0  0
    1.7880   39.4591   77.8849 O   0  0  0  0  0  0  0  0  0  0  0  0
    4.2001   38.5871   78.4417 C   0  0  0  0  0  0  0  0  0  0  0  0
    4.4629   39.2656   77.3288 N   0  0  0  0  0  0  0  0  0  0  0  0
    4.5314   39.0342   79.5374 O   0  0  0  0  0  0  0  0  0  0  0  0
    5.6743   38.9843   76.5505 C   0  0  2  0  0  0  0  0  0  0  0  0
    6.5034   40.2673   76.4512 C   0  0  0  0  0  0  0  0  0  0  0  0
    4.2952   41.4818   76.4428 C   0  0  0  0  0  0  0  0  0  0  0  0
    5.6575   41.4420   76.1258 N   0  0  0  0  0  0  0  0  0  0  0  0
    5.3077   38.4815   75.1500 C   0  0  0  0  0  0  0  0  0  0  0  0
    6.5316   38.2319   74.3785 N   0  0  0  0  0  0  0  0  0  0  0  0
    7.4985   40.3413   70.9567 C   0  0  0  0  0  0  0  0  0  0  0  0
    7.8554   39.0019   71.0928 C   0  0  0  0  0  0  0  0  0  0  0  0
    7.5441   38.3027   72.2572 C   0  0  0  0  0  0  0  0  0  0  0  0
    6.8330   38.9224   73.2794 C   0  0  0  0  0  0  0  0  0  0  0  0
    6.4681   40.2574   73.1414 C   0  0  0  0  0  0  0  0  0  0  0  0
    6.8102   40.9679   71.9917 C   0  0  0  0  0  0  0  0  0  0  0  0
    9.7378   43.1219   68.2594 C   0  0  0  0  0  0  0  0  0  0  0  0
  1  3  1  0  0  0  0
  2  1  1  1  0  0  0
  2  6  1  0  0  0  0
  2 34  1  0  0  0  0
  3  4  2  0  0  0  0
  3 28  1  0  0  0  0
  5 13  1  0  0  0  0
  6  7  1  0  0  0  0
  7  8  1  0  0  0  0
  8  9  1  0  0  0  0
  8 10  1  0  0  0  0
 11 13  2  0  0  0  0
 11 24  1  0  0  0  0
 12 34  1  0  0  0  0
 13 15  1  0  0  0  0
 14 34  1  0  0  0  0
 15 16  1  0  0  0  0
 16 17  1  0  0  0  0
 16 18  2  0  0  0  0
 17 20  1  0  0  0  0
 17 24  2  0  0  0  0
 19 21  1  0  0  0  0
 19 20  1  0  0  0  0
 20 22  1  0  0  0  0
 22 23  1  0  0  0  0
 22 26  1  6  0  0  0
 23 25  1  0  0  0  0
 24 25  1  0  0  0  0
 26 27  1  0  0  0  0
 27 31  1  0  0  0  0
 28 29  2  0  0  0  0
 28 33  1  0  0  0  0
 29 30  1  0  0  0  0
 30 31  2  0  0  0  0
 31 32  1  0  0  0  0
 32 33  2  0  0  0  0
M  END
>  <CHROM.1>
-179.14654714,59.05853013,132.97343232,178.65663209,106.94046070,-76.06777505
178.85981210,-116.07435029,-148.19332293,-157.92196214,6.34247139,41.58156547
73.40477495,-0.44166271,-0.93739791,3.03934886

>  <Name>
ligand

>  <RI>
0

>  <Rbt.Current_Directory>
/home/itssahil/PROJECTS/Mol_Feturizer/New_Systems/rnas/3SUH

>  <Rbt.Executable>
rbdock ($Id: //depot/dev/client3/rdock/2013.1/src/exe/rbdock.cxx#4 $)

>  <Rbt.Library>
libRbt.so (2013.1, Build901 2013/11/27)

>  <Rbt.Parameter_File>
/export/apps/rDock/src/rDock_2013.1_src/data/scripts/dock_solv.prm

>  <Rbt.Receptor>
prm/pocket_docking_7.prm

>  <SCORE>
-8.47614

>  <SCORE.INTER>
-4.99144

>  <SCORE.INTER.CONST>
1

>  <SCORE.INTER.POLAR>
0

>  <SCORE.INTER.ROT>
10

>  <SCORE.INTER.SOLV>
7.76055

>  <SCORE.INTER.VDW>
-16.1811

>  <SCORE.INTER.norm>
-0.146807

>  <SCORE.INTRA>
-3.4847

>  <SCORE.INTRA.DIHEDRAL>
-4.84067

>  <SCORE.INTRA.DIHEDRAL.0>
12.2703

>  <SCORE.INTRA.POLAR>
0

>  <SCORE.INTRA.POLAR.0>
0

>  <SCORE.INTRA.REPUL>
0

>  <SCORE.INTRA.REPUL.0>
0

>  <SCORE.INTRA.SOLV>
-0.382234

>  <SCORE.INTRA.SOLV.lig_0>
-64.3214

>  <SCORE.INTRA.VDW>
-0.87325

>  <SCORE.INTRA.VDW.0>
-1.67301

>  <SCORE.INTRA.norm>
-0.102491

>  <SCORE.RESTR>
0

>  <SCORE.RESTR.CAVITY>
0

>  <SCORE.RESTR.norm>
0

>  <SCORE.SYSTEM>
0

>  <SCORE.SYSTEM.CONST>
0

>  <SCORE.SYSTEM.DIHEDRAL>
0

>  <SCORE.SYSTEM.SOLV>
0

>  <SCORE.SYSTEM.norm>
0

>  <SCORE.heavy>
34

>  <SCORE.norm>
-0.249298

>  <RMSD>
10.239

$$$$
ligand
 OpenBabel11021811483D
libRbt.so/2013.1/901 2013/11/27
 34 36  0  0  0  0  0  0  0  0999 V2000
    9.7932   42.0665   70.1007 N   0  0  0  0  0  0  0  0  0  0  0  0
   10.8341   41.5113   69.2045 C   0  0  1  0  0  0  0  0  0  0  0  0
    8.5019   41.7137   70.0540 C   0  0  0  0  0  0  0  0  0  0  0  0
    8.0344   40.8911   69.2616 O   0  0  0  0  0  0  0  0  0  0  0  0
    9.8382   42.4525   79.8234 N   0  0  0  0  0  0  0  0  0  0  0  0
   11.9509   42.5485   68.9992 C   0  0  0  0  0  0  0  0  0  0  0  0
   11.4788   43.7227   68.1311 C   0  0  0  0  0  0  0  0  0  0  0  0
   11.1883   43.2693   66.6923 C   0  0  0  0  0  0  0  0  0  0  0  0
   10.0379   42.8342   66.4507 O   0  0  0  0  0  0  0  0  0  0  0  0
   12.1229   43.3701   65.8645 O   0  0  0  0  0  0  0  0  0  0  0  0
    8.1164   42.1760   78.3012 N   0  0  0  0  0  0  0  0  0  0  0  0
   12.5273   39.8156   69.2788 O   0  0  0  0  0  0  0  0  0  0  0  0
    8.6871   42.8689   79.3019 C   0  0  0  0  0  0  0  0  0  0  0  0
   10.7734   39.6108   70.6467 O   0  0  0  0  0  0  0  0  0  0  0  0
    8.0830   44.0283   79.8044 N   0  0  0  0  0  0  0  0  0  0  0  0
    6.8844   44.4559   79.2492 C   0  0  0  0  0  0  0  0  0  0  0  0
    6.3382   43.7352   78.1954 C   0  0  0  0  0  0  0  0  0  0  0  0
    6.3406   45.4755   79.6661 O   0  0  0  0  0  0  0  0  0  0  0  0
    4.1805   44.6212   78.4442 C   0  0  0  0  0  0  0  0  0  0  0  0
    5.1064   44.0861   77.6541 N   0  0  0  0  0  0  0  0  0  0  0  0
    3.4122   45.4780   78.0130 O   0  0  0  0  0  0  0  0  0  0  0  0
    4.7761   43.6823   76.2830 C   0  0  2  0  0  0  0  0  0  0  0  0
    5.0735   42.1889   76.1255 C   0  0  0  0  0  0  0  0  0  0  0  0
    6.9586   42.5747   77.7530 C   0  0  0  0  0  0  0  0  0  0  0  0
    6.3832   41.8257   76.7206 N   0  0  0  0  0  0  0  0  0  0  0  0
    5.5939   44.4940   75.2726 C   0  0  0  0  0  0  0  0  0  0  0  0
    5.1487   44.1791   73.9096 N   0  0  0  0  0  0  0  0  0  0  0  0
    7.6148   42.3848   71.1182 C   0  0  0  0  0  0  0  0  0  0  0  0
    7.3145   43.7423   71.0356 C   0  0  0  0  0  0  0  0  0  0  0  0
    6.4664   44.3362   71.9682 C   0  0  0  0  0  0  0  0  0  0  0  0
    5.9455   43.5890   73.0193 C   0  0  0  0  0  0  0  0  0  0  0  0
    6.2515   42.2352   73.1083 C   0  0  0  0  0  0  0  0  0  0  0  0
    7.0714   41.6322   72.1555 C   0  0  0  0  0  0  0  0  0  0  0  0
   11.4327   40.2010   69.7563 C   0  0  0  0  0  0  0  0  0  0  0  0
  1  3  1  0  0  0  0
  2  1  1  1  0  0  0
  2  6  1  0  0  0  0
  2 34  1  0  0  0  0
  3  4  2  0  0  0  0
  3 28  1  0  0  0  0
  5 13  1  0  0  0  0
  6  7  1  0  0  0  0
  7  8  1  0  0  0  0
  8  9  1  0  0  0  0
  8 10  1  0  0  0  0
 11 13  2  0  0  0  0
 11 24  1  0  0  0  0
 12 34  1  0  0  0  0
 13 15  1  0  0  0  0
 14 34  1  0  0  0  0
 15 16  1  0  0  0  0
 16 17  1  0  0  0  0
 16 18  2  0  0  0  0
 17 20  1  0  0  0  0
 17 24  2  0  0  0  0
 19 21  1  0  0  0  0
 19 20  1  0  0  0  0
 20 22  1  0  0  0  0
 22 23  1  0  0  0  0
 22 26  1  6  0  0  0
 23 25  1  0  0  0  0
 24 25  1  0  0  0  0
 26 27  1  0  0  0  0
 27 31  1  0  0  0  0
 28 29  2  0  0  0  0
 28 33  1  0  0  0  0
 29 30  1  0  0  0  0
 30 31  2  0  0  0  0
 31 32  1  0  0  0  0
 32 33  2  0  0  0  0
M  END
>  <CHROM.1>
151.18793456,-70.97605020,-162.71464215,-66.57061827,87.27021983,145.36194276
-174.01118437,-115.70096844,-106.62022231,70.71961757,7.99375925,42.86907724
73.51779395,-1.09408216,-0.44119337,1.60116915

>  <Name>
ligand

>  <RI>
0

>  <Rbt.Current_Directory>
/home/itssahil/PROJECTS/Mol_Feturizer/New_Systems/rnas/3SUH

>  <Rbt.Executable>
rbdock ($Id: //depot/dev/client3/rdock/2013.1/src/exe/rbdock.cxx#4 $)

>  <Rbt.Library>
libRbt.so (2013.1, Build901 2013/11/27)

>  <Rbt.Parameter_File>
/export/apps/rDock/src/rDock_2013.1_src/data/scripts/dock_solv.prm

>  <Rbt.Receptor>
prm/pocket_docking_5.prm

>  <SCORE>
-12.1595

>  <SCORE.INTER>
-8.52443

>  <SCORE.INTER.CONST>
1

>  <SCORE.INTER.POLAR>
0

>  <SCORE.INTER.ROT>
10

>  <SCORE.INTER.SOLV>
8.0579

>  <SCORE.INTER.VDW>
-18.6356

>  <SCORE.INTER.norm>
-0.250718

>  <SCORE.INTRA>
-3.63507

>  <SCORE.INTRA.DIHEDRAL>
-3.53447

>  <SCORE.INTRA.DIHEDRAL.0>
12.2703

>  <SCORE.INTRA.POLAR>
0

>  <SCORE.INTRA.POLAR.0>
0

>  <SCORE.INTRA.REPUL>
0

>  <SCORE.INTRA.REPUL.0>
0

>  <SCORE.INTRA.SOLV>
-0.623909

>  <SCORE.INTRA.SOLV.lig_0>
-64.3214

>  <SCORE.INTRA.VDW>
-1.55588

>  <SCORE.INTRA.VDW.0>
-1.67301

>  <SCORE.INTRA.norm>
-0.106914

>  <SCORE.RESTR>
0

>  <SCORE.RESTR.CAVITY>
0

>  <SCORE.RESTR.norm>
0

>  <SCORE.SYSTEM>
0

>  <SCORE.SYSTEM.CONST>
0

>  <SCORE.SYSTEM.DIHEDRAL>
0

>  <SCORE.SYSTEM.SOLV>
0

>  <SCORE.SYSTEM.norm>
0

>  <SCORE.heavy>
34

>  <SCORE.norm>
-0.357632

>  <RMSD>
10.253

$$$$
ligand
 OpenBabel11021811483D
libRbt.so/2013.1/901 2013/11/27
 34 36  0  0  0  0  0  0  0  0999 V2000
    8.7126   42.4763   70.6479 N   0  0  0  0  0  0  0  0  0  0  0  0
    9.6809   42.0797   69.5991 C   0  0  1  0  0  0  0  0  0  0  0  0
    7.7022   41.7011   71.0630 C   0  0  0  0  0  0  0  0  0  0  0  0
    7.4632   40.5743   70.6198 O   0  0  0  0  0  0  0  0  0  0  0  0
    1.5811   37.4396   76.0185 N   0  0  0  0  0  0  0  0  0  0  0  0
   10.5324   40.8996   70.0968 C   0  0  0  0  0  0  0  0  0  0  0  0
   11.8308   40.7602   69.2905 C   0  0  0  0  0  0  0  0  0  0  0  0
   12.7472   39.6846   69.8933 C   0  0  0  0  0  0  0  0  0  0  0  0
   13.3039   38.8945   69.0953 O   0  0  0  0  0  0  0  0  0  0  0  0
   12.8730   39.6778   71.1395 O   0  0  0  0  0  0  0  0  0  0  0  0
    1.2735   39.7136   76.3229 N   0  0  0  0  0  0  0  0  0  0  0  0
    8.4277   40.5724   68.2187 O   0  0  0  0  0  0  0  0  0  0  0  0
    2.0676   38.6294   76.3619 C   0  0  0  0  0  0  0  0  0  0  0  0
    9.0154   42.5467   67.3553 O   0  0  0  0  0  0  0  0  0  0  0  0
    3.4058   38.7371   76.7609 N   0  0  0  0  0  0  0  0  0  0  0  0
    3.9038   39.9845   77.1123 C   0  0  0  0  0  0  0  0  0  0  0  0
    3.0659   41.0889   77.0301 C   0  0  0  0  0  0  0  0  0  0  0  0
    5.0770   40.1060   77.4557 O   0  0  0  0  0  0  0  0  0  0  0  0
    4.3735   42.4371   78.4355 C   0  0  0  0  0  0  0  0  0  0  0  0
    3.5004   42.3456   77.4369 N   0  0  0  0  0  0  0  0  0  0  0  0
    5.2584   43.2896   78.4139 O   0  0  0  0  0  0  0  0  0  0  0  0
    2.8474   43.5458   76.9028 C   0  0  2  0  0  0  0  0  0  0  0  0
    1.3316   43.3840   77.0425 C   0  0  0  0  0  0  0  0  0  0  0  0
    1.7381   40.9265   76.6590 C   0  0  0  0  0  0  0  0  0  0  0  0
    0.8839   42.0341   76.6196 N   0  0  0  0  0  0  0  0  0  0  0  0
    3.2241   43.7520   75.4317 C   0  0  0  0  0  0  0  0  0  0  0  0
    4.6767   43.9295   75.3137 N   0  0  0  0  0  0  0  0  0  0  0  0
    6.8572   42.3032   72.2002 C   0  0  0  0  0  0  0  0  0  0  0  0
    6.4451   41.5130   73.2705 C   0  0  0  0  0  0  0  0  0  0  0  0
    5.7279   42.0720   74.3263 C   0  0  0  0  0  0  0  0  0  0  0  0
    5.3761   43.4174   74.3016 C   0  0  0  0  0  0  0  0  0  0  0  0
    5.7792   44.2060   73.2292 C   0  0  0  0  0  0  0  0  0  0  0  0
    6.5274   43.6556   72.1896 C   0  0  0  0  0  0  0  0  0  0  0  0
    8.9792   41.6979   68.2793 C   0  0  0  0  0  0  0  0  0  0  0  0
  1  3  1  0  0  0  0
  2  1  1  1  0  0  0
  2  6  1  0  0  0  0
  2 34  1  0  0  0  0
  3  4  2  0  0  0  0
  3 28  1  0  0  0  0
  5 13  1  0  0  0  0
  6  7  1  0  0  0  0
  7  8  1  0  0  0  0
  8  9  1  0  0  0  0
  8 10  1  0  0  0  0
 11 13  2  0  0  0  0
 11 24  1  0  0  0  0
 12 34  1  0  0  0  0
 13 15  1  0  0  0  0
 14 34  1  0  0  0  0
 15 16  1  0  0  0  0
 16 17  1  0  0  0  0
 16 18  2  0  0  0  0
 17 20  1  0  0  0  0
 17 24  2  0  0  0  0
 19 21  1  0  0  0  0
 19 20  1  0  0  0  0
 20 22  1  0  0  0  0
 22 23  1  0  0  0  0
 22 26  1  6  0  0  0
 23 25  1  0  0  0  0
 24 25  1  0  0  0  0
 26 27  1  0  0  0  0
 27 31  1  0  0  0  0
 28 29  2  0  0  0  0
 28 33  1  0  0  0  0
 29 30  1  0  0  0  0
 30 31  2  0  0  0  0
 31 32  1  0  0  0  0
 32 33  2  0  0  0  0
M  END
>  <CHROM.1>
-66.20206336,-160.47865342,-76.87984563,173.53014039,136.56356490,142.82503797
-60.81499798,141.90808998,-79.81295114,-137.58137705,6.15365904,41.43972669
73.60231845,0.17820195,0.74842748,-0.33411739

>  <Name>
ligand

>  <RI>
0

>  <Rbt.Current_Directory>
/home/itssahil/PROJECTS/Mol_Feturizer/New_Systems/rnas/3SUH

>  <Rbt.Executable>
rbdock ($Id: //depot/dev/client3/rdock/2013.1/src/exe/rbdock.cxx#4 $)

>  <Rbt.Library>
libRbt.so (2013.1, Build901 2013/11/27)

>  <Rbt.Parameter_File>
/export/apps/rDock/src/rDock_2013.1_src/data/scripts/dock_solv.prm

>  <Rbt.Receptor>
prm/pocket_docking_6.prm

>  <SCORE>
-10.2058

>  <SCORE.INTER>
-7.30615

>  <SCORE.INTER.CONST>
1

>  <SCORE.INTER.POLAR>
0

>  <SCORE.INTER.ROT>
10

>  <SCORE.INTER.SOLV>
8.30695

>  <SCORE.INTER.VDW>
-17.9064

>  <SCORE.INTER.norm>
-0.214887

>  <SCORE.INTRA>
-2.89961

>  <SCORE.INTRA.DIHEDRAL>
-3.59887

>  <SCORE.INTRA.DIHEDRAL.0>
12.2703

>  <SCORE.INTRA.POLAR>
0

>  <SCORE.INTRA.POLAR.0>
0

>  <SCORE.INTRA.REPUL>
0

>  <SCORE.INTRA.REPUL.0>
0

>  <SCORE.INTRA.SOLV>
0.346264

>  <SCORE.INTRA.SOLV.lig_0>
-64.3214

>  <SCORE.INTRA.VDW>
-1.2733

>  <SCORE.INTRA.VDW.0>
-1.67301

>  <SCORE.INTRA.norm>
-0.0852826

>  <SCORE.RESTR>
0

>  <SCORE.RESTR.CAVITY>
0

>  <SCORE.RESTR.norm>
0

>  <SCORE.SYSTEM>
0

>  <SCORE.SYSTEM.CONST>
0

>  <SCORE.SYSTEM.DIHEDRAL>
0

>  <SCORE.SYSTEM.SOLV>
0

>  <SCORE.SYSTEM.norm>
0

>  <SCORE.heavy>
34

>  <SCORE.norm>
-0.300169

>  <RMSD>
10.259

$$$$
ligand
 OpenBabel11021811483D
libRbt.so/2013.1/901 2013/11/27
 34 36  0  0  0  0  0  0  0  0999 V2000
    9.7220   43.0494   69.2542 N   0  0  0  0  0  0  0  0  0  0  0  0
   10.5821   43.4255   68.1081 C   0  0  1  0  0  0  0  0  0  0  0  0
    8.4931   42.5318   69.1273 C   0  0  0  0  0  0  0  0  0  0  0  0
    7.9397   42.3120   68.0463 O   0  0  0  0  0  0  0  0  0  0  0  0
    8.1549   41.6680   80.9894 N   0  0  0  0  0  0  0  0  0  0  0  0
   11.9484   43.9110   68.6205 C   0  0  0  0  0  0  0  0  0  0  0  0
   11.8241   45.2265   69.4011 C   0  0  0  0  0  0  0  0  0  0  0  0
   11.0013   45.0362   70.6845 C   0  0  0  0  0  0  0  0  0  0  0  0
    9.8038   45.4051   70.6564 O   0  0  0  0  0  0  0  0  0  0  0  0
   11.5876   44.5232   71.6652 O   0  0  0  0  0  0  0  0  0  0  0  0
    7.3171   40.2667   79.3484 N   0  0  0  0  0  0  0  0  0  0  0  0
   10.3785   41.1199   67.4832 O   0  0  0  0  0  0  0  0  0  0  0  0
    7.3463   41.4677   79.9519 C   0  0  0  0  0  0  0  0  0  0  0  0
   11.3335   42.5225   66.0307 O   0  0  0  0  0  0  0  0  0  0  0  0
    6.5334   42.5150   79.5002 N   0  0  0  0  0  0  0  0  0  0  0  0
    5.6974   42.2959   78.4136 C   0  0  0  0  0  0  0  0  0  0  0  0
    5.7150   41.0537   77.7933 C   0  0  0  0  0  0  0  0  0  0  0  0
    4.9826   43.2020   77.9927 O   0  0  0  0  0  0  0  0  0  0  0  0
    3.6424   41.3314   76.7305 C   0  0  0  0  0  0  0  0  0  0  0  0
    4.8462   40.7670   76.7462 N   0  0  0  0  0  0  0  0  0  0  0  0
    2.7466   40.9100   77.4587 O   0  0  0  0  0  0  0  0  0  0  0  0
    5.1863   39.7053   75.7926 C   0  0  2  0  0  0  0  0  0  0  0  0
    5.5839   38.4510   76.5749 C   0  0  0  0  0  0  0  0  0  0  0  0
    6.5154   40.0375   78.2974 C   0  0  0  0  0  0  0  0  0  0  0  0
    6.4985   38.7732   77.6979 N   0  0  0  0  0  0  0  0  0  0  0  0
    6.3376   40.1490   74.8836 C   0  0  0  0  0  0  0  0  0  0  0  0
    5.8758   41.2146   73.9856 N   0  0  0  0  0  0  0  0  0  0  0  0
    7.8089   42.1705   70.4581 C   0  0  0  0  0  0  0  0  0  0  0  0
    7.3380   43.1700   71.3061 C   0  0  0  0  0  0  0  0  0  0  0  0
    6.6694   42.8406   72.4835 C   0  0  0  0  0  0  0  0  0  0  0  0
    6.5043   41.5086   72.8479 C   0  0  0  0  0  0  0  0  0  0  0  0
    6.9818   40.5093   72.0067 C   0  0  0  0  0  0  0  0  0  0  0  0
    7.6194   40.8374   70.8110 C   0  0  0  0  0  0  0  0  0  0  0  0
   10.7792   42.2536   67.1244 C   0  0  0  0  0  0  0  0  0  0  0  0
  1  3  1  0  0  0  0
  2  1  1  1  0  0  0
  2  6  1  0  0  0  0
  2 34  1  0  0  0  0
  3  4  2  0  0  0  0
  3 28  1  0  0  0  0
  5 13  1  0  0  0  0
  6  7  1  0  0  0  0
  7  8  1  0  0  0  0
  8  9  1  0  0  0  0
  8 10  1  0  0  0  0
 11 13  2  0  0  0  0
 11 24  1  0  0  0  0
 12 34  1  0  0  0  0
 13 15  1  0  0  0  0
 14 34  1  0  0  0  0
 15 16  1  0  0  0  0
 16 17  1  0  0  0  0
 16 18  2  0  0  0  0
 17 20  1  0  0  0  0
 17 24  2  0  0  0  0
 19 21  1  0  0  0  0
 19 20  1  0  0  0  0
 20 22  1  0  0  0  0
 22 23  1  0  0  0  0
 22 26  1  1  0  0  0
 23 25  1  0  0  0  0
 24 25  1  0  0  0  0
 26 27  1  0  0  0  0
 27 31  1  0  0  0  0
 28 29  2  0  0  0  0
 28 33  1  0  0  0  0
 29 30  1  0  0  0  0
 30 31  2  0  0  0  0
 31 32  1  0  0  0  0
 32 33  2  0  0  0  0
M  END
>  <CHROM.1>
-176.86571569,-66.60606270,-9.89407808,64.73799379,-100.63236127,-77.16260079
-68.83134718,-159.31793405,-139.00465631,72.41634342,7.71197747,41.97319712
73.43724571,-0.99948045,0.67345183,1.42225467

>  <Name>
ligand

>  <RI>
0

>  <Rbt.Current_Directory>
/home/itssahil/PROJECTS/Mol_Feturizer/New_Systems/rnas/3SUH

>  <Rbt.Executable>
rbdock ($Id: //depot/dev/client3/rdock/2013.1/src/exe/rbdock.cxx#4 $)

>  <Rbt.Library>
libRbt.so (2013.1, Build901 2013/11/27)

>  <Rbt.Parameter_File>
/export/apps/rDock/src/rDock_2013.1_src/data/scripts/dock_solv.prm

>  <Rbt.Receptor>
prm/pocket_docking_3.prm

>  <SCORE>
-10.6591

>  <SCORE.INTER>
-6.2063

>  <SCORE.INTER.CONST>
1

>  <SCORE.INTER.POLAR>
0

>  <SCORE.INTER.ROT>
10

>  <SCORE.INTER.SOLV>
10.2626

>  <SCORE.INTER.VDW>
-17.8251

>  <SCORE.INTER.norm>
-0.182538

>  <SCORE.INTRA>
-4.4629

>  <SCORE.INTRA.DIHEDRAL>
-5.21608

>  <SCORE.INTRA.DIHEDRAL.0>
12.2703

>  <SCORE.INTRA.POLAR>
0

>  <SCORE.INTRA.POLAR.0>
0

>  <SCORE.INTRA.REPUL>
0

>  <SCORE.INTRA.REPUL.0>
0

>  <SCORE.INTRA.SOLV>
-0.0759111

>  <SCORE.INTRA.SOLV.lig_0>
-64.3214

>  <SCORE.INTRA.VDW>
-1.8169

>  <SCORE.INTRA.VDW.0>
-1.67301

>  <SCORE.INTRA.norm>
-0.131262

>  <SCORE.RESTR>
0.0101388

>  <SCORE.RESTR.CAVITY>
0.0101388

>  <SCORE.RESTR.norm>
0.000298201

>  <SCORE.SYSTEM>
0

>  <SCORE.SYSTEM.CONST>
0

>  <SCORE.SYSTEM.DIHEDRAL>
0

>  <SCORE.SYSTEM.SOLV>
0

>  <SCORE.SYSTEM.norm>
0

>  <SCORE.heavy>
34

>  <SCORE.norm>
-0.313502

>  <RMSD>
10.290

$$$$
ligand
 OpenBabel11021811483D
libRbt.so/2013.1/901 2013/11/27
 34 36  0  0  0  0  0  0  0  0999 V2000
    8.3855   42.5313   69.6133 N   0  0  0  0  0  0  0  0  0  0  0  0
    9.1028   42.4825   68.3179 C   0  0  1  0  0  0  0  0  0  0  0  0
    7.5910   43.5420   69.9893 C   0  0  0  0  0  0  0  0  0  0  0  0
    7.3688   44.5437   69.3033 O   0  0  0  0  0  0  0  0  0  0  0  0
    5.4542   40.3927   81.7190 N   0  0  0  0  0  0  0  0  0  0  0  0
   10.1726   43.5865   68.2739 C   0  0  0  0  0  0  0  0  0  0  0  0
   11.3180   43.3027   69.2551 C   0  0  0  0  0  0  0  0  0  0  0  0
   12.4983   44.2586   69.0239 C   0  0  0  0  0  0  0  0  0  0  0  0
   13.0494   44.2255   67.8986 O   0  0  0  0  0  0  0  0  0  0  0  0
   12.8220   45.0036   69.9773 O   0  0  0  0  0  0  0  0  0  0  0  0
    5.8805   42.2396   80.3902 N   0  0  0  0  0  0  0  0  0  0  0  0
   10.4932   40.9870   67.0617 O   0  0  0  0  0  0  0  0  0  0  0  0
    5.8790   40.9070   80.5677 C   0  0  0  0  0  0  0  0  0  0  0  0
    9.5063   40.2053   68.9066 O   0  0  0  0  0  0  0  0  0  0  0  0
    6.3203   40.0497   79.5519 N   0  0  0  0  0  0  0  0  0  0  0  0
    6.7566   40.5974   78.3530 C   0  0  0  0  0  0  0  0  0  0  0  0
    6.7151   41.9759   78.1906 C   0  0  0  0  0  0  0  0  0  0  0  0
    7.1388   39.8655   77.4434 O   0  0  0  0  0  0  0  0  0  0  0  0
    8.2314   42.0123   76.4012 C   0  0  0  0  0  0  0  0  0  0  0  0
    7.2055   42.5729   77.0346 N   0  0  0  0  0  0  0  0  0  0  0  0
    8.5486   42.3867   75.2745 O   0  0  0  0  0  0  0  0  0  0  0  0
    6.7236   43.9028   76.6456 C   0  0  2  0  0  0  0  0  0  0  0  0
    6.8118   44.8317   77.8591 C   0  0  0  0  0  0  0  0  0  0  0  0
    6.2987   42.7859   79.2384 C   0  0  0  0  0  0  0  0  0  0  0  0
    6.2996   44.1770   79.0881 N   0  0  0  0  0  0  0  0  0  0  0  0
    5.2778   43.8241   76.1436 C   0  0  0  0  0  0  0  0  0  0  0  0
    5.1798   42.8230   75.0742 N   0  0  0  0  0  0  0  0  0  0  0  0
    6.9105   43.3484   71.3565 C   0  0  0  0  0  0  0  0  0  0  0  0
    6.7804   42.0764   71.9085 C   0  0  0  0  0  0  0  0  0  0  0  0
    6.2144   41.9085   73.1707 C   0  0  0  0  0  0  0  0  0  0  0  0
    5.7316   43.0062   73.8752 C   0  0  0  0  0  0  0  0  0  0  0  0
    5.8527   44.2763   73.3216 C   0  0  0  0  0  0  0  0  0  0  0  0
    6.4510   44.4491   72.0743 C   0  0  0  0  0  0  0  0  0  0  0  0
    9.7595   41.1084   68.0724 C   0  0  0  0  0  0  0  0  0  0  0  0
  1  3  1  0  0  0  0
  2  1  1  1  0  0  0
  2  6  1  0  0  0  0
  2 34  1  0  0  0  0
  3  4  2  0  0  0  0
  3 28  1  0  0  0  0
  5 13  1  0  0  0  0
  6  7  1  0  0  0  0
  7  8  1  0  0  0  0
  8  9  1  0  0  0  0
  8 10  1  0  0  0  0
 11 13  2  0  0  0  0
 11 24  1  0  0  0  0
 12 34  1  0  0  0  0
 13 15  1  0  0  0  0
 14 34  1  0  0  0  0
 15 16  1  0  0  0  0
 16 17  1  0  0  0  0
 16 18  2  0  0  0  0
 17 20  1  0  0  0  0
 17 24  2  0  0  0  0
 19 21  1  0  0  0  0
 19 20  1  0  0  0  0
 20 22  1  0  0  0  0
 22 23  1  0  0  0  0
 22 26  1  1  0  0  0
 23 25  1  0  0  0  0
 24 25  1  0  0  0  0
 26 27  1  0  0  0  0
 27 31  1  0  0  0  0
 28 29  2  0  0  0  0
 28 33  1  0  0  0  0
 29 30  1  0  0  0  0
 30 31  2  0  0  0  0
 31 32  1  0  0  0  0
 32 33  2  0  0  0  0
M  END
>  <CHROM.1>
66.65369831,68.82938839,-173.87668158,169.46347102,-60.67109322,168.30488885
-53.79224035,-69.20081987,147.58204879,-20.32613529,7.88150824,42.64563731
73.75292572,1.13399957,0.50297692,-1.24504238

>  <Name>
ligand

>  <RI>
0

>  <Rbt.Current_Directory>
/home/itssahil/PROJECTS/Mol_Feturizer/New_Systems/rnas/3SUH

>  <Rbt.Executable>
rbdock ($Id: //depot/dev/client3/rdock/2013.1/src/exe/rbdock.cxx#4 $)

>  <Rbt.Library>
libRbt.so (2013.1, Build901 2013/11/27)

>  <Rbt.Parameter_File>
/export/apps/rDock/src/rDock_2013.1_src/data/scripts/dock_solv.prm

>  <Rbt.Receptor>
prm/pocket_docking_4.prm

>  <SCORE>
-8.86079

>  <SCORE.INTER>
-6.05821

>  <SCORE.INTER.CONST>
1

>  <SCORE.INTER.POLAR>
0

>  <SCORE.INTER.ROT>
10

>  <SCORE.INTER.SOLV>
7.94571

>  <SCORE.INTER.VDW>
-16.954

>  <SCORE.INTER.norm>
-0.178183

>  <SCORE.INTRA>
-2.80258

>  <SCORE.INTRA.DIHEDRAL>
-5.00614

>  <SCORE.INTRA.DIHEDRAL.0>
12.2703

>  <SCORE.INTRA.POLAR>
0

>  <SCORE.INTRA.POLAR.0>
0

>  <SCORE.INTRA.REPUL>
0

>  <SCORE.INTRA.REPUL.0>
0

>  <SCORE.INTRA.SOLV>
0.406076

>  <SCORE.INTRA.SOLV.lig_0>
-64.3214

>  <SCORE.INTRA.VDW>
-0.502549

>  <SCORE.INTRA.VDW.0>
-1.67301

>  <SCORE.INTRA.norm>
-0.0824288

>  <SCORE.RESTR>
0

>  <SCORE.RESTR.CAVITY>
0

>  <SCORE.RESTR.norm>
0

>  <SCORE.SYSTEM>
0

>  <SCORE.SYSTEM.CONST>
0

>  <SCORE.SYSTEM.DIHEDRAL>
0

>  <SCORE.SYSTEM.SOLV>
0

>  <SCORE.SYSTEM.norm>
0

>  <SCORE.heavy>
34

>  <SCORE.norm>
-0.260611

>  <RMSD>
10.297

$$$$
ligand
 OpenBabel11021811483D
libRbt.so/2013.1/901 2013/11/27
 34 36  0  0  0  0  0  0  0  0999 V2000
    9.7457   42.8232   69.0223 N   0  0  0  0  0  0  0  0  0  0  0  0
   10.5563   43.5800   68.0400 C   0  0  1  0  0  0  0  0  0  0  0  0
    8.4790   43.1251   69.3358 C   0  0  0  0  0  0  0  0  0  0  0  0
    7.8466   44.0648   68.8456 O   0  0  0  0  0  0  0  0  0  0  0  0
    5.6027   37.3654   80.5036 N   0  0  0  0  0  0  0  0  0  0  0  0
   11.9108   43.9565   68.6634 C   0  0  0  0  0  0  0  0  0  0  0  0
   11.7351   44.8444   69.9028 C   0  0  0  0  0  0  0  0  0  0  0  0
   13.0939   45.2762   70.4750 C   0  0  0  0  0  0  0  0  0  0  0  0
   13.6033   44.5430   71.3548 O   0  0  0  0  0  0  0  0  0  0  0  0
   13.5949   46.3292   70.0178 O   0  0  0  0  0  0  0  0  0  0  0  0
    5.4166   38.7559   78.6624 N   0  0  0  0  0  0  0  0  0  0  0  0
   11.2232   43.4043   65.7439 O   0  0  0  0  0  0  0  0  0  0  0  0
    6.1739   38.0263   79.4999 C   0  0  0  0  0  0  0  0  0  0  0  0
   10.5053   41.5573   66.7745 O   0  0  0  0  0  0  0  0  0  0  0  0
    7.5620   37.9524   79.3285 N   0  0  0  0  0  0  0  0  0  0  0  0
    8.1464   38.6422   78.2748 C   0  0  0  0  0  0  0  0  0  0  0  0
    7.3320   39.3604   77.4091 C   0  0  0  0  0  0  0  0  0  0  0  0
    9.3607   38.5846   78.0977 O   0  0  0  0  0  0  0  0  0  0  0  0
    9.0670   40.6910   76.5598 C   0  0  0  0  0  0  0  0  0  0  0  0
    7.8788   40.1214   76.3819 N   0  0  0  0  0  0  0  0  0  0  0  0
    9.9331   40.6109   75.6916 O   0  0  0  0  0  0  0  0  0  0  0  0
    7.0614   40.4485   75.2085 C   0  0  2  0  0  0  0  0  0  0  0  0
    5.7159   41.0014   75.6856 C   0  0  0  0  0  0  0  0  0  0  0  0
    5.9646   39.4287   77.6390 C   0  0  0  0  0  0  0  0  0  0  0  0
    5.1514   40.1891   76.7914 N   0  0  0  0  0  0  0  0  0  0  0  0
    6.8444   39.2035   74.3416 C   0  0  0  0  0  0  0  0  0  0  0  0
    6.1512   39.5785   73.1030 N   0  0  0  0  0  0  0  0  0  0  0  0
    7.8218   42.1656   70.3445 C   0  0  0  0  0  0  0  0  0  0  0  0
    7.9568   40.7869   70.2011 C   0  0  0  0  0  0  0  0  0  0  0  0
    7.4085   39.9213   71.1455 C   0  0  0  0  0  0  0  0  0  0  0  0
    6.6808   40.4235   72.2191 C   0  0  0  0  0  0  0  0  0  0  0  0
    6.5373   41.7998   72.3589 C   0  0  0  0  0  0  0  0  0  0  0  0
    7.1158   42.6679   71.4340 C   0  0  0  0  0  0  0  0  0  0  0  0
   10.7832   42.7810   66.7401 C   0  0  0  0  0  0  0  0  0  0  0  0
  1  3  1  0  0  0  0
  2  1  1  1  0  0  0
  2  6  1  0  0  0  0
  2 34  1  0  0  0  0
  3  4  2  0  0  0  0
  3 28  1  0  0  0  0
  5 13  1  0  0  0  0
  6  7  1  0  0  0  0
  7  8  1  0  0  0  0
  8  9  1  0  0  0  0
  8 10  1  0  0  0  0
 11 13  2  0  0  0  0
 11 24  1  0  0  0  0
 12 34  1  0  0  0  0
 13 15  1  0  0  0  0
 14 34  1  0  0  0  0
 15 16  1  0  0  0  0
 16 17  1  0  0  0  0
 16 18  2  0  0  0  0
 17 20  1  0  0  0  0
 17 24  2  0  0  0  0
 19 21  1  0  0  0  0
 19 20  1  0  0  0  0
 20 22  1  0  0  0  0
 22 23  1  0  0  0  0
 22 26  1  1  0  0  0
 23 25  1  0  0  0  0
 24 25  1  0  0  0  0
 26 27  1  0  0  0  0
 27 31  1  0  0  0  0
 28 29  2  0  0  0  0
 28 33  1  0  0  0  0
 29 30  1  0  0  0  0
 30 31  2  0  0  0  0
 31 32  1  0  0  0  0
 32 33  2  0  0  0  0
M  END
>  <CHROM.1>
129.25684522,-60.78584711,166.35394549,-177.00428800,-91.14823632,133.30919440
-173.89742743,61.82502124,93.87859453,-45.30984221,8.62955061,41.34518261
73.06683498,1.13909266,-0.47828387,-1.30485256

>  <Name>
ligand

>  <RI>
0

>  <Rbt.Current_Directory>
/home/itssahil/PROJECTS/Mol_Feturizer/New_Systems/rnas/3SUH

>  <Rbt.Executable>
rbdock ($Id: //depot/dev/client3/rdock/2013.1/src/exe/rbdock.cxx#4 $)

>  <Rbt.Library>
libRbt.so (2013.1, Build901 2013/11/27)

>  <Rbt.Parameter_File>
/export/apps/rDock/src/rDock_2013.1_src/data/scripts/dock_solv.prm

>  <Rbt.Receptor>
prm/pocket_docking_8.prm

>  <SCORE>
-14.7696

>  <SCORE.INTER>
-10.571

>  <SCORE.INTER.CONST>
1

>  <SCORE.INTER.POLAR>
0

>  <SCORE.INTER.ROT>
10

>  <SCORE.INTER.SOLV>
9.52156

>  <SCORE.INTER.VDW>
-20.4878

>  <SCORE.INTER.norm>
-0.310911

>  <SCORE.INTRA>
-4.19857

>  <SCORE.INTRA.DIHEDRAL>
-4.64609

>  <SCORE.INTRA.DIHEDRAL.0>
12.2703

>  <SCORE.INTRA.POLAR>
0

>  <SCORE.INTRA.POLAR.0>
0

>  <SCORE.INTRA.REPUL>
0

>  <SCORE.INTRA.REPUL.0>
0

>  <SCORE.INTRA.SOLV>
-0.789754

>  <SCORE.INTRA.SOLV.lig_0>
-64.3214

>  <SCORE.INTRA.VDW>
-1.48065

>  <SCORE.INTRA.VDW.0>
-1.67301

>  <SCORE.INTRA.norm>
-0.123487

>  <SCORE.RESTR>
0

>  <SCORE.RESTR.CAVITY>
0

>  <SCORE.RESTR.norm>
0

>  <SCORE.SYSTEM>
0

>  <SCORE.SYSTEM.CONST>
0

>  <SCORE.SYSTEM.DIHEDRAL>
0

>  <SCORE.SYSTEM.SOLV>
0

>  <SCORE.SYSTEM.norm>
0

>  <SCORE.heavy>
34

>  <SCORE.norm>
-0.434399

>  <RMSD>
10.312

$$$$
ligand
 OpenBabel11021811483D
libRbt.so/2013.1/901 2013/11/27
 34 36  0  0  0  0  0  0  0  0999 V2000
    9.1530   42.9627   69.7381 N   0  0  0  0  0  0  0  0  0  0  0  0
    9.7590   43.9600   68.8254 C   0  0  1  0  0  0  0  0  0  0  0  0
    7.8330   42.7828   69.8771 C   0  0  0  0  0  0  0  0  0  0  0  0
    6.9756   43.4255   69.2648 O   0  0  0  0  0  0  0  0  0  0  0  0
    6.2412   41.4479   80.0637 N   0  0  0  0  0  0  0  0  0  0  0  0
   10.3462   45.1233   69.6422 C   0  0  0  0  0  0  0  0  0  0  0  0
    9.2610   45.8552   70.4435 C   0  0  0  0  0  0  0  0  0  0  0  0
    8.2507   46.5429   69.5127 C   0  0  0  0  0  0  0  0  0  0  0  0
    8.6383   47.5689   68.9058 O   0  0  0  0  0  0  0  0  0  0  0  0
    7.1132   46.0258   69.4264 O   0  0  0  0  0  0  0  0  0  0  0  0
    6.9877   39.6389   78.8274 N   0  0  0  0  0  0  0  0  0  0  0  0
   11.8640   42.8567   68.5098 O   0  0  0  0  0  0  0  0  0  0  0  0
    6.0528   40.5712   79.0807 C   0  0  0  0  0  0  0  0  0  0  0  0
   10.6610   43.3645   66.6977 O   0  0  0  0  0  0  0  0  0  0  0  0
    4.8785   40.6316   78.3198 N   0  0  0  0  0  0  0  0  0  0  0  0
    4.6951   39.7148   77.2935 C   0  0  0  0  0  0  0  0  0  0  0  0
    5.6945   38.7853   77.0375 C   0  0  0  0  0  0  0  0  0  0  0  0
    3.6780   39.7541   76.6057 O   0  0  0  0  0  0  0  0  0  0  0  0
    4.3068   37.3250   75.8359 C   0  0  0  0  0  0  0  0  0  0  0  0
    5.5251   37.8051   76.0660 N   0  0  0  0  0  0  0  0  0  0  0  0
    3.9328   37.0975   74.6876 O   0  0  0  0  0  0  0  0  0  0  0  0
    6.7030   37.1776   75.4569 C   0  0  2  0  0  0  0  0  0  0  0  0
    7.6529   36.7304   76.5710 C   0  0  0  0  0  0  0  0  0  0  0  0
    6.8269   38.7452   77.8397 C   0  0  0  0  0  0  0  0  0  0  0  0
    7.8125   37.7794   77.6081 N   0  0  0  0  0  0  0  0  0  0  0  0
    7.4120   38.1623   74.5207 C   0  0  0  0  0  0  0  0  0  0  0  0
    6.4778   38.6185   73.4841 N   0  0  0  0  0  0  0  0  0  0  0  0
    7.4382   41.6528   70.8452 C   0  0  0  0  0  0  0  0  0  0  0  0
    7.7533   40.3280   70.5529 C   0  0  0  0  0  0  0  0  0  0  0  0
    7.4449   39.3127   71.4560 C   0  0  0  0  0  0  0  0  0  0  0  0
    6.7776   39.6057   72.6407 C   0  0  0  0  0  0  0  0  0  0  0  0
    6.4542   40.9270   72.9301 C   0  0  0  0  0  0  0  0  0  0  0  0
    6.7942   41.9478   72.0435 C   0  0  0  0  0  0  0  0  0  0  0  0
   10.8568   43.3386   67.9373 C   0  0  0  0  0  0  0  0  0  0  0  0
  1  3  1  0  0  0  0
  2  1  1  1  0  0  0
  2  6  1  0  0  0  0
  2 34  1  0  0  0  0
  3  4  2  0  0  0  0
  3 28  1  0  0  0  0
  5 13  1  0  0  0  0
  6  7  1  0  0  0  0
  7  8  1  0  0  0  0
  8  9  1  0  0  0  0
  8 10  1  0  0  0  0
 11 13  2  0  0  0  0
 11 24  1  0  0  0  0
 12 34  1  0  0  0  0
 13 15  1  0  0  0  0
 14 34  1  0  0  0  0
 15 16  1  0  0  0  0
 16 17  1  0  0  0  0
 16 18  2  0  0  0  0
 17 20  1  0  0  0  0
 17 24  2  0  0  0  0
 19 21  1  0  0  0  0
 19 20  1  0  0  0  0
 20 22  1  0  0  0  0
 22 23  1  0  0  0  0
 22 26  1  6  0  0  0
 23 25  1  0  0  0  0
 24 25  1  0  0  0  0
 26 27  1  0  0  0  0
 27 31  1  0  0  0  0
 28 29  2  0  0  0  0
 28 33  1  0  0  0  0
 29 30  1  0  0  0  0
 30 31  2  0  0  0  0
 31 32  1  0  0  0  0
 32 33  2  0  0  0  0
M  END
>  <CHROM.1>
107.44141260,-61.73295473,-62.07947811,-64.91172249,-72.71719129,139.62714686
-57.91203915,171.26987712,87.55330874,-65.17806806,7.31405490,41.16080363
73.12905073,-0.47870263,-1.19110193,-3.03917167

>  <Name>
ligand

>  <RI>
0

>  <Rbt.Current_Directory>
/home/itssahil/PROJECTS/Mol_Feturizer/New_Systems/rnas/3SUH

>  <Rbt.Executable>
rbdock ($Id: //depot/dev/client3/rdock/2013.1/src/exe/rbdock.cxx#4 $)

>  <Rbt.Library>
libRbt.so (2013.1, Build901 2013/11/27)

>  <Rbt.Parameter_File>
/export/apps/rDock/src/rDock_2013.1_src/data/scripts/dock_solv.prm

>  <Rbt.Receptor>
prm/pocket_docking_5.prm

>  <SCORE>
-10.1834

>  <SCORE.INTER>
-5.8732

>  <SCORE.INTER.CONST>
1

>  <SCORE.INTER.POLAR>
0

>  <SCORE.INTER.ROT>
10

>  <SCORE.INTER.SOLV>
7.12436

>  <SCORE.INTER.VDW>
-16.5569

>  <SCORE.INTER.norm>
-0.172741

>  <SCORE.INTRA>
-4.31022

>  <SCORE.INTRA.DIHEDRAL>
-4.84267

>  <SCORE.INTRA.DIHEDRAL.0>
12.2703

>  <SCORE.INTRA.POLAR>
0

>  <SCORE.INTRA.POLAR.0>
0

>  <SCORE.INTRA.REPUL>
0

>  <SCORE.INTRA.REPUL.0>
0

>  <SCORE.INTRA.SOLV>
0.6117

>  <SCORE.INTRA.SOLV.lig_0>
-64.3214

>  <SCORE.INTRA.VDW>
-2.19473

>  <SCORE.INTRA.VDW.0>
-1.67301

>  <SCORE.INTRA.norm>
-0.126771

>  <SCORE.RESTR>
0

>  <SCORE.RESTR.CAVITY>
0

>  <SCORE.RESTR.norm>
0

>  <SCORE.SYSTEM>
0

>  <SCORE.SYSTEM.CONST>
0

>  <SCORE.SYSTEM.DIHEDRAL>
0

>  <SCORE.SYSTEM.SOLV>
0

>  <SCORE.SYSTEM.norm>
0

>  <SCORE.heavy>
34

>  <SCORE.norm>
-0.299512

>  <RMSD>
10.332

$$$$
ligand
 OpenBabel11021811483D
libRbt.so/2013.1/901 2013/11/27
 34 36  0  0  0  0  0  0  0  0999 V2000
   10.2987   42.1214   69.9562 N   0  0  0  0  0  0  0  0  0  0  0  0
   11.2694   42.3542   68.8615 C   0  0  1  0  0  0  0  0  0  0  0  0
    9.9341   40.9060   70.3850 C   0  0  0  0  0  0  0  0  0  0  0  0
   10.3620   39.8468   69.9177 O   0  0  0  0  0  0  0  0  0  0  0  0
    4.3951   42.5810   81.4892 N   0  0  0  0  0  0  0  0  0  0  0  0
   10.6624   41.9008   67.5231 C   0  0  0  0  0  0  0  0  0  0  0  0
    9.3322   42.6106   67.2367 C   0  0  0  0  0  0  0  0  0  0  0  0
    8.2190   42.1019   68.1652 C   0  0  0  0  0  0  0  0  0  0  0  0
    7.7247   42.9255   68.9704 O   0  0  0  0  0  0  0  0  0  0  0  0
    7.8849   40.9005   68.0476 O   0  0  0  0  0  0  0  0  0  0  0  0
    4.6356   43.4574   79.3603 N   0  0  0  0  0  0  0  0  0  0  0  0
   12.7012   44.1093   68.0758 O   0  0  0  0  0  0  0  0  0  0  0  0
    5.0661   42.6462   80.3421 C   0  0  0  0  0  0  0  0  0  0  0  0
   10.9906   44.6621   69.4013 O   0  0  0  0  0  0  0  0  0  0  0  0
    6.2164   41.8654   80.1719 N   0  0  0  0  0  0  0  0  0  0  0  0
    6.9056   41.9379   78.9688 C   0  0  0  0  0  0  0  0  0  0  0  0
    6.4161   42.7616   77.9637 C   0  0  0  0  0  0  0  0  0  0  0  0
    7.9114   41.2551   78.7920 O   0  0  0  0  0  0  0  0  0  0  0  0
    8.4378   42.8534   76.7779 C   0  0  0  0  0  0  0  0  0  0  0  0
    7.1098   42.9184   76.7689 N   0  0  0  0  0  0  0  0  0  0  0  0
    9.1098   43.8577   77.0023 O   0  0  0  0  0  0  0  0  0  0  0  0
    6.3907   43.3480   75.5646 C   0  0  2  0  0  0  0  0  0  0  0  0
    5.5457   44.5772   75.9091 C   0  0  0  0  0  0  0  0  0  0  0  0
    5.2892   43.5399   78.1915 C   0  0  0  0  0  0  0  0  0  0  0  0
    4.8232   44.4024   77.1931 N   0  0  0  0  0  0  0  0  0  0  0  0
    5.4947   42.2193   75.0432 C   0  0  0  0  0  0  0  0  0  0  0  0
    6.3117   41.0354   74.7496 N   0  0  0  0  0  0  0  0  0  0  0  0
    8.9511   40.9120   71.5696 C   0  0  0  0  0  0  0  0  0  0  0  0
    9.4100   41.1134   72.8691 C   0  0  0  0  0  0  0  0  0  0  0  0
    8.5129   41.1741   73.9337 C   0  0  0  0  0  0  0  0  0  0  0  0
    7.1517   40.9891   73.7161 C   0  0  0  0  0  0  0  0  0  0  0  0
    6.6926   40.7790   72.4202 C   0  0  0  0  0  0  0  0  0  0  0  0
    7.5857   40.7536   71.3499 C   0  0  0  0  0  0  0  0  0  0  0  0
   11.6917   43.8350   68.7688 C   0  0  0  0  0  0  0  0  0  0  0  0
  1  3  1  0  0  0  0
  2  1  1  1  0  0  0
  2  6  1  0  0  0  0
  2 34  1  0  0  0  0
  3  4  2  0  0  0  0
  3 28  1  0  0  0  0
  5 13  1  0  0  0  0
  6  7  1  0  0  0  0
  7  8  1  0  0  0  0
  8  9  1  0  0  0  0
  8 10  1  0  0  0  0
 11 13  2  0  0  0  0
 11 24  1  0  0  0  0
 12 34  1  0  0  0  0
 13 15  1  0  0  0  0
 14 34  1  0  0  0  0
 15 16  1  0  0  0  0
 16 17  1  0  0  0  0
 16 18  2  0  0  0  0
 17 20  1  0  0  0  0
 17 24  2  0  0  0  0
 19 21  1  0  0  0  0
 19 20  1  0  0  0  0
 20 22  1  0  0  0  0
 22 23  1  0  0  0  0
 22 26  1  1  0  0  0
 23 25  1  0  0  0  0
 24 25  1  0  0  0  0
 26 27  1  0  0  0  0
 27 31  1  0  0  0  0
 28 29  2  0  0  0  0
 28 33  1  0  0  0  0
 29 30  1  0  0  0  0
 30 31  2  0  0  0  0
 31 32  1  0  0  0  0
 32 33  2  0  0  0  0
M  END
>  <CHROM.1>
68.60719870,56.59385351,165.62722376,-71.45347474,115.77175537,-87.01813987
-58.36283010,-71.03006437,101.26626653,-80.14774279,7.97413174,42.36373951
73.62568222,-1.10673326,0.51957093,1.28125344

>  <Name>
ligand

>  <RI>
0

>  <Rbt.Current_Directory>
/home/itssahil/PROJECTS/Mol_Feturizer/New_Systems/rnas/3SUH

>  <Rbt.Executable>
rbdock ($Id: //depot/dev/client3/rdock/2013.1/src/exe/rbdock.cxx#4 $)

>  <Rbt.Library>
libRbt.so (2013.1, Build901 2013/11/27)

>  <Rbt.Parameter_File>
/export/apps/rDock/src/rDock_2013.1_src/data/scripts/dock_solv.prm

>  <Rbt.Receptor>
prm/pocket_docking_5.prm

>  <SCORE>
-9.85416

>  <SCORE.INTER>
-4.24151

>  <SCORE.INTER.CONST>
1

>  <SCORE.INTER.POLAR>
0

>  <SCORE.INTER.ROT>
10

>  <SCORE.INTER.SOLV>
6.28834

>  <SCORE.INTER.VDW>
-15.1905

>  <SCORE.INTER.norm>
-0.12475

>  <SCORE.INTRA>
-5.61265

>  <SCORE.INTRA.DIHEDRAL>
-5.46629

>  <SCORE.INTRA.DIHEDRAL.0>
12.2703

>  <SCORE.INTRA.POLAR>
0

>  <SCORE.INTRA.POLAR.0>
0

>  <SCORE.INTRA.REPUL>
0

>  <SCORE.INTRA.REPUL.0>
0

>  <SCORE.INTRA.SOLV>
0.528171

>  <SCORE.INTRA.SOLV.lig_0>
-64.3214

>  <SCORE.INTRA.VDW>
-3.14359

>  <SCORE.INTRA.VDW.0>
-1.67301

>  <SCORE.INTRA.norm>
-0.165078

>  <SCORE.RESTR>
0

>  <SCORE.RESTR.CAVITY>
0

>  <SCORE.RESTR.norm>
0

>  <SCORE.SYSTEM>
0

>  <SCORE.SYSTEM.CONST>
0

>  <SCORE.SYSTEM.DIHEDRAL>
0

>  <SCORE.SYSTEM.SOLV>
0

>  <SCORE.SYSTEM.norm>
0

>  <SCORE.heavy>
34

>  <SCORE.norm>
-0.289828

>  <RMSD>
10.339

$$$$
ligand
 OpenBabel11021811483D
libRbt.so/2013.1/901 2013/11/27
 34 36  0  0  0  0  0  0  0  0999 V2000
    7.9968   41.1721   71.3319 N   0  0  0  0  0  0  0  0  0  0  0  0
    8.6471   40.7826   70.0590 C   0  0  1  0  0  0  0  0  0  0  0  0
    7.0427   40.4505   71.9343 C   0  0  0  0  0  0  0  0  0  0  0  0
    6.5979   39.3848   71.4987 O   0  0  0  0  0  0  0  0  0  0  0  0
    0.5014   39.6980   76.9438 N   0  0  0  0  0  0  0  0  0  0  0  0
    8.0297   41.5762   68.8953 C   0  0  0  0  0  0  0  0  0  0  0  0
    8.3446   43.0744   69.0033 C   0  0  0  0  0  0  0  0  0  0  0  0
    7.7285   43.6822   70.2726 C   0  0  0  0  0  0  0  0  0  0  0  0
    6.4795   43.7786   70.3127 O   0  0  0  0  0  0  0  0  0  0  0  0
    8.5205   44.0350   71.1766 O   0  0  0  0  0  0  0  0  0  0  0  0
    1.8977   41.1337   78.1047 N   0  0  0  0  0  0  0  0  0  0  0  0
   10.8545   40.5327   69.1573 O   0  0  0  0  0  0  0  0  0  0  0  0
    1.7079   39.9909   77.4226 C   0  0  0  0  0  0  0  0  0  0  0  0
   10.6221   41.6596   71.0718 O   0  0  0  0  0  0  0  0  0  0  0  0
    2.7682   39.1012   77.2084 N   0  0  0  0  0  0  0  0  0  0  0  0
    4.0237   39.4197   77.7083 C   0  0  0  0  0  0  0  0  0  0  0  0
    4.1928   40.6230   78.3805 C   0  0  0  0  0  0  0  0  0  0  0  0
    4.9716   38.6602   77.5245 O   0  0  0  0  0  0  0  0  0  0  0  0
    6.1850   39.9820   79.4401 C   0  0  0  0  0  0  0  0  0  0  0  0
    5.4144   40.9521   78.9574 N   0  0  0  0  0  0  0  0  0  0  0  0
    5.8112   39.3060   80.3960 O   0  0  0  0  0  0  0  0  0  0  0  0
    5.7427   42.3603   79.2049 C   0  0  2  0  0  0  0  0  0  0  0  0
    4.5650   43.0199   79.9270 C   0  0  0  0  0  0  0  0  0  0  0  0
    3.1040   41.4572   78.5947 C   0  0  0  0  0  0  0  0  0  0  0  0
    3.2674   42.6482   79.3108 N   0  0  0  0  0  0  0  0  0  0  0  0
    6.0270   43.0851   77.8850 C   0  0  0  0  0  0  0  0  0  0  0  0
    5.1348   42.5729   76.8377 N   0  0  0  0  0  0  0  0  0  0  0  0
    6.5524   41.0274   73.2747 C   0  0  0  0  0  0  0  0  0  0  0  0
    6.2599   42.3836   73.3968 C   0  0  0  0  0  0  0  0  0  0  0  0
    5.7633   42.8941   74.5945 C   0  0  0  0  0  0  0  0  0  0  0  0
    5.5964   42.0624   75.6966 C   0  0  0  0  0  0  0  0  0  0  0  0
    5.8964   40.7094   75.5791 C   0  0  0  0  0  0  0  0  0  0  0  0
    6.3596   40.1910   74.3706 C   0  0  0  0  0  0  0  0  0  0  0  0
   10.1724   41.0107   70.0959 C   0  0  0  0  0  0  0  0  0  0  0  0
  1  3  1  0  0  0  0
  2  1  1  1  0  0  0
  2  6  1  0  0  0  0
  2 34  1  0  0  0  0
  3  4  2  0  0  0  0
  3 28  1  0  0  0  0
  5 13  1  0  0  0  0
  6  7  1  0  0  0  0
  7  8  1  0  0  0  0
  8  9  1  0  0  0  0
  8 10  1  0  0  0  0
 11 13  2  0  0  0  0
 11 24  1  0  0  0  0
 12 34  1  0  0  0  0
 13 15  1  0  0  0  0
 14 34  1  0  0  0  0
 15 16  1  0  0  0  0
 16 17  1  0  0  0  0
 16 18  2  0  0  0  0
 17 20  1  0  0  0  0
 17 24  2  0  0  0  0
 19 21  1  0  0  0  0
 19 20  1  0  0  0  0
 20 22  1  0  0  0  0
 22 23  1  0  0  0  0
 22 26  1  6  0  0  0
 23 25  1  0  0  0  0
 24 25  1  0  0  0  0
 26 27  1  0  0  0  0
 27 31  1  0  0  0  0
 28 29  2  0  0  0  0
 28 33  1  0  0  0  0
 29 30  1  0  0  0  0
 30 31  2  0  0  0  0
 31 32  1  0  0  0  0
 32 33  2  0  0  0  0
M  END
>  <CHROM.1>
100.61330260,66.31231320,169.46791945,-63.01256756,-69.35136555,-64.68384178
36.48098520,-123.62042696,-91.67646183,45.64454483,6.02468679,41.30242215
74.82344683,0.93107093,-0.60745202,-1.84906092

>  <Name>
ligand

>  <RI>
0

>  <Rbt.Current_Directory>
/home/itssahil/PROJECTS/Mol_Feturizer/New_Systems/rnas/3SUH

>  <Rbt.Executable>
rbdock ($Id: //depot/dev/client3/rdock/2013.1/src/exe/rbdock.cxx#4 $)

>  <Rbt.Library>
libRbt.so (2013.1, Build901 2013/11/27)

>  <Rbt.Parameter_File>
/export/apps/rDock/src/rDock_2013.1_src/data/scripts/dock_solv.prm

>  <Rbt.Receptor>
prm/pocket_docking_3.prm

>  <SCORE>
-5.26369

>  <SCORE.INTER>
-2.32603

>  <SCORE.INTER.CONST>
1

>  <SCORE.INTER.POLAR>
0

>  <SCORE.INTER.ROT>
10

>  <SCORE.INTER.SOLV>
5.80227

>  <SCORE.INTER.VDW>
-13.7514

>  <SCORE.INTER.norm>
-0.0684125

>  <SCORE.INTRA>
-2.95714

>  <SCORE.INTRA.DIHEDRAL>
-1.99651

>  <SCORE.INTRA.DIHEDRAL.0>
12.2703

>  <SCORE.INTRA.POLAR>
0

>  <SCORE.INTRA.POLAR.0>
0

>  <SCORE.INTRA.REPUL>
0

>  <SCORE.INTRA.REPUL.0>
0

>  <SCORE.INTRA.SOLV>
2.61103

>  <SCORE.INTRA.SOLV.lig_0>
-64.3214

>  <SCORE.INTRA.VDW>
-3.2644

>  <SCORE.INTRA.VDW.0>
-1.67301

>  <SCORE.INTRA.norm>
-0.0869746

>  <SCORE.RESTR>
0.0194779

>  <SCORE.RESTR.CAVITY>
0.0194779

>  <SCORE.RESTR.norm>
0.000572881

>  <SCORE.SYSTEM>
0

>  <SCORE.SYSTEM.CONST>
0

>  <SCORE.SYSTEM.DIHEDRAL>
0

>  <SCORE.SYSTEM.SOLV>
0

>  <SCORE.SYSTEM.norm>
0

>  <SCORE.heavy>
34

>  <SCORE.norm>
-0.154814

>  <RMSD>
10.343

$$$$
ligand
 OpenBabel11021811483D
libRbt.so/2013.1/901 2013/11/27
 34 36  0  0  0  0  0  0  0  0999 V2000
    7.9691   42.9333   69.7339 N   0  0  0  0  0  0  0  0  0  0  0  0
    8.7801   42.5574   68.5525 C   0  0  1  0  0  0  0  0  0  0  0  0
    7.7359   42.1171   70.7700 C   0  0  0  0  0  0  0  0  0  0  0  0
    8.1669   40.9639   70.8570 O   0  0  0  0  0  0  0  0  0  0  0  0
    2.7185   37.9194   77.0499 N   0  0  0  0  0  0  0  0  0  0  0  0
   10.2749   42.7226   68.8739 C   0  0  0  0  0  0  0  0  0  0  0  0
   10.6778   44.2019   68.9431 C   0  0  0  0  0  0  0  0  0  0  0  0
   12.2010   44.3584   69.0674 C   0  0  0  0  0  0  0  0  0  0  0  0
   12.6568   44.6388   70.2009 O   0  0  0  0  0  0  0  0  0  0  0  0
   12.8769   44.1915   68.0261 O   0  0  0  0  0  0  0  0  0  0  0  0
    2.0607   40.1357   76.9318 N   0  0  0  0  0  0  0  0  0  0  0  0
    7.3487   40.8466   67.6738 O   0  0  0  0  0  0  0  0  0  0  0  0
    3.0154   39.2131   77.1435 C   0  0  0  0  0  0  0  0  0  0  0  0
    9.4523   40.2971   68.1854 O   0  0  0  0  0  0  0  0  0  0  0  0
    4.3238   39.5979   77.4624 N   0  0  0  0  0  0  0  0  0  0  0  0
    4.6230   40.9506   77.5524 C   0  0  0  0  0  0  0  0  0  0  0  0
    3.6215   41.8779   77.2964 C   0  0  0  0  0  0  0  0  0  0  0  0
    5.7657   41.3131   77.8207 O   0  0  0  0  0  0  0  0  0  0  0  0
    4.7142   43.6543   78.3700 C   0  0  0  0  0  0  0  0  0  0  0  0
    3.8571   43.2406   77.4416 N   0  0  0  0  0  0  0  0  0  0  0  0
    5.4815   44.5862   78.1394 O   0  0  0  0  0  0  0  0  0  0  0  0
    3.0190   44.2019   76.7167 C   0  0  2  0  0  0  0  0  0  0  0  0
    1.5487   43.8412   76.9436 C   0  0  0  0  0  0  0  0  0  0  0  0
    2.3322   41.4469   77.0147 C   0  0  0  0  0  0  0  0  0  0  0  0
    1.3145   42.3830   76.8007 N   0  0  0  0  0  0  0  0  0  0  0  0
    3.3451   44.1762   75.2195 C   0  0  0  0  0  0  0  0  0  0  0  0
    4.7769   44.4325   75.0210 N   0  0  0  0  0  0  0  0  0  0  0  0
    6.9091   42.7441   71.9071 C   0  0  0  0  0  0  0  0  0  0  0  0
    6.4522   41.9615   72.9647 C   0  0  0  0  0  0  0  0  0  0  0  0
    5.7517   42.5405   74.0210 C   0  0  0  0  0  0  0  0  0  0  0  0
    5.4614   43.9006   74.0089 C   0  0  0  0  0  0  0  0  0  0  0  0
    5.9092   44.6822   72.9492 C   0  0  0  0  0  0  0  0  0  0  0  0
    6.6409   44.1101   71.9094 C   0  0  0  0  0  0  0  0  0  0  0  0
    8.5004   41.1105   68.0963 C   0  0  0  0  0  0  0  0  0  0  0  0
  1  3  1  0  0  0  0
  2  1  1  1  0  0  0
  2  6  1  0  0  0  0
  2 34  1  0  0  0  0
  3  4  2  0  0  0  0
  3 28  1  0  0  0  0
  5 13  1  0  0  0  0
  6  7  1  0  0  0  0
  7  8  1  0  0  0  0
  8  9  1  0  0  0  0
  8 10  1  0  0  0  0
 11 13  2  0  0  0  0
 11 24  1  0  0  0  0
 12 34  1  0  0  0  0
 13 15  1  0  0  0  0
 14 34  1  0  0  0  0
 15 16  1  0  0  0  0
 16 17  1  0  0  0  0
 16 18  2  0  0  0  0
 17 20  1  0  0  0  0
 17 24  2  0  0  0  0
 19 21  1  0  0  0  0
 19 20  1  0  0  0  0
 20 22  1  0  0  0  0
 22 23  1  0  0  0  0
 22 26  1  6  0  0  0
 23 25  1  0  0  0  0
 24 25  1  0  0  0  0
 26 27  1  0  0  0  0
 27 31  1  0  0  0  0
 28 29  2  0  0  0  0
 28 33  1  0  0  0  0
 29 30  1  0  0  0  0
 30 31  2  0  0  0  0
 31 32  1  0  0  0  0
 32 33  2  0  0  0  0
M  END
>  <CHROM.1>
-81.49275275,-72.62449230,64.46748567,-172.02337345,-102.99692117,140.67571343
-55.94691442,148.41721592,-71.76539343,171.93393651,6.27093696,42.46517950
73.46871872,0.40473417,-0.80847278,-2.49113334

>  <Name>
ligand

>  <RI>
0

>  <Rbt.Current_Directory>
/home/itssahil/PROJECTS/Mol_Feturizer/New_Systems/rnas/3SUH

>  <Rbt.Executable>
rbdock ($Id: //depot/dev/client3/rdock/2013.1/src/exe/rbdock.cxx#4 $)

>  <Rbt.Library>
libRbt.so (2013.1, Build901 2013/11/27)

>  <Rbt.Parameter_File>
/export/apps/rDock/src/rDock_2013.1_src/data/scripts/dock_solv.prm

>  <Rbt.Receptor>
prm/pocket_docking_3.prm

>  <SCORE>
-9.48388

>  <SCORE.INTER>
-7.04206

>  <SCORE.INTER.CONST>
1

>  <SCORE.INTER.POLAR>
0

>  <SCORE.INTER.ROT>
10

>  <SCORE.INTER.SOLV>
6.8959

>  <SCORE.INTER.VDW>
-17.26

>  <SCORE.INTER.norm>
-0.207119

>  <SCORE.INTRA>
-2.44182

>  <SCORE.INTRA.DIHEDRAL>
-4.17047

>  <SCORE.INTRA.DIHEDRAL.0>
12.2703

>  <SCORE.INTRA.POLAR>
0

>  <SCORE.INTRA.POLAR.0>
0

>  <SCORE.INTRA.REPUL>
0

>  <SCORE.INTRA.REPUL.0>
0

>  <SCORE.INTRA.SOLV>
0.614155

>  <SCORE.INTRA.SOLV.lig_0>
-64.3214

>  <SCORE.INTRA.VDW>
-0.66367

>  <SCORE.INTRA.VDW.0>
-1.67301

>  <SCORE.INTRA.norm>
-0.0718184

>  <SCORE.RESTR>
0

>  <SCORE.RESTR.CAVITY>
0

>  <SCORE.RESTR.norm>
0

>  <SCORE.SYSTEM>
0

>  <SCORE.SYSTEM.CONST>
0

>  <SCORE.SYSTEM.DIHEDRAL>
0

>  <SCORE.SYSTEM.SOLV>
0

>  <SCORE.SYSTEM.norm>
0

>  <SCORE.heavy>
34

>  <SCORE.norm>
-0.278938

>  <RMSD>
10.346

$$$$
ligand
 OpenBabel11021811483D
libRbt.so/2013.1/901 2013/11/27
 34 36  0  0  0  0  0  0  0  0999 V2000
    8.3330   42.5037   69.6076 N   0  0  0  0  0  0  0  0  0  0  0  0
    9.0151   42.3177   68.3057 C   0  0  1  0  0  0  0  0  0  0  0  0
    7.5971   43.5789   69.9182 C   0  0  0  0  0  0  0  0  0  0  0  0
    7.4060   44.5332   69.1592 O   0  0  0  0  0  0  0  0  0  0  0  0
    7.3486   36.8389   78.5925 N   0  0  0  0  0  0  0  0  0  0  0  0
   10.0913   43.4010   68.1229 C   0  0  0  0  0  0  0  0  0  0  0  0
   11.2396   43.2316   69.1269 C   0  0  0  0  0  0  0  0  0  0  0  0
   12.4167   44.1587   68.7874 C   0  0  0  0  0  0  0  0  0  0  0  0
   12.8979   44.0731   67.6332 O   0  0  0  0  0  0  0  0  0  0  0  0
   12.8079   44.9348   69.6892 O   0  0  0  0  0  0  0  0  0  0  0  0
    5.9442   38.5120   77.8265 N   0  0  0  0  0  0  0  0  0  0  0  0
   10.2854   40.6590   67.1298 O   0  0  0  0  0  0  0  0  0  0  0  0
    6.9743   38.1158   78.5941 C   0  0  0  0  0  0  0  0  0  0  0  0
    9.4932   40.1382   69.1522 O   0  0  0  0  0  0  0  0  0  0  0  0
    7.6614   39.0337   79.3985 N   0  0  0  0  0  0  0  0  0  0  0  0
    7.2652   40.3642   79.3883 C   0  0  0  0  0  0  0  0  0  0  0  0
    6.2182   40.7462   78.5599 C   0  0  0  0  0  0  0  0  0  0  0  0
    7.8588   41.1899   80.0775 O   0  0  0  0  0  0  0  0  0  0  0  0
    5.7817   42.7494   79.6996 C   0  0  0  0  0  0  0  0  0  0  0  0
    5.7426   42.0528   78.5678 N   0  0  0  0  0  0  0  0  0  0  0  0
    4.9094   42.6024   80.5527 O   0  0  0  0  0  0  0  0  0  0  0  0
    5.0287   42.5710   77.3956 C   0  0  2  0  0  0  0  0  0  0  0  0
    3.9481   41.5640   76.9935 C   0  0  0  0  0  0  0  0  0  0  0  0
    5.5480   39.7936   77.8043 C   0  0  0  0  0  0  0  0  0  0  0  0
    4.4648   40.1732   77.0040 N   0  0  0  0  0  0  0  0  0  0  0  0
    6.0003   42.7973   76.2322 C   0  0  0  0  0  0  0  0  0  0  0  0
    5.2802   43.3796   75.0931 N   0  0  0  0  0  0  0  0  0  0  0  0
    6.9421   43.5274   71.3103 C   0  0  0  0  0  0  0  0  0  0  0  0
    6.7370   42.3081   71.9513 C   0  0  0  0  0  0  0  0  0  0  0  0
    6.1951   42.2668   73.2345 C   0  0  0  0  0  0  0  0  0  0  0  0
    5.8108   43.4415   73.8723 C   0  0  0  0  0  0  0  0  0  0  0  0
    6.0066   44.6594   73.2300 C   0  0  0  0  0  0  0  0  0  0  0  0
    6.5815   44.7042   71.9607 C   0  0  0  0  0  0  0  0  0  0  0  0
    9.6549   40.9194   68.1831 C   0  0  0  0  0  0  0  0  0  0  0  0
  1  3  1  0  0  0  0
  2  1  1  1  0  0  0
  2  6  1  0  0  0  0
  2 34  1  0  0  0  0
  3  4  2  0  0  0  0
  3 28  1  0  0  0  0
  5 13  1  0  0  0  0
  6  7  1  0  0  0  0
  7  8  1  0  0  0  0
  8  9  1  0  0  0  0
  8 10  1  0  0  0  0
 11 13  2  0  0  0  0
 11 24  1  0  0  0  0
 12 34  1  0  0  0  0
 13 15  1  0  0  0  0
 14 34  1  0  0  0  0
 15 16  1  0  0  0  0
 16 17  1  0  0  0  0
 16 18  2  0  0  0  0
 17 20  1  0  0  0  0
 17 24  2  0  0  0  0
 19 21  1  0  0  0  0
 19 20  1  0  0  0  0
 20 22  1  0  0  0  0
 22 23  1  0  0  0  0
 22 26  1  6  0  0  0
 23 25  1  0  0  0  0
 24 25  1  0  0  0  0
 26 27  1  0  0  0  0
 27 31  1  0  0  0  0
 28 29  2  0  0  0  0
 28 33  1  0  0  0  0
 29 30  1  0  0  0  0
 30 31  2  0  0  0  0
 31 32  1  0  0  0  0
 32 33  2  0  0  0  0
M  END
>  <CHROM.1>
64.04218417,67.06008972,-178.56197202,170.25940945,-55.23727407,-81.38056943
-177.12252911,-166.76274798,59.22535685,-21.81437869,7.58879242,42.00008450
73.84794276,0.98379837,0.81646798,-0.88587528

>  <Name>
ligand

>  <RI>
0

>  <Rbt.Current_Directory>
/home/itssahil/PROJECTS/Mol_Feturizer/New_Systems/rnas/3SUH

>  <Rbt.Executable>
rbdock ($Id: //depot/dev/client3/rdock/2013.1/src/exe/rbdock.cxx#4 $)

>  <Rbt.Library>
libRbt.so (2013.1, Build901 2013/11/27)

>  <Rbt.Parameter_File>
/export/apps/rDock/src/rDock_2013.1_src/data/scripts/dock_solv.prm

>  <Rbt.Receptor>
prm/pocket_docking_4.prm

>  <SCORE>
-9.36385

>  <SCORE.INTER>
-6.2526

>  <SCORE.INTER.CONST>
1

>  <SCORE.INTER.POLAR>
0

>  <SCORE.INTER.ROT>
10

>  <SCORE.INTER.SOLV>
8.4943

>  <SCORE.INTER.VDW>
-17.2665

>  <SCORE.INTER.norm>
-0.1839

>  <SCORE.INTRA>
-3.11125

>  <SCORE.INTRA.DIHEDRAL>
-5.30617

>  <SCORE.INTRA.DIHEDRAL.0>
12.2703

>  <SCORE.INTRA.POLAR>
0

>  <SCORE.INTRA.POLAR.0>
0

>  <SCORE.INTRA.REPUL>
0

>  <SCORE.INTRA.REPUL.0>
0

>  <SCORE.INTRA.SOLV>
-0.728019

>  <SCORE.INTRA.SOLV.lig_0>
-64.3214

>  <SCORE.INTRA.VDW>
-0.0941551

>  <SCORE.INTRA.VDW.0>
-1.67301

>  <SCORE.INTRA.norm>
-0.0915074

>  <SCORE.RESTR>
0

>  <SCORE.RESTR.CAVITY>
0

>  <SCORE.RESTR.norm>
0

>  <SCORE.SYSTEM>
0

>  <SCORE.SYSTEM.CONST>
0

>  <SCORE.SYSTEM.DIHEDRAL>
0

>  <SCORE.SYSTEM.SOLV>
0

>  <SCORE.SYSTEM.norm>
0

>  <SCORE.heavy>
34

>  <SCORE.norm>
-0.275407

>  <RMSD>
10.353

$$$$
ligand
 OpenBabel11021811483D
libRbt.so/2013.1/901 2013/11/27
 34 36  0  0  0  0  0  0  0  0999 V2000
    9.3619   42.8393   69.2410 N   0  0  0  0  0  0  0  0  0  0  0  0
   10.1298   43.4399   68.1255 C   0  0  1  0  0  0  0  0  0  0  0  0
    8.3147   42.0215   69.0716 C   0  0  0  0  0  0  0  0  0  0  0  0
    7.8715   41.6784   67.9720 O   0  0  0  0  0  0  0  0  0  0  0  0
    9.6453   35.4026   78.8418 N   0  0  0  0  0  0  0  0  0  0  0  0
   11.2049   44.3868   68.6846 C   0  0  0  0  0  0  0  0  0  0  0  0
   12.1502   43.6603   69.6511 C   0  0  0  0  0  0  0  0  0  0  0  0
   13.0779   44.6506   70.3714 C   0  0  0  0  0  0  0  0  0  0  0  0
   13.3498   44.4108   71.5712 O   0  0  0  0  0  0  0  0  0  0  0  0
   13.4971   45.6249   69.7052 O   0  0  0  0  0  0  0  0  0  0  0  0
    7.8730   36.2943   77.6492 N   0  0  0  0  0  0  0  0  0  0  0  0
   11.4213   42.7591   66.2238 O   0  0  0  0  0  0  0  0  0  0  0  0
    8.8776   36.4437   78.5300 C   0  0  0  0  0  0  0  0  0  0  0  0
   10.6430   41.1718   67.5889 O   0  0  0  0  0  0  0  0  0  0  0  0
    9.1276   37.6864   79.1257 N   0  0  0  0  0  0  0  0  0  0  0  0
    8.3233   38.7668   78.7890 C   0  0  0  0  0  0  0  0  0  0  0  0
    7.3147   38.5860   77.8518 C   0  0  0  0  0  0  0  0  0  0  0  0
    8.5293   39.8691   79.2905 O   0  0  0  0  0  0  0  0  0  0  0  0
    6.1173   40.5048   78.4737 C   0  0  0  0  0  0  0  0  0  0  0  0
    6.4416   39.6208   77.5350 N   0  0  0  0  0  0  0  0  0  0  0  0
    5.8926   41.6759   78.1764 O   0  0  0  0  0  0  0  0  0  0  0  0
    5.7416   39.6089   76.2458 C   0  0  2  0  0  0  0  0  0  0  0  0
    5.1041   38.2317   76.0454 C   0  0  0  0  0  0  0  0  0  0  0  0
    7.0861   37.3274   77.3123 C   0  0  0  0  0  0  0  0  0  0  0  0
    6.0410   37.1377   76.4014 N   0  0  0  0  0  0  0  0  0  0  0  0
    6.7166   39.9119   75.1029 C   0  0  0  0  0  0  0  0  0  0  0  0
    5.9778   40.0220   73.8391 N   0  0  0  0  0  0  0  0  0  0  0  0
    7.7069   41.4788   70.3776 C   0  0  0  0  0  0  0  0  0  0  0  0
    7.0804   42.3378   71.2773 C   0  0  0  0  0  0  0  0  0  0  0  0
    6.4820   41.8375   72.4320 C   0  0  0  0  0  0  0  0  0  0  0  0
    6.5429   40.4786   72.7219 C   0  0  0  0  0  0  0  0  0  0  0  0
    7.1759   39.6205   71.8290 C   0  0  0  0  0  0  0  0  0  0  0  0
    7.7438   40.1154   70.6559 C   0  0  0  0  0  0  0  0  0  0  0  0
   10.7902   42.3671   67.2350 C   0  0  0  0  0  0  0  0  0  0  0  0
  1  3  1  0  0  0  0
  2  1  1  1  0  0  0
  2  6  1  0  0  0  0
  2 34  1  0  0  0  0
  3  4  2  0  0  0  0
  3 28  1  0  0  0  0
  5 13  1  0  0  0  0
  6  7  1  0  0  0  0
  7  8  1  0  0  0  0
  8  9  1  0  0  0  0
  8 10  1  0  0  0  0
 11 13  2  0  0  0  0
 11 24  1  0  0  0  0
 12 34  1  0  0  0  0
 13 15  1  0  0  0  0
 14 34  1  0  0  0  0
 15 16  1  0  0  0  0
 16 17  1  0  0  0  0
 16 18  2  0  0  0  0
 17 20  1  0  0  0  0
 17 24  2  0  0  0  0
 19 21  1  0  0  0  0
 19 20  1  0  0  0  0
 20 22  1  0  0  0  0
 22 23  1  0  0  0  0
 22 26  1  6  0  0  0
 23 25  1  0  0  0  0
 24 25  1  0  0  0  0
 26 27  1  0  0  0  0
 27 31  1  0  0  0  0
 28 29  2  0  0  0  0
 28 33  1  0  0  0  0
 29 30  1  0  0  0  0
 30 31  2  0  0  0  0
 31 32  1  0  0  0  0
 32 33  2  0  0  0  0
M  END
>  <CHROM.1>
176.64035846,57.41093951,177.06959249,-171.08255886,142.92577607,147.11130939
-174.64559037,169.55123590,-90.98264792,66.01177689,8.58071498,40.70737628
73.32267998,1.20287579,-0.45309616,-1.24719244

>  <Name>
ligand

>  <RI>
0

>  <Rbt.Current_Directory>
/home/itssahil/PROJECTS/Mol_Feturizer/New_Systems/rnas/3SUH

>  <Rbt.Executable>
rbdock ($Id: //depot/dev/client3/rdock/2013.1/src/exe/rbdock.cxx#4 $)

>  <Rbt.Library>
libRbt.so (2013.1, Build901 2013/11/27)

>  <Rbt.Parameter_File>
/export/apps/rDock/src/rDock_2013.1_src/data/scripts/dock_solv.prm

>  <Rbt.Receptor>
prm/pocket_docking_6.prm

>  <SCORE>
-12.6064

>  <SCORE.INTER>
-9.27059

>  <SCORE.INTER.CONST>
1

>  <SCORE.INTER.POLAR>
0

>  <SCORE.INTER.ROT>
10

>  <SCORE.INTER.SOLV>
9.0923

>  <SCORE.INTER.VDW>
-19.4778

>  <SCORE.INTER.norm>
-0.272664

>  <SCORE.INTRA>
-3.33582

>  <SCORE.INTRA.DIHEDRAL>
-5.54453

>  <SCORE.INTRA.DIHEDRAL.0>
12.2703

>  <SCORE.INTRA.POLAR>
0

>  <SCORE.INTRA.POLAR.0>
0

>  <SCORE.INTRA.REPUL>
0

>  <SCORE.INTRA.REPUL.0>
0

>  <SCORE.INTRA.SOLV>
-0.734939

>  <SCORE.INTRA.SOLV.lig_0>
-64.3214

>  <SCORE.INTRA.VDW>
-0.19609

>  <SCORE.INTRA.VDW.0>
-1.67301

>  <SCORE.INTRA.norm>
-0.0981124

>  <SCORE.RESTR>
0

>  <SCORE.RESTR.CAVITY>
0

>  <SCORE.RESTR.norm>
0

>  <SCORE.SYSTEM>
0

>  <SCORE.SYSTEM.CONST>
0

>  <SCORE.SYSTEM.DIHEDRAL>
0

>  <SCORE.SYSTEM.SOLV>
0

>  <SCORE.SYSTEM.norm>
0

>  <SCORE.heavy>
34

>  <SCORE.norm>
-0.370777

>  <RMSD>
10.354

$$$$
ligand
 OpenBabel11021811483D
libRbt.so/2013.1/901 2013/11/27
 34 36  0  0  0  0  0  0  0  0999 V2000
   10.0248   42.7852   69.1402 N   0  0  0  0  0  0  0  0  0  0  0  0
   10.8347   43.5176   68.1389 C   0  0  1  0  0  0  0  0  0  0  0  0
    8.7087   42.9653   69.3122 C   0  0  0  0  0  0  0  0  0  0  0  0
    8.0248   43.7594   68.6604 O   0  0  0  0  0  0  0  0  0  0  0  0
    8.6530   38.3835   80.5276 N   0  0  0  0  0  0  0  0  0  0  0  0
   12.2696   43.6980   68.6620 C   0  0  0  0  0  0  0  0  0  0  0  0
   12.3128   44.6244   69.8848 C   0  0  0  0  0  0  0  0  0  0  0  0
   11.7282   43.9342   71.1266 C   0  0  0  0  0  0  0  0  0  0  0  0
   10.5317   44.1801   71.4078 O   0  0  0  0  0  0  0  0  0  0  0  0
   12.4902   43.1734   71.7662 O   0  0  0  0  0  0  0  0  0  0  0  0
    7.5939   37.9287   78.5202 N   0  0  0  0  0  0  0  0  0  0  0  0
   11.2400   43.4513   65.7769 O   0  0  0  0  0  0  0  0  0  0  0  0
    7.7595   38.7140   79.5987 C   0  0  0  0  0  0  0  0  0  0  0  0
   10.4981   41.5927   66.7689 O   0  0  0  0  0  0  0  0  0  0  0  0
    7.0006   39.8804   79.7575 N   0  0  0  0  0  0  0  0  0  0  0  0
    6.0748   40.2178   78.7794 C   0  0  0  0  0  0  0  0  0  0  0  0
    5.9513   39.4020   77.6624 C   0  0  0  0  0  0  0  0  0  0  0  0
    5.4046   41.2412   78.8913 O   0  0  0  0  0  0  0  0  0  0  0  0
    3.8363   40.2140   77.0544 C   0  0  0  0  0  0  0  0  0  0  0  0
    4.9905   39.6626   76.6917 N   0  0  0  0  0  0  0  0  0  0  0  0
    2.9200   39.5168   77.4842 O   0  0  0  0  0  0  0  0  0  0  0  0
    5.1782   39.1489   75.3304 C   0  0  2  0  0  0  0  0  0  0  0  0
    5.5315   37.6616   75.4108 C   0  0  0  0  0  0  0  0  0  0  0  0
    6.7040   38.2395   77.5654 C   0  0  0  0  0  0  0  0  0  0  0  0
    6.5461   37.3959   76.4604 N   0  0  0  0  0  0  0  0  0  0  0  0
    6.2929   39.9196   74.6148 C   0  0  0  0  0  0  0  0  0  0  0  0
    6.2652   39.6101   73.1800 N   0  0  0  0  0  0  0  0  0  0  0  0
    8.0706   42.0547   70.3768 C   0  0  0  0  0  0  0  0  0  0  0  0
    7.2527   42.5908   71.3685 C   0  0  0  0  0  0  0  0  0  0  0  0
    6.6311   41.7590   72.2978 C   0  0  0  0  0  0  0  0  0  0  0  0
    6.8567   40.3868   72.2730 C   0  0  0  0  0  0  0  0  0  0  0  0
    7.6803   39.8508   71.2888 C   0  0  0  0  0  0  0  0  0  0  0  0
    8.2742   40.6783   70.3369 C   0  0  0  0  0  0  0  0  0  0  0  0
   10.8621   42.7940   66.7767 C   0  0  0  0  0  0  0  0  0  0  0  0
  1  3  1  0  0  0  0
  2  1  1  1  0  0  0
  2  6  1  0  0  0  0
  2 34  1  0  0  0  0
  3  4  2  0  0  0  0
  3 28  1  0  0  0  0
  5 13  1  0  0  0  0
  6  7  1  0  0  0  0
  7  8  1  0  0  0  0
  8  9  1  0  0  0  0
  8 10  1  0  0  0  0
 11 13  2  0  0  0  0
 11 24  1  0  0  0  0
 12 34  1  0  0  0  0
 13 15  1  0  0  0  0
 14 34  1  0  0  0  0
 15 16  1  0  0  0  0
 16 17  1  0  0  0  0
 16 18  2  0  0  0  0
 17 20  1  0  0  0  0
 17 24  2  0  0  0  0
 19 21  1  0  0  0  0
 19 20  1  0  0  0  0
 20 22  1  0  0  0  0
 22 23  1  0  0  0  0
 22 26  1  1  0  0  0
 23 25  1  0  0  0  0
 24 25  1  0  0  0  0
 26 27  1  0  0  0  0
 27 31  1  0  0  0  0
 28 29  2  0  0  0  0
 28 33  1  0  0  0  0
 29 30  1  0  0  0  0
 30 31  2  0  0  0  0
 31 32  1  0  0  0  0
 32 33  2  0  0  0  0
M  END
>  <CHROM.1>
148.86811442,-66.47912192,163.67330782,72.11547428,-97.27336961,-83.71890965
-167.29650222,161.27870645,-48.87371037,130.50225924,7.99775960,41.06708449
73.29228123,1.10628247,-0.39978738,-1.35847917

>  <Name>
ligand

>  <RI>
0

>  <Rbt.Current_Directory>
/home/itssahil/PROJECTS/Mol_Feturizer/New_Systems/rnas/3SUH

>  <Rbt.Executable>
rbdock ($Id: //depot/dev/client3/rdock/2013.1/src/exe/rbdock.cxx#4 $)

>  <Rbt.Library>
libRbt.so (2013.1, Build901 2013/11/27)

>  <Rbt.Parameter_File>
/export/apps/rDock/src/rDock_2013.1_src/data/scripts/dock_solv.prm

>  <Rbt.Receptor>
prm/pocket_docking_4.prm

>  <SCORE>
-12.3127

>  <SCORE.INTER>
-8.12047

>  <SCORE.INTER.CONST>
1

>  <SCORE.INTER.POLAR>
0

>  <SCORE.INTER.ROT>
10

>  <SCORE.INTER.SOLV>
9.01926

>  <SCORE.INTER.VDW>
-18.6867

>  <SCORE.INTER.norm>
-0.238837

>  <SCORE.INTRA>
-4.19218

>  <SCORE.INTRA.DIHEDRAL>
-3.94723

>  <SCORE.INTRA.DIHEDRAL.0>
12.2703

>  <SCORE.INTRA.POLAR>
0

>  <SCORE.INTRA.POLAR.0>
0

>  <SCORE.INTRA.REPUL>
0

>  <SCORE.INTRA.REPUL.0>
0

>  <SCORE.INTRA.SOLV>
-0.51267

>  <SCORE.INTRA.SOLV.lig_0>
-64.3214

>  <SCORE.INTRA.VDW>
-1.96223

>  <SCORE.INTRA.VDW.0>
-1.67301

>  <SCORE.INTRA.norm>
-0.1233

>  <SCORE.RESTR>
0

>  <SCORE.RESTR.CAVITY>
0

>  <SCORE.RESTR.norm>
0

>  <SCORE.SYSTEM>
0

>  <SCORE.SYSTEM.CONST>
0

>  <SCORE.SYSTEM.DIHEDRAL>
0

>  <SCORE.SYSTEM.SOLV>
0

>  <SCORE.SYSTEM.norm>
0

>  <SCORE.heavy>
34

>  <SCORE.norm>
-0.362137

>  <RMSD>
10.359

$$$$
ligand
 OpenBabel11021811483D
libRbt.so/2013.1/901 2013/11/27
 34 36  0  0  0  0  0  0  0  0999 V2000
    8.2022   42.8495   70.0142 N   0  0  0  0  0  0  0  0  0  0  0  0
    8.8901   43.3985   68.8224 C   0  0  1  0  0  0  0  0  0  0  0  0
    8.2493   41.5607   70.3759 C   0  0  0  0  0  0  0  0  0  0  0  0
    8.8668   40.6879   69.7595 O   0  0  0  0  0  0  0  0  0  0  0  0
    3.6575   45.0844   76.9820 N   0  0  0  0  0  0  0  0  0  0  0  0
   10.3953   43.5340   69.1071 C   0  0  0  0  0  0  0  0  0  0  0  0
   10.7238   44.8708   69.7857 C   0  0  0  0  0  0  0  0  0  0  0  0
   12.2350   45.1468   69.7685 C   0  0  0  0  0  0  0  0  0  0  0  0
   12.9203   44.5268   68.9217 O   0  0  0  0  0  0  0  0  0  0  0  0
   12.6716   45.9742   70.6014 O   0  0  0  0  0  0  0  0  0  0  0  0
    4.7245   43.0840   77.4493 N   0  0  0  0  0  0  0  0  0  0  0  0
    7.7002   41.7257   67.5840 O   0  0  0  0  0  0  0  0  0  0  0  0
    3.6404   43.7545   77.0221 C   0  0  0  0  0  0  0  0  0  0  0  0
    9.4900   42.6639   66.6325 O   0  0  0  0  0  0  0  0  0  0  0  0
    2.4887   43.0682   76.6169 N   0  0  0  0  0  0  0  0  0  0  0  0
    2.4841   41.6805   76.6584 C   0  0  0  0  0  0  0  0  0  0  0  0
    3.6314   41.0178   77.0743 C   0  0  0  0  0  0  0  0  0  0  0  0
    1.4894   41.0559   76.2985 O   0  0  0  0  0  0  0  0  0  0  0  0
    2.5356   38.9988   77.5483 C   0  0  0  0  0  0  0  0  0  0  0  0
    3.6502   39.6330   77.1973 N   0  0  0  0  0  0  0  0  0  0  0  0
    2.0426   39.1735   78.6605 O   0  0  0  0  0  0  0  0  0  0  0  0
    4.9295   38.9176   77.1362 C   0  0  2  0  0  0  0  0  0  0  0  0
    5.9182   39.5967   78.0873 C   0  0  0  0  0  0  0  0  0  0  0  0
    4.7375   41.7432   77.4959 C   0  0  0  0  0  0  0  0  0  0  0  0
    5.8768   41.0741   77.9565 N   0  0  0  0  0  0  0  0  0  0  0  0
    5.4808   38.9249   75.7063 C   0  0  0  0  0  0  0  0  0  0  0  0
    5.5757   40.3070   75.2203 N   0  0  0  0  0  0  0  0  0  0  0  0
    7.4997   41.2328   71.6799 C   0  0  0  0  0  0  0  0  0  0  0  0
    6.9832   39.9578   71.8979 C   0  0  0  0  0  0  0  0  0  0  0  0
    6.3538   39.6469   73.1016 C   0  0  0  0  0  0  0  0  0  0  0  0
    6.1942   40.6201   74.0822 C   0  0  0  0  0  0  0  0  0  0  0  0
    6.7014   41.8964   73.8626 C   0  0  0  0  0  0  0  0  0  0  0  0
    7.3627   42.1985   72.6730 C   0  0  0  0  0  0  0  0  0  0  0  0
    8.6714   42.5201   67.5732 C   0  0  0  0  0  0  0  0  0  0  0  0
  1  3  1  0  0  0  0
  2  1  1  1  0  0  0
  2  6  1  0  0  0  0
  2 34  1  0  0  0  0
  3  4  2  0  0  0  0
  3 28  1  0  0  0  0
  5 13  1  0  0  0  0
  6  7  1  0  0  0  0
  7  8  1  0  0  0  0
  8  9  1  0  0  0  0
  8 10  1  0  0  0  0
 11 13  2  0  0  0  0
 11 24  1  0  0  0  0
 12 34  1  0  0  0  0
 13 15  1  0  0  0  0
 14 34  1  0  0  0  0
 15 16  1  0  0  0  0
 16 17  1  0  0  0  0
 16 18  2  0  0  0  0
 17 20  1  0  0  0  0
 17 24  2  0  0  0  0
 19 21  1  0  0  0  0
 19 20  1  0  0  0  0
 20 22  1  0  0  0  0
 22 23  1  0  0  0  0
 22 26  1  6  0  0  0
 23 25  1  0  0  0  0
 24 25  1  0  0  0  0
 26 27  1  0  0  0  0
 27 31  1  0  0  0  0
 28 29  2  0  0  0  0
 28 33  1  0  0  0  0
 29 30  1  0  0  0  0
 30 31  2  0  0  0  0
 31 32  1  0  0  0  0
 32 33  2  0  0  0  0
M  END
>  <CHROM.1>
-76.06372321,-86.19597907,19.53374062,-166.64297155,20.30254105,-65.32469244
54.92420057,170.47220620,22.58691499,153.11524362,6.59883397,41.84630862
73.45354272,0.39205139,-0.85180983,-2.32749024

>  <Name>
ligand

>  <RI>
0

>  <Rbt.Current_Directory>
/home/itssahil/PROJECTS/Mol_Feturizer/New_Systems/rnas/3SUH

>  <Rbt.Executable>
rbdock ($Id: //depot/dev/client3/rdock/2013.1/src/exe/rbdock.cxx#4 $)

>  <Rbt.Library>
libRbt.so (2013.1, Build901 2013/11/27)

>  <Rbt.Parameter_File>
/export/apps/rDock/src/rDock_2013.1_src/data/scripts/dock_solv.prm

>  <Rbt.Receptor>
prm/pocket_docking_3.prm

>  <SCORE>
-4.42559

>  <SCORE.INTER>
-5.05209

>  <SCORE.INTER.CONST>
1

>  <SCORE.INTER.POLAR>
0

>  <SCORE.INTER.ROT>
10

>  <SCORE.INTER.SOLV>
7.03209

>  <SCORE.INTER.VDW>
-15.9788

>  <SCORE.INTER.norm>
-0.148591

>  <SCORE.INTRA>
0.626502

>  <SCORE.INTRA.DIHEDRAL>
-2.62458

>  <SCORE.INTRA.DIHEDRAL.0>
12.2703

>  <SCORE.INTRA.POLAR>
0

>  <SCORE.INTRA.POLAR.0>
0

>  <SCORE.INTRA.REPUL>
0

>  <SCORE.INTRA.REPUL.0>
0

>  <SCORE.INTRA.SOLV>
2.26928

>  <SCORE.INTRA.SOLV.lig_0>
-64.3214

>  <SCORE.INTRA.VDW>
0.804152

>  <SCORE.INTRA.VDW.0>
-1.67301

>  <SCORE.INTRA.norm>
0.0184265

>  <SCORE.RESTR>
0

>  <SCORE.RESTR.CAVITY>
0

>  <SCORE.RESTR.norm>
0

>  <SCORE.SYSTEM>
0

>  <SCORE.SYSTEM.CONST>
0

>  <SCORE.SYSTEM.DIHEDRAL>
0

>  <SCORE.SYSTEM.SOLV>
0

>  <SCORE.SYSTEM.norm>
0

>  <SCORE.heavy>
34

>  <SCORE.norm>
-0.130164

>  <RMSD>
10.365

$$$$
ligand
 OpenBabel11021811483D
libRbt.so/2013.1/901 2013/11/27
 34 36  0  0  0  0  0  0  0  0999 V2000
    8.7523   42.0233   70.2003 N   0  0  0  0  0  0  0  0  0  0  0  0
    9.6031   41.9824   68.9882 C   0  0  1  0  0  0  0  0  0  0  0  0
    7.9219   43.0318   70.4961 C   0  0  0  0  0  0  0  0  0  0  0  0
    7.7731   44.0376   69.7965 O   0  0  0  0  0  0  0  0  0  0  0  0
    7.8859   39.4590   81.9047 N   0  0  0  0  0  0  0  0  0  0  0  0
   10.3890   40.6611   68.9487 C   0  0  0  0  0  0  0  0  0  0  0  0
   11.3945   40.5671   70.1043 C   0  0  0  0  0  0  0  0  0  0  0  0
   10.7080   40.1213   71.4043 C   0  0  0  0  0  0  0  0  0  0  0  0
   10.5170   38.8920   71.5580 O   0  0  0  0  0  0  0  0  0  0  0  0
   10.3913   41.0198   72.2174 O   0  0  0  0  0  0  0  0  0  0  0  0
    6.2952   39.9273   80.2896 N   0  0  0  0  0  0  0  0  0  0  0  0
    7.6078   41.6768   67.6946 O   0  0  0  0  0  0  0  0  0  0  0  0
    7.2002   40.3478   81.1905 C   0  0  0  0  0  0  0  0  0  0  0  0
    9.3365   42.7128   66.7319 O   0  0  0  0  0  0  0  0  0  0  0  0
    7.4313   41.7151   81.3874 N   0  0  0  0  0  0  0  0  0  0  0  0
    6.7135   42.6332   80.6329 C   0  0  0  0  0  0  0  0  0  0  0  0
    5.8096   42.1650   79.6884 C   0  0  0  0  0  0  0  0  0  0  0  0
    6.9059   43.8375   80.7803 O   0  0  0  0  0  0  0  0  0  0  0  0
    4.6277   44.1845   79.5240 C   0  0  0  0  0  0  0  0  0  0  0  0
    5.0195   43.0465   78.9589 N   0  0  0  0  0  0  0  0  0  0  0  0
    3.6772   44.1992   80.3028 O   0  0  0  0  0  0  0  0  0  0  0  0
    4.4682   42.6254   77.6663 C   0  0  2  0  0  0  0  0  0  0  0  0
    3.8026   41.2576   77.8380 C   0  0  0  0  0  0  0  0  0  0  0  0
    5.5927   40.8005   79.5520 C   0  0  0  0  0  0  0  0  0  0  0  0
    4.6493   40.3323   78.6308 N   0  0  0  0  0  0  0  0  0  0  0  0
    5.5762   42.5457   76.6106 C   0  0  0  0  0  0  0  0  0  0  0  0
    4.9850   42.2848   75.2924 N   0  0  0  0  0  0  0  0  0  0  0  0
    7.1003   42.8299   71.7822 C   0  0  0  0  0  0  0  0  0  0  0  0
    6.9401   41.5583   72.3274 C   0  0  0  0  0  0  0  0  0  0  0  0
    6.2432   41.3843   73.5214 C   0  0  0  0  0  0  0  0  0  0  0  0
    5.6606   42.4742   74.1595 C   0  0  0  0  0  0  0  0  0  0  0  0
    5.8120   43.7436   73.6117 C   0  0  0  0  0  0  0  0  0  0  0  0
    6.5393   43.9233   72.4359 C   0  0  0  0  0  0  0  0  0  0  0  0
    8.7752   42.1369   67.6956 C   0  0  0  0  0  0  0  0  0  0  0  0
  1  3  1  0  0  0  0
  2  1  1  1  0  0  0
  2  6  1  0  0  0  0
  2 34  1  0  0  0  0
  3  4  2  0  0  0  0
  3 28  1  0  0  0  0
  5 13  1  0  0  0  0
  6  7  1  0  0  0  0
  7  8  1  0  0  0  0
  8  9  1  0  0  0  0
  8 10  1  0  0  0  0
 11 13  2  0  0  0  0
 11 24  1  0  0  0  0
 12 34  1  0  0  0  0
 13 15  1  0  0  0  0
 14 34  1  0  0  0  0
 15 16  1  0  0  0  0
 16 17  1  0  0  0  0
 16 18  2  0  0  0  0
 17 20  1  0  0  0  0
 17 24  2  0  0  0  0
 19 21  1  0  0  0  0
 19 20  1  0  0  0  0
 20 22  1  0  0  0  0
 22 23  1  0  0  0  0
 22 26  1  6  0  0  0
 23 25  1  0  0  0  0
 24 25  1  0  0  0  0
 26 27  1  0  0  0  0
 27 31  1  0  0  0  0
 28 29  2  0  0  0  0
 28 33  1  0  0  0  0
 29 30  1  0  0  0  0
 30 31  2  0  0  0  0
 31 32  1  0  0  0  0
 32 33  2  0  0  0  0
M  END
>  <CHROM.1>
-178.10435084,-65.51669944,-31.97955614,81.10356051,82.18513515,-79.86217267
-173.11111170,163.93078543,99.40372873,-18.76400547,7.15524034,41.94753540
74.78243124,1.17556485,0.66992605,-1.33742653

>  <Name>
ligand

>  <RI>
0

>  <Rbt.Current_Directory>
/home/itssahil/PROJECTS/Mol_Feturizer/New_Systems/rnas/3SUH

>  <Rbt.Executable>
rbdock ($Id: //depot/dev/client3/rdock/2013.1/src/exe/rbdock.cxx#4 $)

>  <Rbt.Library>
libRbt.so (2013.1, Build901 2013/11/27)

>  <Rbt.Parameter_File>
/export/apps/rDock/src/rDock_2013.1_src/data/scripts/dock_solv.prm

>  <Rbt.Receptor>
prm/pocket_docking_6.prm

>  <SCORE>
-7.29615

>  <SCORE.INTER>
-2.95956

>  <SCORE.INTER.CONST>
1

>  <SCORE.INTER.POLAR>
0

>  <SCORE.INTER.ROT>
10

>  <SCORE.INTER.SOLV>
6.46444

>  <SCORE.INTER.VDW>
-14.3945

>  <SCORE.INTER.norm>
-0.0870459

>  <SCORE.INTRA>
-4.33659

>  <SCORE.INTRA.DIHEDRAL>
-3.88328

>  <SCORE.INTRA.DIHEDRAL.0>
12.2703

>  <SCORE.INTRA.POLAR>
0

>  <SCORE.INTRA.POLAR.0>
0

>  <SCORE.INTRA.REPUL>
0

>  <SCORE.INTRA.REPUL.0>
0

>  <SCORE.INTRA.SOLV>
-0.47094

>  <SCORE.INTRA.SOLV.lig_0>
-64.3214

>  <SCORE.INTRA.VDW>
-2.15948

>  <SCORE.INTRA.VDW.0>
-1.67301

>  <SCORE.INTRA.norm>
-0.127547

>  <SCORE.RESTR>
0

>  <SCORE.RESTR.CAVITY>
0

>  <SCORE.RESTR.norm>
0

>  <SCORE.SYSTEM>
0

>  <SCORE.SYSTEM.CONST>
0

>  <SCORE.SYSTEM.DIHEDRAL>
0

>  <SCORE.SYSTEM.SOLV>
0

>  <SCORE.SYSTEM.norm>
0

>  <SCORE.heavy>
34

>  <SCORE.norm>
-0.214593

>  <RMSD>
10.383

$$$$
ligand
 OpenBabel11021811483D
libRbt.so/2013.1/901 2013/11/27
 34 36  0  0  0  0  0  0  0  0999 V2000
   10.0516   43.1353   69.1706 N   0  0  0  0  0  0  0  0  0  0  0  0
   10.8901   43.7396   68.1093 C   0  0  1  0  0  0  0  0  0  0  0  0
    8.7433   43.3811   69.3192 C   0  0  0  0  0  0  0  0  0  0  0  0
    8.0912   44.1367   68.5933 O   0  0  0  0  0  0  0  0  0  0  0  0
    2.8740   37.6507   79.4540 N   0  0  0  0  0  0  0  0  0  0  0  0
   12.3519   43.8151   68.5811 C   0  0  0  0  0  0  0  0  0  0  0  0
   12.4854   44.6215   69.8800 C   0  0  0  0  0  0  0  0  0  0  0  0
   12.0079   43.8070   71.0920 C   0  0  0  0  0  0  0  0  0  0  0  0
   10.8823   44.0913   71.5647 O   0  0  0  0  0  0  0  0  0  0  0  0
   12.7782   42.9159   71.5177 O   0  0  0  0  0  0  0  0  0  0  0  0
    4.1074   39.4404   78.6580 N   0  0  0  0  0  0  0  0  0  0  0  0
   11.2289   43.5101   65.7470 O   0  0  0  0  0  0  0  0  0  0  0  0
    3.8618   38.1192   78.6956 C   0  0  0  0  0  0  0  0  0  0  0  0
   10.3186   41.7945   66.8502 O   0  0  0  0  0  0  0  0  0  0  0  0
    4.6353   37.2262   77.9433 N   0  0  0  0  0  0  0  0  0  0  0  0
    5.6601   37.7271   77.1518 C   0  0  0  0  0  0  0  0  0  0  0  0
    5.8666   39.0997   77.1108 C   0  0  0  0  0  0  0  0  0  0  0  0
    6.3457   36.9647   76.4751 O   0  0  0  0  0  0  0  0  0  0  0  0
    8.0528   38.9482   76.2741 C   0  0  0  0  0  0  0  0  0  0  0  0
    6.9233   39.6406   76.3868 N   0  0  0  0  0  0  0  0  0  0  0  0
    8.8189   38.8452   77.2295 O   0  0  0  0  0  0  0  0  0  0  0  0
    6.8524   41.0339   75.9331 C   0  0  2  0  0  0  0  0  0  0  0  0
    6.4502   41.9165   77.1174 C   0  0  0  0  0  0  0  0  0  0  0  0
    5.0935   39.9417   77.8987 C   0  0  0  0  0  0  0  0  0  0  0  0
    5.3323   41.3203   77.8897 N   0  0  0  0  0  0  0  0  0  0  0  0
    5.8343   41.1772   74.7966 C   0  0  0  0  0  0  0  0  0  0  0  0
    6.3452   40.5167   73.5892 N   0  0  0  0  0  0  0  0  0  0  0  0
    8.0695   42.5987   70.4610 C   0  0  0  0  0  0  0  0  0  0  0  0
    8.4157   41.2731   70.7112 C   0  0  0  0  0  0  0  0  0  0  0  0
    7.8456   40.5837   71.7796 C   0  0  0  0  0  0  0  0  0  0  0  0
    6.8899   41.1981   72.5818 C   0  0  0  0  0  0  0  0  0  0  0  0
    6.5364   42.5190   72.3278 C   0  0  0  0  0  0  0  0  0  0  0  0
    7.1324   43.2210   71.2810 C   0  0  0  0  0  0  0  0  0  0  0  0
   10.8078   42.9488   66.7873 C   0  0  0  0  0  0  0  0  0  0  0  0
  1  3  1  0  0  0  0
  2  1  1  1  0  0  0
  2  6  1  0  0  0  0
  2 34  1  0  0  0  0
  3  4  2  0  0  0  0
  3 28  1  0  0  0  0
  5 13  1  0  0  0  0
  6  7  1  0  0  0  0
  7  8  1  0  0  0  0
  8  9  1  0  0  0  0
  8 10  1  0  0  0  0
 11 13  2  0  0  0  0
 11 24  1  0  0  0  0
 12 34  1  0  0  0  0
 13 15  1  0  0  0  0
 14 34  1  0  0  0  0
 15 16  1  0  0  0  0
 16 17  1  0  0  0  0
 16 18  2  0  0  0  0
 17 20  1  0  0  0  0
 17 24  2  0  0  0  0
 19 21  1  0  0  0  0
 19 20  1  0  0  0  0
 20 22  1  0  0  0  0
 22 23  1  0  0  0  0
 22 26  1  6  0  0  0
 23 25  1  0  0  0  0
 24 25  1  0  0  0  0
 26 27  1  0  0  0  0
 27 31  1  0  0  0  0
 28 29  2  0  0  0  0
 28 33  1  0  0  0  0
 29 30  1  0  0  0  0
 30 31  2  0  0  0  0
 31 32  1  0  0  0  0
 32 33  2  0  0  0  0
M  END
>  <CHROM.1>
153.11376690,-57.72180206,164.75621986,75.79339797,-103.59864006,-73.73889236
-69.58795472,-101.37907121,151.95552634,-38.91506223,7.97714844,41.27059605
73.16670416,1.05507510,-0.28615042,-1.26607226

>  <Name>
ligand

>  <RI>
0

>  <Rbt.Current_Directory>
/home/itssahil/PROJECTS/Mol_Feturizer/New_Systems/rnas/3SUH

>  <Rbt.Executable>
rbdock ($Id: //depot/dev/client3/rdock/2013.1/src/exe/rbdock.cxx#4 $)

>  <Rbt.Library>
libRbt.so (2013.1, Build901 2013/11/27)

>  <Rbt.Parameter_File>
/export/apps/rDock/src/rDock_2013.1_src/data/scripts/dock_solv.prm

>  <Rbt.Receptor>
prm/pocket_docking_4.prm

>  <SCORE>
-9.74

>  <SCORE.INTER>
-6.04296

>  <SCORE.INTER.CONST>
1

>  <SCORE.INTER.POLAR>
0

>  <SCORE.INTER.ROT>
10

>  <SCORE.INTER.SOLV>
8.17789

>  <SCORE.INTER.VDW>
-17.0213

>  <SCORE.INTER.norm>
-0.177734

>  <SCORE.INTRA>
-3.69704

>  <SCORE.INTRA.DIHEDRAL>
-3.25059

>  <SCORE.INTRA.DIHEDRAL.0>
12.2703

>  <SCORE.INTRA.POLAR>
0

>  <SCORE.INTRA.POLAR.0>
0

>  <SCORE.INTRA.REPUL>
0

>  <SCORE.INTRA.REPUL.0>
0

>  <SCORE.INTRA.SOLV>
-0.175036

>  <SCORE.INTRA.SOLV.lig_0>
-64.3214

>  <SCORE.INTRA.VDW>
-1.98423

>  <SCORE.INTRA.VDW.0>
-1.67301

>  <SCORE.INTRA.norm>
-0.108737

>  <SCORE.RESTR>
0

>  <SCORE.RESTR.CAVITY>
0

>  <SCORE.RESTR.norm>
0

>  <SCORE.SYSTEM>
0

>  <SCORE.SYSTEM.CONST>
0

>  <SCORE.SYSTEM.DIHEDRAL>
0

>  <SCORE.SYSTEM.SOLV>
0

>  <SCORE.SYSTEM.norm>
0

>  <SCORE.heavy>
34

>  <SCORE.norm>
-0.286471

>  <RMSD>
10.388

$$$$
ligand
 OpenBabel11021811483D
libRbt.so/2013.1/901 2013/11/27
 34 36  0  0  0  0  0  0  0  0999 V2000
    7.9070   42.9743   70.1024 N   0  0  0  0  0  0  0  0  0  0  0  0
    8.4405   43.7636   68.9679 C   0  0  1  0  0  0  0  0  0  0  0  0
    7.6339   41.6646   70.0379 C   0  0  0  0  0  0  0  0  0  0  0  0
    7.7934   40.9702   69.0301 O   0  0  0  0  0  0  0  0  0  0  0  0
    2.5360   43.3834   76.8046 N   0  0  0  0  0  0  0  0  0  0  0  0
    8.8111   45.1774   69.4466 C   0  0  0  0  0  0  0  0  0  0  0  0
    7.5626   46.0148   69.7549 C   0  0  0  0  0  0  0  0  0  0  0  0
    7.9408   47.4423   70.1784 C   0  0  0  0  0  0  0  0  0  0  0  0
    7.9022   47.7049   71.4034 O   0  0  0  0  0  0  0  0  0  0  0  0
    8.2630   48.2394   69.2675 O   0  0  0  0  0  0  0  0  0  0  0  0
    4.2790   41.8989   77.1458 N   0  0  0  0  0  0  0  0  0  0  0  0
    9.6096   42.8189   67.1001 O   0  0  0  0  0  0  0  0  0  0  0  0
    2.9827   42.1321   76.8765 C   0  0  0  0  0  0  0  0  0  0  0  0
   10.6468   42.8606   69.0778 O   0  0  0  0  0  0  0  0  0  0  0  0
    2.0929   41.0705   76.6696 N   0  0  0  0  0  0  0  0  0  0  0  0
    2.5713   39.7692   76.7422 C   0  0  0  0  0  0  0  0  0  0  0  0
    3.9221   39.5637   76.9904 C   0  0  0  0  0  0  0  0  0  0  0  0
    1.8124   38.8216   76.5543 O   0  0  0  0  0  0  0  0  0  0  0  0
    3.6634   37.3345   77.6730 C   0  0  0  0  0  0  0  0  0  0  0  0
    4.4325   38.2790   77.1399 N   0  0  0  0  0  0  0  0  0  0  0  0
    3.4805   37.2912   78.8875 O   0  0  0  0  0  0  0  0  0  0  0  0
    5.8584   38.0332   76.8978 C   0  0  2  0  0  0  0  0  0  0  0  0
    6.6743   39.0737   77.6693 C   0  0  0  0  0  0  0  0  0  0  0  0
    4.7583   40.6480   77.2197 C   0  0  0  0  0  0  0  0  0  0  0  0
    6.1100   40.4371   77.5135 N   0  0  0  0  0  0  0  0  0  0  0  0
    6.1712   38.1200   75.4001 C   0  0  0  0  0  0  0  0  0  0  0  0
    5.7024   39.4067   74.8710 N   0  0  0  0  0  0  0  0  0  0  0  0
    7.1373   41.0472   71.3577 C   0  0  0  0  0  0  0  0  0  0  0  0
    6.7532   41.8622   72.4199 C   0  0  0  0  0  0  0  0  0  0  0  0
    6.2514   41.3033   73.5936 C   0  0  0  0  0  0  0  0  0  0  0  0
    6.1706   39.9220   73.7347 C   0  0  0  0  0  0  0  0  0  0  0  0
    6.5621   39.1064   72.6783 C   0  0  0  0  0  0  0  0  0  0  0  0
    7.0308   39.6657   71.4904 C   0  0  0  0  0  0  0  0  0  0  0  0
    9.6703   43.0909   68.3236 C   0  0  0  0  0  0  0  0  0  0  0  0
  1  3  1  0  0  0  0
  2  1  1  1  0  0  0
  2  6  1  0  0  0  0
  2 34  1  0  0  0  0
  3  4  2  0  0  0  0
  3 28  1  0  0  0  0
  5 13  1  0  0  0  0
  6  7  1  0  0  0  0
  7  8  1  0  0  0  0
  8  9  1  0  0  0  0
  8 10  1  0  0  0  0
 11 13  2  0  0  0  0
 11 24  1  0  0  0  0
 12 34  1  0  0  0  0
 13 15  1  0  0  0  0
 14 34  1  0  0  0  0
 15 16  1  0  0  0  0
 16 17  1  0  0  0  0
 16 18  2  0  0  0  0
 17 20  1  0  0  0  0
 17 24  2  0  0  0  0
 19 21  1  0  0  0  0
 19 20  1  0  0  0  0
 20 22  1  0  0  0  0
 22 23  1  0  0  0  0
 22 26  1  6  0  0  0
 23 25  1  0  0  0  0
 24 25  1  0  0  0  0
 26 27  1  0  0  0  0
 27 31  1  0  0  0  0
 28 29  2  0  0  0  0
 28 33  1  0  0  0  0
 29 30  1  0  0  0  0
 30 31  2  0  0  0  0
 31 32  1  0  0  0  0
 32 33  2  0  0  0  0
M  END
>  <CHROM.1>
-172.42693012,-71.29287441,122.39112945,-177.73641686,-101.85799561,-77.49281714
54.22202189,159.80004063,-148.23733048,12.51258068,6.17712992,41.54443408
73.46298930,-0.72472184,-0.94614214,2.90932659

>  <Name>
ligand

>  <RI>
0

>  <Rbt.Current_Directory>
/home/itssahil/PROJECTS/Mol_Feturizer/New_Systems/rnas/3SUH

>  <Rbt.Executable>
rbdock ($Id: //depot/dev/client3/rdock/2013.1/src/exe/rbdock.cxx#4 $)

>  <Rbt.Library>
libRbt.so (2013.1, Build901 2013/11/27)

>  <Rbt.Parameter_File>
/export/apps/rDock/src/rDock_2013.1_src/data/scripts/dock_solv.prm

>  <Rbt.Receptor>
prm/pocket_docking_6.prm

>  <SCORE>
-9.94481

>  <SCORE.INTER>
-6.98138

>  <SCORE.INTER.CONST>
1

>  <SCORE.INTER.POLAR>
0

>  <SCORE.INTER.ROT>
10

>  <SCORE.INTER.SOLV>
8.319

>  <SCORE.INTER.VDW>
-17.6939

>  <SCORE.INTER.norm>
-0.205335

>  <SCORE.INTRA>
-2.96343

>  <SCORE.INTRA.DIHEDRAL>
-5.16919

>  <SCORE.INTRA.DIHEDRAL.0>
12.2703

>  <SCORE.INTRA.POLAR>
0

>  <SCORE.INTRA.POLAR.0>
0

>  <SCORE.INTRA.REPUL>
0

>  <SCORE.INTRA.REPUL.0>
0

>  <SCORE.INTRA.SOLV>
2.01082

>  <SCORE.INTRA.SOLV.lig_0>
-64.3214

>  <SCORE.INTRA.VDW>
-1.38424

>  <SCORE.INTRA.VDW.0>
-1.67301

>  <SCORE.INTRA.norm>
-0.0871597

>  <SCORE.RESTR>
0

>  <SCORE.RESTR.CAVITY>
0

>  <SCORE.RESTR.norm>
0

>  <SCORE.SYSTEM>
0

>  <SCORE.SYSTEM.CONST>
0

>  <SCORE.SYSTEM.DIHEDRAL>
0

>  <SCORE.SYSTEM.SOLV>
0

>  <SCORE.SYSTEM.norm>
0

>  <SCORE.heavy>
34

>  <SCORE.norm>
-0.292494

>  <RMSD>
10.388

$$$$
ligand
 OpenBabel11021811483D
libRbt.so/2013.1/901 2013/11/27
 34 36  0  0  0  0  0  0  0  0999 V2000
    8.4085   43.2180   70.9119 N   0  0  0  0  0  0  0  0  0  0  0  0
    9.1114   43.6954   69.6983 C   0  0  1  0  0  0  0  0  0  0  0  0
    7.1034   43.4110   71.1435 C   0  0  0  0  0  0  0  0  0  0  0  0
    6.3421   44.0073   70.3766 O   0  0  0  0  0  0  0  0  0  0  0  0
    3.5315   35.9812   80.7174 N   0  0  0  0  0  0  0  0  0  0  0  0
    8.5768   42.9533   68.4618 C   0  0  0  0  0  0  0  0  0  0  0  0
    9.1221   41.5210   68.3829 C   0  0  0  0  0  0  0  0  0  0  0  0
    8.7136   40.7015   69.6165 C   0  0  0  0  0  0  0  0  0  0  0  0
    9.6220   40.0821   70.2184 O   0  0  0  0  0  0  0  0  0  0  0  0
    7.5017   40.7146   69.9323 O   0  0  0  0  0  0  0  0  0  0  0  0
    5.3010   37.1518   79.7916 N   0  0  0  0  0  0  0  0  0  0  0  0
    7.8322   45.6461   69.1451 O   0  0  0  0  0  0  0  0  0  0  0  0
    4.1042   36.5534   79.6614 C   0  0  0  0  0  0  0  0  0  0  0  0
    9.9753   45.9199   69.7117 O   0  0  0  0  0  0  0  0  0  0  0  0
    3.4497   36.5247   78.4235 N   0  0  0  0  0  0  0  0  0  0  0  0
    4.0545   37.1293   77.3297 C   0  0  0  0  0  0  0  0  0  0  0  0
    5.2758   37.7665   77.5055 C   0  0  0  0  0  0  0  0  0  0  0  0
    3.4955   37.1261   76.2359 O   0  0  0  0  0  0  0  0  0  0  0  0
    5.8336   37.7621   75.2271 C   0  0  0  0  0  0  0  0  0  0  0  0
    5.9506   38.3253   76.4259 N   0  0  0  0  0  0  0  0  0  0  0  0
    6.6098   36.8764   74.8759 O   0  0  0  0  0  0  0  0  0  0  0  0
    6.9292   39.3934   76.6574 C   0  0  2  0  0  0  0  0  0  0  0  0
    7.8827   38.9534   77.7712 C   0  0  0  0  0  0  0  0  0  0  0  0
    5.8998   37.7409   78.7455 C   0  0  0  0  0  0  0  0  0  0  0  0
    7.1510   38.3453   78.9098 N   0  0  0  0  0  0  0  0  0  0  0  0
    6.2208   40.6943   77.0507 C   0  0  0  0  0  0  0  0  0  0  0  0
    5.2855   41.0879   75.9898 N   0  0  0  0  0  0  0  0  0  0  0  0
    6.5832   42.7796   72.4475 C   0  0  0  0  0  0  0  0  0  0  0  0
    6.7405   41.4164   72.6858 C   0  0  0  0  0  0  0  0  0  0  0  0
    6.3191   40.8565   73.8902 C   0  0  0  0  0  0  0  0  0  0  0  0
    5.6952   41.6454   74.8508 C   0  0  0  0  0  0  0  0  0  0  0  0
    5.5293   43.0053   74.6109 C   0  0  0  0  0  0  0  0  0  0  0  0
    5.9826   43.5730   73.4210 C   0  0  0  0  0  0  0  0  0  0  0  0
    8.9564   45.2176   69.5018 C   0  0  0  0  0  0  0  0  0  0  0  0
  1  3  1  0  0  0  0
  2  1  1  1  0  0  0
  2  6  1  0  0  0  0
  2 34  1  0  0  0  0
  3  4  2  0  0  0  0
  3 28  1  0  0  0  0
  5 13  1  0  0  0  0
  6  7  1  0  0  0  0
  7  8  1  0  0  0  0
  8  9  1  0  0  0  0
  8 10  1  0  0  0  0
 11 13  2  0  0  0  0
 11 24  1  0  0  0  0
 12 34  1  0  0  0  0
 13 15  1  0  0  0  0
 14 34  1  0  0  0  0
 15 16  1  0  0  0  0
 16 17  1  0  0  0  0
 16 18  2  0  0  0  0
 17 20  1  0  0  0  0
 17 24  2  0  0  0  0
 19 21  1  0  0  0  0
 19 20  1  0  0  0  0
 20 22  1  0  0  0  0
 22 23  1  0  0  0  0
 22 26  1  1  0  0  0
 23 25  1  0  0  0  0
 24 25  1  0  0  0  0
 26 27  1  0  0  0  0
 27 31  1  0  0  0  0
 28 29  2  0  0  0  0
 28 33  1  0  0  0  0
 29 30  1  0  0  0  0
 30 31  2  0  0  0  0
 31 32  1  0  0  0  0
 32 33  2  0  0  0  0
M  END
>  <CHROM.1>
-65.92789948,-75.80667722,-71.87469284,60.32501063,-129.61308801,-89.36323737
-58.43499301,-76.48396445,74.17170446,-56.40598380,6.65828165,40.52577685
74.04423210,0.72170691,1.14912908,-0.14305537

>  <Name>
ligand

>  <RI>
0

>  <Rbt.Current_Directory>
/home/itssahil/PROJECTS/Mol_Feturizer/New_Systems/rnas/3SUH

>  <Rbt.Executable>
rbdock ($Id: //depot/dev/client3/rdock/2013.1/src/exe/rbdock.cxx#4 $)

>  <Rbt.Library>
libRbt.so (2013.1, Build901 2013/11/27)

>  <Rbt.Parameter_File>
/export/apps/rDock/src/rDock_2013.1_src/data/scripts/dock_solv.prm

>  <Rbt.Receptor>
prm/pocket_docking_7.prm

>  <SCORE>
-8.67132

>  <SCORE.INTER>
-4.32969

>  <SCORE.INTER.CONST>
1

>  <SCORE.INTER.POLAR>
0

>  <SCORE.INTER.ROT>
10

>  <SCORE.INTER.SOLV>
6.634

>  <SCORE.INTER.VDW>
-15.3645

>  <SCORE.INTER.norm>
-0.127344

>  <SCORE.INTRA>
-4.34163

>  <SCORE.INTRA.DIHEDRAL>
-4.92309

>  <SCORE.INTRA.DIHEDRAL.0>
12.2703

>  <SCORE.INTRA.POLAR>
0

>  <SCORE.INTRA.POLAR.0>
0

>  <SCORE.INTRA.REPUL>
0

>  <SCORE.INTRA.REPUL.0>
0

>  <SCORE.INTRA.SOLV>
0.62823

>  <SCORE.INTRA.SOLV.lig_0>
-64.3214

>  <SCORE.INTRA.VDW>
-2.1942

>  <SCORE.INTRA.VDW.0>
-1.67301

>  <SCORE.INTRA.norm>
-0.127695

>  <SCORE.RESTR>
0

>  <SCORE.RESTR.CAVITY>
0

>  <SCORE.RESTR.norm>
0

>  <SCORE.SYSTEM>
0

>  <SCORE.SYSTEM.CONST>
0

>  <SCORE.SYSTEM.DIHEDRAL>
0

>  <SCORE.SYSTEM.SOLV>
0

>  <SCORE.SYSTEM.norm>
0

>  <SCORE.heavy>
34

>  <SCORE.norm>
-0.255039

>  <RMSD>
10.389

$$$$
ligand
 OpenBabel11021811483D
libRbt.so/2013.1/901 2013/11/27
 34 36  0  0  0  0  0  0  0  0999 V2000
   10.1707   42.8352   68.9580 N   0  0  0  0  0  0  0  0  0  0  0  0
   10.9871   43.6541   68.0319 C   0  0  1  0  0  0  0  0  0  0  0  0
    8.8549   43.0048   69.1425 C   0  0  0  0  0  0  0  0  0  0  0  0
    8.1767   43.8597   68.5660 O   0  0  0  0  0  0  0  0  0  0  0  0
   10.2250   36.7871   78.8901 N   0  0  0  0  0  0  0  0  0  0  0  0
   12.3799   43.8929   68.6389 C   0  0  0  0  0  0  0  0  0  0  0  0
   12.2912   44.6205   69.9874 C   0  0  0  0  0  0  0  0  0  0  0  0
   11.6432   46.0046   69.8311 C   0  0  0  0  0  0  0  0  0  0  0  0
   12.3920   46.9525   69.4967 O   0  0  0  0  0  0  0  0  0  0  0  0
   10.4120   46.0839   70.0471 O   0  0  0  0  0  0  0  0  0  0  0  0
    8.8156   36.6929   77.0562 N   0  0  0  0  0  0  0  0  0  0  0  0
   10.7618   41.7969   66.5327 O   0  0  0  0  0  0  0  0  0  0  0  0
    9.1312   37.2054   78.2583 C   0  0  0  0  0  0  0  0  0  0  0  0
   11.6050   43.7020   65.7273 O   0  0  0  0  0  0  0  0  0  0  0  0
    8.3202   38.1782   78.8564 N   0  0  0  0  0  0  0  0  0  0  0  0
    7.1841   38.6106   78.1857 C   0  0  0  0  0  0  0  0  0  0  0  0
    6.9042   38.0842   76.9315 C   0  0  0  0  0  0  0  0  0  0  0  0
    6.4626   39.4702   78.6853 O   0  0  0  0  0  0  0  0  0  0  0  0
    4.6445   38.7131   76.9503 C   0  0  0  0  0  0  0  0  0  0  0  0
    5.7424   38.4361   76.2534 N   0  0  0  0  0  0  0  0  0  0  0  0
    3.8966   37.8109   77.3203 O   0  0  0  0  0  0  0  0  0  0  0  0
    5.6873   38.3032   74.7935 C   0  0  2  0  0  0  0  0  0  0  0  0
    6.1823   36.9068   74.4081 C   0  0  0  0  0  0  0  0  0  0  0  0
    7.7217   37.0991   76.3941 C   0  0  0  0  0  0  0  0  0  0  0  0
    7.4133   36.5383   75.1499 N   0  0  0  0  0  0  0  0  0  0  0  0
    6.5540   39.3752   74.1239 C   0  0  0  0  0  0  0  0  0  0  0  0
    6.3871   39.3067   72.6669 N   0  0  0  0  0  0  0  0  0  0  0  0
    8.2092   42.0016   70.1154 C   0  0  0  0  0  0  0  0  0  0  0  0
    7.3045   42.4350   71.0817 C   0  0  0  0  0  0  0  0  0  0  0  0
    6.6788   41.5190   71.9249 C   0  0  0  0  0  0  0  0  0  0  0  0
    6.9848   40.1648   71.8411 C   0  0  0  0  0  0  0  0  0  0  0  0
    7.8947   39.7314   70.8827 C   0  0  0  0  0  0  0  0  0  0  0  0
    8.4945   40.6429   70.0149 C   0  0  0  0  0  0  0  0  0  0  0  0
   11.1278   42.9918   66.6458 C   0  0  0  0  0  0  0  0  0  0  0  0
  1  3  1  0  0  0  0
  2  1  1  1  0  0  0
  2  6  1  0  0  0  0
  2 34  1  0  0  0  0
  3  4  2  0  0  0  0
  3 28  1  0  0  0  0
  5 13  1  0  0  0  0
  6  7  1  0  0  0  0
  7  8  1  0  0  0  0
  8  9  1  0  0  0  0
  8 10  1  0  0  0  0
 11 13  2  0  0  0  0
 11 24  1  0  0  0  0
 12 34  1  0  0  0  0
 13 15  1  0  0  0  0
 14 34  1  0  0  0  0
 15 16  1  0  0  0  0
 16 17  1  0  0  0  0
 16 18  2  0  0  0  0
 17 20  1  0  0  0  0
 17 24  2  0  0  0  0
 19 21  1  0  0  0  0
 19 20  1  0  0  0  0
 20 22  1  0  0  0  0
 22 23  1  0  0  0  0
 22 26  1  6  0  0  0
 23 25  1  0  0  0  0
 24 25  1  0  0  0  0
 26 27  1  0  0  0  0
 27 31  1  0  0  0  0
 28 29  2  0  0  0  0
 28 33  1  0  0  0  0
 29 30  1  0  0  0  0
 30 31  2  0  0  0  0
 31 32  1  0  0  0  0
 32 33  2  0  0  0  0
M  END
>  <CHROM.1>
143.37573596,-59.54533125,-11.82029772,-61.35193431,-84.76473405,-84.56734146
-174.70746667,177.12197386,-62.29952598,135.80104737,8.48784881,40.74902491
72.68603312,1.13967643,-0.60045518,-1.20425859

>  <Name>
ligand

>  <RI>
0

>  <Rbt.Current_Directory>
/home/itssahil/PROJECTS/Mol_Feturizer/New_Systems/rnas/3SUH

>  <Rbt.Executable>
rbdock ($Id: //depot/dev/client3/rdock/2013.1/src/exe/rbdock.cxx#4 $)

>  <Rbt.Library>
libRbt.so (2013.1, Build901 2013/11/27)

>  <Rbt.Parameter_File>
/export/apps/rDock/src/rDock_2013.1_src/data/scripts/dock_solv.prm

>  <Rbt.Receptor>
prm/pocket_docking_6.prm

>  <SCORE>
-14.2446

>  <SCORE.INTER>
-9.63057

>  <SCORE.INTER.CONST>
1

>  <SCORE.INTER.POLAR>
0

>  <SCORE.INTER.ROT>
10

>  <SCORE.INTER.SOLV>
9.19233

>  <SCORE.INTER.VDW>
-19.7512

>  <SCORE.INTER.norm>
-0.283252

>  <SCORE.INTRA>
-4.614

>  <SCORE.INTRA.DIHEDRAL>
-5.28758

>  <SCORE.INTRA.DIHEDRAL.0>
12.2703

>  <SCORE.INTRA.POLAR>
0

>  <SCORE.INTRA.POLAR.0>
0

>  <SCORE.INTRA.REPUL>
0

>  <SCORE.INTRA.REPUL.0>
0

>  <SCORE.INTRA.SOLV>
-0.656804

>  <SCORE.INTRA.SOLV.lig_0>
-64.3214

>  <SCORE.INTRA.VDW>
-1.6418

>  <SCORE.INTRA.VDW.0>
-1.67301

>  <SCORE.INTRA.norm>
-0.135706

>  <SCORE.RESTR>
0

>  <SCORE.RESTR.CAVITY>
0

>  <SCORE.RESTR.norm>
0

>  <SCORE.SYSTEM>
0

>  <SCORE.SYSTEM.CONST>
0

>  <SCORE.SYSTEM.DIHEDRAL>
0

>  <SCORE.SYSTEM.SOLV>
0

>  <SCORE.SYSTEM.norm>
0

>  <SCORE.heavy>
34

>  <SCORE.norm>
-0.418958

>  <RMSD>
10.407

$$$$
ligand
 OpenBabel11021811483D
libRbt.so/2013.1/901 2013/11/27
 34 36  0  0  0  0  0  0  0  0999 V2000
    8.3942   41.9477   70.6354 N   0  0  0  0  0  0  0  0  0  0  0  0
    8.9987   42.2708   69.3219 C   0  0  1  0  0  0  0  0  0  0  0  0
    7.2637   42.5010   71.0934 C   0  0  0  0  0  0  0  0  0  0  0  0
    6.6011   43.3401   70.4769 O   0  0  0  0  0  0  0  0  0  0  0  0
    0.3993   42.5382   75.9947 N   0  0  0  0  0  0  0  0  0  0  0  0
   10.5299   42.1599   69.4127 C   0  0  0  0  0  0  0  0  0  0  0  0
   11.1167   43.2086   70.3673 C   0  0  0  0  0  0  0  0  0  0  0  0
   12.5404   42.8298   70.8028 C   0  0  0  0  0  0  0  0  0  0  0  0
   12.9536   43.3071   71.8856 O   0  0  0  0  0  0  0  0  0  0  0  0
   13.1837   42.0687   70.0440 O   0  0  0  0  0  0  0  0  0  0  0  0
    2.4678   42.4858   77.0326 N   0  0  0  0  0  0  0  0  0  0  0  0
    9.0754   40.2648   68.0112 O   0  0  0  0  0  0  0  0  0  0  0  0
    1.3574   41.8537   76.6144 C   0  0  0  0  0  0  0  0  0  0  0  0
    7.4773   41.7575   67.5564 O   0  0  0  0  0  0  0  0  0  0  0  0
    1.1957   40.4783   76.8234 N   0  0  0  0  0  0  0  0  0  0  0  0
    2.2042   39.7734   77.4666 C   0  0  0  0  0  0  0  0  0  0  0  0
    3.3520   40.4504   77.8571 C   0  0  0  0  0  0  0  0  0  0  0  0
    2.0900   38.5645   77.6523 O   0  0  0  0  0  0  0  0  0  0  0  0
    4.0307   38.8198   79.4008 C   0  0  0  0  0  0  0  0  0  0  0  0
    4.3573   39.8008   78.5648 N   0  0  0  0  0  0  0  0  0  0  0  0
    4.8162   37.9007   79.6209 O   0  0  0  0  0  0  0  0  0  0  0  0
    5.7246   40.3316   78.5332 C   0  0  2  0  0  0  0  0  0  0  0  0
    5.6769   41.8307   78.8395 C   0  0  0  0  0  0  0  0  0  0  0  0
    3.4521   41.8204   77.6557 C   0  0  0  0  0  0  0  0  0  0  0  0
    4.5906   42.5084   78.0898 N   0  0  0  0  0  0  0  0  0  0  0  0
    6.3617   40.0922   77.1601 C   0  0  0  0  0  0  0  0  0  0  0  0
    5.4516   40.5557   76.1054 N   0  0  0  0  0  0  0  0  0  0  0  0
    6.7996   41.9719   72.4625 C   0  0  0  0  0  0  0  0  0  0  0  0
    6.3209   42.8472   73.4344 C   0  0  0  0  0  0  0  0  0  0  0  0
    5.8493   42.3613   74.6522 C   0  0  0  0  0  0  0  0  0  0  0  0
    5.8931   40.9989   74.9288 C   0  0  0  0  0  0  0  0  0  0  0  0
    6.3791   40.1242   73.9629 C   0  0  0  0  0  0  0  0  0  0  0  0
    6.8181   40.6060   72.7304 C   0  0  0  0  0  0  0  0  0  0  0  0
    8.4735   41.3493   68.2017 C   0  0  0  0  0  0  0  0  0  0  0  0
  1  3  1  0  0  0  0
  2  1  1  1  0  0  0
  2  6  1  0  0  0  0
  2 34  1  0  0  0  0
  3  4  2  0  0  0  0
  3 28  1  0  0  0  0
  5 13  1  0  0  0  0
  6  7  1  0  0  0  0
  7  8  1  0  0  0  0
  8  9  1  0  0  0  0
  8 10  1  0  0  0  0
 11 13  2  0  0  0  0
 11 24  1  0  0  0  0
 12 34  1  0  0  0  0
 13 15  1  0  0  0  0
 14 34  1  0  0  0  0
 15 16  1  0  0  0  0
 16 17  1  0  0  0  0
 16 18  2  0  0  0  0
 17 20  1  0  0  0  0
 17 24  2  0  0  0  0
 19 21  1  0  0  0  0
 19 20  1  0  0  0  0
 20 22  1  0  0  0  0
 22 23  1  0  0  0  0
 22 26  1  6  0  0  0
 23 25  1  0  0  0  0
 24 25  1  0  0  0  0
 26 27  1  0  0  0  0
 27 31  1  0  0  0  0
 28 29  2  0  0  0  0
 28 33  1  0  0  0  0
 29 30  1  0  0  0  0
 30 31  2  0  0  0  0
 31 32  1  0  0  0  0
 32 33  2  0  0  0  0
M  END
>  <CHROM.1>
147.84611861,-64.91757481,-87.79275988,161.92949607,-156.11063453,150.58329930
50.08738503,151.11719919,-106.52617054,137.42633865,6.30961452,41.32666667
74.17008605,0.88743486,-0.00162682,-1.35613717

>  <Name>
ligand

>  <RI>
0

>  <Rbt.Current_Directory>
/home/itssahil/PROJECTS/Mol_Feturizer/New_Systems/rnas/3SUH

>  <Rbt.Executable>
rbdock ($Id: //depot/dev/client3/rdock/2013.1/src/exe/rbdock.cxx#4 $)

>  <Rbt.Library>
libRbt.so (2013.1, Build901 2013/11/27)

>  <Rbt.Parameter_File>
/export/apps/rDock/src/rDock_2013.1_src/data/scripts/dock_solv.prm

>  <Rbt.Receptor>
prm/pocket_docking_3.prm

>  <SCORE>
-3.07992

>  <SCORE.INTER>
-2.0885

>  <SCORE.INTER.CONST>
1

>  <SCORE.INTER.POLAR>
0

>  <SCORE.INTER.ROT>
10

>  <SCORE.INTER.SOLV>
6.25105

>  <SCORE.INTER.VDW>
-13.7427

>  <SCORE.INTER.norm>
-0.0614266

>  <SCORE.INTRA>
-1.03027

>  <SCORE.INTRA.DIHEDRAL>
-3.22316

>  <SCORE.INTRA.DIHEDRAL.0>
12.2703

>  <SCORE.INTRA.POLAR>
0

>  <SCORE.INTRA.POLAR.0>
0

>  <SCORE.INTRA.REPUL>
0

>  <SCORE.INTRA.REPUL.0>
0

>  <SCORE.INTRA.SOLV>
2.04916

>  <SCORE.INTRA.SOLV.lig_0>
-64.3214

>  <SCORE.INTRA.VDW>
-0.443267

>  <SCORE.INTRA.VDW.0>
-1.67301

>  <SCORE.INTRA.norm>
-0.030302

>  <SCORE.RESTR>
0.0388502

>  <SCORE.RESTR.CAVITY>
0.0388502

>  <SCORE.RESTR.norm>
0.00114265

>  <SCORE.SYSTEM>
0

>  <SCORE.SYSTEM.CONST>
0

>  <SCORE.SYSTEM.DIHEDRAL>
0

>  <SCORE.SYSTEM.SOLV>
0

>  <SCORE.SYSTEM.norm>
0

>  <SCORE.heavy>
34

>  <SCORE.norm>
-0.0905859

>  <RMSD>
10.413

$$$$
ligand
 OpenBabel11021811483D
libRbt.so/2013.1/901 2013/11/27
 34 36  0  0  0  0  0  0  0  0999 V2000
   10.2879   43.3784   68.7299 N   0  0  0  0  0  0  0  0  0  0  0  0
   11.2043   43.8705   67.6749 C   0  0  1  0  0  0  0  0  0  0  0  0
    9.0664   42.8851   68.4874 C   0  0  0  0  0  0  0  0  0  0  0  0
    8.5672   42.7866   67.3630 O   0  0  0  0  0  0  0  0  0  0  0  0
    1.2142   39.2115   77.7296 N   0  0  0  0  0  0  0  0  0  0  0  0
   12.6137   44.0640   68.2590 C   0  0  0  0  0  0  0  0  0  0  0  0
   12.6039   45.0330   69.4491 C   0  0  0  0  0  0  0  0  0  0  0  0
   12.0076   44.3709   70.7006 C   0  0  0  0  0  0  0  0  0  0  0  0
   12.7009   43.4958   71.2704 O   0  0  0  0  0  0  0  0  0  0  0  0
   10.8719   44.7565   71.0617 O   0  0  0  0  0  0  0  0  0  0  0  0
    3.1479   40.4543   77.4566 N   0  0  0  0  0  0  0  0  0  0  0  0
   11.7370   43.3561   65.3947 O   0  0  0  0  0  0  0  0  0  0  0  0
    2.4252   39.3510   77.1964 C   0  0  0  0  0  0  0  0  0  0  0  0
   10.8328   41.7466   66.6520 O   0  0  0  0  0  0  0  0  0  0  0  0
    2.9329   38.3425   76.3676 N   0  0  0  0  0  0  0  0  0  0  0  0
    4.1957   38.5012   75.8128 C   0  0  0  0  0  0  0  0  0  0  0  0
    4.9025   39.6672   76.0759 C   0  0  0  0  0  0  0  0  0  0  0  0
    4.6583   37.6352   75.0745 O   0  0  0  0  0  0  0  0  0  0  0  0
    6.9874   38.7780   75.4720 C   0  0  0  0  0  0  0  0  0  0  0  0
    6.1970   39.8396   75.5985 N   0  0  0  0  0  0  0  0  0  0  0  0
    7.7125   38.4264   76.3999 O   0  0  0  0  0  0  0  0  0  0  0  0
    6.7339   41.1949   75.4338 C   0  0  2  0  0  0  0  0  0  0  0  0
    6.4819   41.9832   76.7217 C   0  0  0  0  0  0  0  0  0  0  0  0
    4.3697   40.6242   76.9290 C   0  0  0  0  0  0  0  0  0  0  0  0
    5.1024   41.7781   77.2280 N   0  0  0  0  0  0  0  0  0  0  0  0
    6.0666   41.8958   74.2455 C   0  0  0  0  0  0  0  0  0  0  0  0
    6.2097   41.0695   73.0405 N   0  0  0  0  0  0  0  0  0  0  0  0
    8.3166   42.3867   69.7360 C   0  0  0  0  0  0  0  0  0  0  0  0
    7.8179   43.2914   70.6702 C   0  0  0  0  0  0  0  0  0  0  0  0
    7.0912   42.8419   71.7709 C   0  0  0  0  0  0  0  0  0  0  0  0
    6.8941   41.4800   71.9733 C   0  0  0  0  0  0  0  0  0  0  0  0
    7.3991   40.5747   71.0462 C   0  0  0  0  0  0  0  0  0  0  0  0
    8.0956   41.0255   69.9258 C   0  0  0  0  0  0  0  0  0  0  0  0
   11.2656   42.9105   66.4689 C   0  0  0  0  0  0  0  0  0  0  0  0
  1  3  1  0  0  0  0
  2  1  1  1  0  0  0
  2  6  1  0  0  0  0
  2 34  1  0  0  0  0
  3  4  2  0  0  0  0
  3 28  1  0  0  0  0
  5 13  1  0  0  0  0
  6  7  1  0  0  0  0
  7  8  1  0  0  0  0
  8  9  1  0  0  0  0
  8 10  1  0  0  0  0
 11 13  2  0  0  0  0
 11 24  1  0  0  0  0
 12 34  1  0  0  0  0
 13 15  1  0  0  0  0
 14 34  1  0  0  0  0
 15 16  1  0  0  0  0
 16 17  1  0  0  0  0
 16 18  2  0  0  0  0
 17 20  1  0  0  0  0
 17 24  2  0  0  0  0
 19 21  1  0  0  0  0
 19 20  1  0  0  0  0
 20 22  1  0  0  0  0
 22 23  1  0  0  0  0
 22 26  1  6  0  0  0
 23 25  1  0  0  0  0
 24 25  1  0  0  0  0
 26 27  1  0  0  0  0
 27 31  1  0  0  0  0
 28 29  2  0  0  0  0
 28 33  1  0  0  0  0
 29 30  1  0  0  0  0
 30 31  2  0  0  0  0
 31 32  1  0  0  0  0
 32 33  2  0  0  0  0
M  END
>  <CHROM.1>
-167.34799648,-57.43969685,163.12747374,74.34795523,71.93996970,-90.57200607
-54.66850957,-116.76047093,-22.60455909,71.70348755,7.68509250,41.56213102
72.41919780,0.74577249,-0.62580732,-1.70250770

>  <Name>
ligand

>  <RI>
0

>  <Rbt.Current_Directory>
/home/itssahil/PROJECTS/Mol_Feturizer/New_Systems/rnas/3SUH

>  <Rbt.Executable>
rbdock ($Id: //depot/dev/client3/rdock/2013.1/src/exe/rbdock.cxx#4 $)

>  <Rbt.Library>
libRbt.so (2013.1, Build901 2013/11/27)

>  <Rbt.Parameter_File>
/export/apps/rDock/src/rDock_2013.1_src/data/scripts/dock_solv.prm

>  <Rbt.Receptor>
prm/pocket_docking_4.prm

>  <SCORE>
-13.2056

>  <SCORE.INTER>
-10.5071

>  <SCORE.INTER.CONST>
1

>  <SCORE.INTER.POLAR>
0

>  <SCORE.INTER.ROT>
10

>  <SCORE.INTER.SOLV>
11.9531

>  <SCORE.INTER.VDW>
-21.2557

>  <SCORE.INTER.norm>
-0.309031

>  <SCORE.INTRA>
-2.71592

>  <SCORE.INTRA.DIHEDRAL>
-3.83306

>  <SCORE.INTRA.DIHEDRAL.0>
12.2703

>  <SCORE.INTRA.POLAR>
0

>  <SCORE.INTRA.POLAR.0>
0

>  <SCORE.INTRA.REPUL>
0

>  <SCORE.INTRA.REPUL.0>
0

>  <SCORE.INTRA.SOLV>
0.16641

>  <SCORE.INTRA.SOLV.lig_0>
-64.3214

>  <SCORE.INTRA.VDW>
-0.882596

>  <SCORE.INTRA.VDW.0>
-1.67301

>  <SCORE.INTRA.norm>
-0.07988

>  <SCORE.RESTR>
0.0174244

>  <SCORE.RESTR.CAVITY>
0.0174244

>  <SCORE.RESTR.norm>
0.000512482

>  <SCORE.SYSTEM>
0

>  <SCORE.SYSTEM.CONST>
0

>  <SCORE.SYSTEM.DIHEDRAL>
0

>  <SCORE.SYSTEM.SOLV>
0

>  <SCORE.SYSTEM.norm>
0

>  <SCORE.heavy>
34

>  <SCORE.norm>
-0.388399

>  <RMSD>
10.413

$$$$
ligand
 OpenBabel11021811483D
libRbt.so/2013.1/901 2013/11/27
 34 36  0  0  0  0  0  0  0  0999 V2000
    9.9961   42.7426   68.8974 N   0  0  0  0  0  0  0  0  0  0  0  0
   10.7316   43.5722   67.9147 C   0  0  1  0  0  0  0  0  0  0  0  0
    8.8049   42.1796   68.6564 C   0  0  0  0  0  0  0  0  0  0  0  0
    8.1867   42.2889   67.5938 O   0  0  0  0  0  0  0  0  0  0  0  0
    3.6006   33.1673   75.0129 N   0  0  0  0  0  0  0  0  0  0  0  0
   12.0813   44.0085   68.5090 C   0  0  0  0  0  0  0  0  0  0  0  0
   11.8930   44.9175   69.7311 C   0  0  0  0  0  0  0  0  0  0  0  0
   13.2459   45.3394   70.3243 C   0  0  0  0  0  0  0  0  0  0  0  0
   13.4848   44.9958   71.5058 O   0  0  0  0  0  0  0  0  0  0  0  0
   14.0130   45.9944   69.5818 O   0  0  0  0  0  0  0  0  0  0  0  0
    5.6488   34.2391   74.8928 N   0  0  0  0  0  0  0  0  0  0  0  0
   11.4437   43.4769   65.6274 O   0  0  0  0  0  0  0  0  0  0  0  0
    4.4565   33.9398   74.3487 C   0  0  0  0  0  0  0  0  0  0  0  0
   10.6478   41.6096   66.5594 O   0  0  0  0  0  0  0  0  0  0  0  0
    4.1023   34.4329   73.0865 N   0  0  0  0  0  0  0  0  0  0  0  0
    5.0013   35.2420   72.4048 C   0  0  0  0  0  0  0  0  0  0  0  0
    6.2111   35.5581   73.0090 C   0  0  0  0  0  0  0  0  0  0  0  0
    4.7093   35.6948   71.3009 O   0  0  0  0  0  0  0  0  0  0  0  0
    7.2698   36.1955   71.0153 C   0  0  0  0  0  0  0  0  0  0  0  0
    7.1698   36.3076   72.3364 N   0  0  0  0  0  0  0  0  0  0  0  0
    7.7927   35.2040   70.5114 O   0  0  0  0  0  0  0  0  0  0  0  0
    8.1779   37.0491   73.1019 C   0  0  2  0  0  0  0  0  0  0  0  0
    8.7999   36.1076   74.1364 C   0  0  0  0  0  0  0  0  0  0  0  0
    6.5296   35.0194   74.2482 C   0  0  0  0  0  0  0  0  0  0  0  0
    7.7675   35.3034   74.8355 N   0  0  0  0  0  0  0  0  0  0  0  0
    7.5412   38.2557   73.8000 C   0  0  0  0  0  0  0  0  0  0  0  0
    6.6980   38.9892   72.8481 N   0  0  0  0  0  0  0  0  0  0  0  0
    8.2577   41.3181   69.8089 C   0  0  0  0  0  0  0  0  0  0  0  0
    7.3689   41.8577   70.7355 C   0  0  0  0  0  0  0  0  0  0  0  0
    6.8314   41.0619   71.7452 C   0  0  0  0  0  0  0  0  0  0  0  0
    7.2116   39.7296   71.8663 C   0  0  0  0  0  0  0  0  0  0  0  0
    8.1060   39.1914   70.9472 C   0  0  0  0  0  0  0  0  0  0  0  0
    8.6169   39.9775   69.9153 C   0  0  0  0  0  0  0  0  0  0  0  0
   10.9631   42.8243   66.5854 C   0  0  0  0  0  0  0  0  0  0  0  0
  1  3  1  0  0  0  0
  2  1  1  1  0  0  0
  2  6  1  0  0  0  0
  2 34  1  0  0  0  0
  3  4  2  0  0  0  0
  3 28  1  0  0  0  0
  5 13  1  0  0  0  0
  6  7  1  0  0  0  0
  7  8  1  0  0  0  0
  8  9  1  0  0  0  0
  8 10  1  0  0  0  0
 11 13  2  0  0  0  0
 11 24  1  0  0  0  0
 12 34  1  0  0  0  0
 13 15  1  0  0  0  0
 14 34  1  0  0  0  0
 15 16  1  0  0  0  0
 16 17  1  0  0  0  0
 16 18  2  0  0  0  0
 17 20  1  0  0  0  0
 17 24  2  0  0  0  0
 19 21  1  0  0  0  0
 19 20  1  0  0  0  0
 20 22  1  0  0  0  0
 22 23  1  0  0  0  0
 22 26  1  1  0  0  0
 23 25  1  0  0  0  0
 24 25  1  0  0  0  0
 26 27  1  0  0  0  0
 27 31  1  0  0  0  0
 28 29  2  0  0  0  0
 28 33  1  0  0  0  0
 29 30  1  0  0  0  0
 30 31  2  0  0  0  0
 31 32  1  0  0  0  0
 32 33  2  0  0  0  0
M  END
>  <CHROM.1>
-177.90204072,-64.11902809,172.26571650,179.56684989,-118.80559754,-75.34976302
-47.27691006,-72.59968769,-125.71409364,95.37082577,8.41015083,39.39498373
71.03639568,0.73356925,-0.83529728,-1.19065004

>  <Name>
ligand

>  <RI>
0

>  <Rbt.Current_Directory>
/home/itssahil/PROJECTS/Mol_Feturizer/New_Systems/rnas/3SUH

>  <Rbt.Executable>
rbdock ($Id: //depot/dev/client3/rdock/2013.1/src/exe/rbdock.cxx#4 $)

>  <Rbt.Library>
libRbt.so (2013.1, Build901 2013/11/27)

>  <Rbt.Parameter_File>
/export/apps/rDock/src/rDock_2013.1_src/data/scripts/dock_solv.prm

>  <Rbt.Receptor>
prm/pocket_docking_8.prm

>  <SCORE>
-19.6779

>  <SCORE.INTER>
-15.5007

>  <SCORE.INTER.CONST>
1

>  <SCORE.INTER.POLAR>
0

>  <SCORE.INTER.ROT>
10

>  <SCORE.INTER.SOLV>
11.1974

>  <SCORE.INTER.VDW>
-24.3329

>  <SCORE.INTER.norm>
-0.455902

>  <SCORE.INTRA>
-4.17885

>  <SCORE.INTRA.DIHEDRAL>
-5.2584

>  <SCORE.INTRA.DIHEDRAL.0>
12.2703

>  <SCORE.INTRA.POLAR>
0

>  <SCORE.INTRA.POLAR.0>
0

>  <SCORE.INTRA.REPUL>
0

>  <SCORE.INTRA.REPUL.0>
0

>  <SCORE.INTRA.SOLV>
0.180557

>  <SCORE.INTRA.SOLV.lig_0>
-64.3214

>  <SCORE.INTRA.VDW>
-1.63993

>  <SCORE.INTRA.VDW.0>
-1.67301

>  <SCORE.INTRA.norm>
-0.122907

>  <SCORE.RESTR>
0.00165437

>  <SCORE.RESTR.CAVITY>
0.00165437

>  <SCORE.RESTR.norm>
4.86578e-05

>  <SCORE.SYSTEM>
0

>  <SCORE.SYSTEM.CONST>
0

>  <SCORE.SYSTEM.DIHEDRAL>
0

>  <SCORE.SYSTEM.SOLV>
0

>  <SCORE.SYSTEM.norm>
0

>  <SCORE.heavy>
34

>  <SCORE.norm>
-0.578761

>  <RMSD>
10.421

$$$$
ligand
 OpenBabel11021811483D
libRbt.so/2013.1/901 2013/11/27
 34 36  0  0  0  0  0  0  0  0999 V2000
    9.5157   43.2660   69.5620 N   0  0  0  0  0  0  0  0  0  0  0  0
   10.5589   43.1418   68.5174 C   0  0  1  0  0  0  0  0  0  0  0  0
    9.1482   44.4289   70.1157 C   0  0  0  0  0  0  0  0  0  0  0  0
    9.6357   45.5238   69.8212 O   0  0  0  0  0  0  0  0  0  0  0  0
    0.7421   38.9017   77.7782 N   0  0  0  0  0  0  0  0  0  0  0  0
   11.4998   41.9739   68.8582 C   0  0  0  0  0  0  0  0  0  0  0  0
   12.3988   42.3042   70.0574 C   0  0  0  0  0  0  0  0  0  0  0  0
   11.5798   42.4166   71.3524 C   0  0  0  0  0  0  0  0  0  0  0  0
   11.3653   43.5694   71.7954 O   0  0  0  0  0  0  0  0  0  0  0  0
   11.1838   41.3469   71.8696 O   0  0  0  0  0  0  0  0  0  0  0  0
    1.5079   40.9757   77.0922 N   0  0  0  0  0  0  0  0  0  0  0  0
    8.7637   42.5291   67.0513 O   0  0  0  0  0  0  0  0  0  0  0  0
    1.7232   39.7974   77.7027 C   0  0  0  0  0  0  0  0  0  0  0  0
   10.6954   43.1754   66.1351 O   0  0  0  0  0  0  0  0  0  0  0  0
    2.9721   39.4994   78.2623 N   0  0  0  0  0  0  0  0  0  0  0  0
    3.9897   40.4397   78.1732 C   0  0  0  0  0  0  0  0  0  0  0  0
    3.7437   41.6336   77.5079 C   0  0  0  0  0  0  0  0  0  0  0  0
    5.0967   40.1973   78.6473 O   0  0  0  0  0  0  0  0  0  0  0  0
    5.5499   42.7767   78.4741 C   0  0  0  0  0  0  0  0  0  0  0  0
    4.7101   42.6319   77.4535 N   0  0  0  0  0  0  0  0  0  0  0  0
    5.1229   42.9668   79.6107 O   0  0  0  0  0  0  0  0  0  0  0  0
    4.6631   43.6277   76.3773 C   0  0  2  0  0  0  0  0  0  0  0  0
    3.2425   44.1917   76.2914 C   0  0  0  0  0  0  0  0  0  0  0  0
    2.4798   41.8958   76.9970 C   0  0  0  0  0  0  0  0  0  0  0  0
    2.2216   43.1177   76.3660 N   0  0  0  0  0  0  0  0  0  0  0  0
    5.0619   42.9928   75.0407 C   0  0  0  0  0  0  0  0  0  0  0  0
    5.0148   44.0055   73.9789 N   0  0  0  0  0  0  0  0  0  0  0  0
    8.0069   44.3178   71.1429 C   0  0  0  0  0  0  0  0  0  0  0  0
    7.5708   43.0709   71.5842 C   0  0  0  0  0  0  0  0  0  0  0  0
    6.5760   42.9733   72.5551 C   0  0  0  0  0  0  0  0  0  0  0  0
    5.9751   44.1205   73.0622 C   0  0  0  0  0  0  0  0  0  0  0  0
    6.4032   45.3663   72.6161 C   0  0  0  0  0  0  0  0  0  0  0  0
    7.4232   45.4659   71.6708 C   0  0  0  0  0  0  0  0  0  0  0  0
    9.9507   42.9309   67.1155 C   0  0  0  0  0  0  0  0  0  0  0  0
  1  3  1  0  0  0  0
  2  1  1  1  0  0  0
  2  6  1  0  0  0  0
  2 34  1  0  0  0  0
  3  4  2  0  0  0  0
  3 28  1  0  0  0  0
  5 13  1  0  0  0  0
  6  7  1  0  0  0  0
  7  8  1  0  0  0  0
  8  9  1  0  0  0  0
  8 10  1  0  0  0  0
 11 13  2  0  0  0  0
 11 24  1  0  0  0  0
 12 34  1  0  0  0  0
 13 15  1  0  0  0  0
 14 34  1  0  0  0  0
 15 16  1  0  0  0  0
 16 17  1  0  0  0  0
 16 18  2  0  0  0  0
 17 20  1  0  0  0  0
 17 24  2  0  0  0  0
 19 21  1  0  0  0  0
 19 20  1  0  0  0  0
 20 22  1  0  0  0  0
 22 23  1  0  0  0  0
 22 26  1  6  0  0  0
 23 25  1  0  0  0  0
 24 25  1  0  0  0  0
 26 27  1  0  0  0  0
 27 31  1  0  0  0  0
 28 29  2  0  0  0  0
 28 33  1  0  0  0  0
 29 30  1  0  0  0  0
 30 31  2  0  0  0  0
 31 32  1  0  0  0  0
 32 33  2  0  0  0  0
M  END
>  <CHROM.1>
134.44182547,-71.26909153,-19.04823642,67.74698609,-104.56560033,-56.64941672
-179.73538889,135.92199560,37.89024632,9.55333121,6.72000106,42.67577231
73.52972661,0.83318468,0.36689524,-1.05155722

>  <Name>
ligand

>  <RI>
0

>  <Rbt.Current_Directory>
/home/itssahil/PROJECTS/Mol_Feturizer/New_Systems/rnas/3SUH

>  <Rbt.Executable>
rbdock ($Id: //depot/dev/client3/rdock/2013.1/src/exe/rbdock.cxx#4 $)

>  <Rbt.Library>
libRbt.so (2013.1, Build901 2013/11/27)

>  <Rbt.Parameter_File>
/export/apps/rDock/src/rDock_2013.1_src/data/scripts/dock_solv.prm

>  <Rbt.Receptor>
prm/pocket_docking_3.prm

>  <SCORE>
-4.20443

>  <SCORE.INTER>
-1.09164

>  <SCORE.INTER.CONST>
1

>  <SCORE.INTER.POLAR>
0

>  <SCORE.INTER.ROT>
10

>  <SCORE.INTER.SOLV>
7.63188

>  <SCORE.INTER.VDW>
-13.5384

>  <SCORE.INTER.norm>
-0.032107

>  <SCORE.INTRA>
-3.1128

>  <SCORE.INTRA.DIHEDRAL>
-3.11387

>  <SCORE.INTRA.DIHEDRAL.0>
12.2703

>  <SCORE.INTRA.POLAR>
0

>  <SCORE.INTRA.POLAR.0>
0

>  <SCORE.INTRA.REPUL>
0

>  <SCORE.INTRA.REPUL.0>
0

>  <SCORE.INTRA.SOLV>
-0.131588

>  <SCORE.INTRA.SOLV.lig_0>
-64.3214

>  <SCORE.INTRA.VDW>
-1.49007

>  <SCORE.INTRA.VDW.0>
-1.67301

>  <SCORE.INTRA.norm>
-0.0915528

>  <SCORE.RESTR>
0

>  <SCORE.RESTR.CAVITY>
0

>  <SCORE.RESTR.norm>
0

>  <SCORE.SYSTEM>
0

>  <SCORE.SYSTEM.CONST>
0

>  <SCORE.SYSTEM.DIHEDRAL>
0

>  <SCORE.SYSTEM.SOLV>
0

>  <SCORE.SYSTEM.norm>
0

>  <SCORE.heavy>
34

>  <SCORE.norm>
-0.12366

>  <RMSD>
10.438

$$$$
ligand
 OpenBabel11021811483D
libRbt.so/2013.1/901 2013/11/27
 34 36  0  0  0  0  0  0  0  0999 V2000
    8.1820   42.7706   70.0213 N   0  0  0  0  0  0  0  0  0  0  0  0
    8.6898   43.3916   68.7758 C   0  0  1  0  0  0  0  0  0  0  0  0
    7.1470   43.2473   70.7252 C   0  0  0  0  0  0  0  0  0  0  0  0
    6.5028   44.2544   70.4185 O   0  0  0  0  0  0  0  0  0  0  0  0
    7.1963   38.6897   82.7727 N   0  0  0  0  0  0  0  0  0  0  0  0
    9.9282   44.2480   69.0889 C   0  0  0  0  0  0  0  0  0  0  0  0
   11.1302   43.3796   69.4846 C   0  0  0  0  0  0  0  0  0  0  0  0
   12.4494   44.1513   69.3284 C   0  0  0  0  0  0  0  0  0  0  0  0
   12.9474   44.2063   68.1794 O   0  0  0  0  0  0  0  0  0  0  0  0
   12.9298   44.6716   70.3614 O   0  0  0  0  0  0  0  0  0  0  0  0
    6.5692   39.9018   80.9029 N   0  0  0  0  0  0  0  0  0  0  0  0
    9.5984   42.7381   66.6556 O   0  0  0  0  0  0  0  0  0  0  0  0
    7.5019   39.2216   81.5920 C   0  0  0  0  0  0  0  0  0  0  0  0
    8.7360   41.1475   67.9652 O   0  0  0  0  0  0  0  0  0  0  0  0
    8.7964   39.0650   81.0806 N   0  0  0  0  0  0  0  0  0  0  0  0
    9.1024   39.6201   79.8454 C   0  0  0  0  0  0  0  0  0  0  0  0
    8.1070   40.2889   79.1451 C   0  0  0  0  0  0  0  0  0  0  0  0
   10.2279   39.4875   79.3713 O   0  0  0  0  0  0  0  0  0  0  0  0
    9.5907   41.4459   77.7443 C   0  0  0  0  0  0  0  0  0  0  0  0
    8.3852   40.9193   77.9374 N   0  0  0  0  0  0  0  0  0  0  0  0
   10.2292   41.1857   76.7270 O   0  0  0  0  0  0  0  0  0  0  0  0
    7.2989   41.1695   76.9837 C   0  0  2  0  0  0  0  0  0  0  0  0
    6.1349   41.8299   77.7269 C   0  0  0  0  0  0  0  0  0  0  0  0
    6.8475   40.4447   79.7080 C   0  0  0  0  0  0  0  0  0  0  0  0
    5.8589   41.1571   79.0202 N   0  0  0  0  0  0  0  0  0  0  0  0
    6.8385   39.8578   76.3385 C   0  0  0  0  0  0  0  0  0  0  0  0
    5.8483   40.1425   75.2927 N   0  0  0  0  0  0  0  0  0  0  0  0
    6.7666   42.4053   71.9565 C   0  0  0  0  0  0  0  0  0  0  0  0
    6.9411   41.0235   71.9504 C   0  0  0  0  0  0  0  0  0  0  0  0
    6.6487   40.2695   73.0851 C   0  0  0  0  0  0  0  0  0  0  0  0
    6.1361   40.8833   74.2230 C   0  0  0  0  0  0  0  0  0  0  0  0
    5.9528   42.2620   74.2278 C   0  0  0  0  0  0  0  0  0  0  0  0
    6.2786   43.0218   73.1052 C   0  0  0  0  0  0  0  0  0  0  0  0
    9.0405   42.3373   67.7056 C   0  0  0  0  0  0  0  0  0  0  0  0
  1  3  1  0  0  0  0
  2  1  1  1  0  0  0
  2  6  1  0  0  0  0
  2 34  1  0  0  0  0
  3  4  2  0  0  0  0
  3 28  1  0  0  0  0
  5 13  1  0  0  0  0
  6  7  1  0  0  0  0
  7  8  1  0  0  0  0
  8  9  1  0  0  0  0
  8 10  1  0  0  0  0
 11 13  2  0  0  0  0
 11 24  1  0  0  0  0
 12 34  1  0  0  0  0
 13 15  1  0  0  0  0
 14 34  1  0  0  0  0
 15 16  1  0  0  0  0
 16 17  1  0  0  0  0
 16 18  2  0  0  0  0
 17 20  1  0  0  0  0
 17 24  2  0  0  0  0
 19 21  1  0  0  0  0
 19 20  1  0  0  0  0
 20 22  1  0  0  0  0
 22 23  1  0  0  0  0
 22 26  1  1  0  0  0
 23 25  1  0  0  0  0
 24 25  1  0  0  0  0
 26 27  1  0  0  0  0
 27 31  1  0  0  0  0
 28 29  2  0  0  0  0
 28 33  1  0  0  0  0
 29 30  1  0  0  0  0
 30 31  2  0  0  0  0
 31 32  1  0  0  0  0
 32 33  2  0  0  0  0
M  END
>  <CHROM.1>
99.46931242,69.25173310,-173.42152735,160.54077564,-82.01207636,129.60802691
-174.34624554,61.29048027,88.95303654,-32.00651846,8.34617384,41.64540727
74.31333726,1.38296089,-0.14597224,-1.30127277

>  <Name>
ligand

>  <RI>
0

>  <Rbt.Current_Directory>
/home/itssahil/PROJECTS/Mol_Feturizer/New_Systems/rnas/3SUH

>  <Rbt.Executable>
rbdock ($Id: //depot/dev/client3/rdock/2013.1/src/exe/rbdock.cxx#4 $)

>  <Rbt.Library>
libRbt.so (2013.1, Build901 2013/11/27)

>  <Rbt.Parameter_File>
/export/apps/rDock/src/rDock_2013.1_src/data/scripts/dock_solv.prm

>  <Rbt.Receptor>
prm/pocket_docking_8.prm

>  <SCORE>
-9.44601

>  <SCORE.INTER>
-6.65494

>  <SCORE.INTER.CONST>
1

>  <SCORE.INTER.POLAR>
0

>  <SCORE.INTER.ROT>
10

>  <SCORE.INTER.SOLV>
6.85374

>  <SCORE.INTER.VDW>
-16.9879

>  <SCORE.INTER.norm>
-0.195733

>  <SCORE.INTRA>
-2.79107

>  <SCORE.INTRA.DIHEDRAL>
-3.10281

>  <SCORE.INTRA.DIHEDRAL.0>
12.2703

>  <SCORE.INTRA.POLAR>
0

>  <SCORE.INTRA.POLAR.0>
0

>  <SCORE.INTRA.REPUL>
0

>  <SCORE.INTRA.REPUL.0>
0

>  <SCORE.INTRA.SOLV>
-0.894999

>  <SCORE.INTRA.SOLV.lig_0>
-64.3214

>  <SCORE.INTRA.VDW>
-0.792167

>  <SCORE.INTRA.VDW.0>
-1.67301

>  <SCORE.INTRA.norm>
-0.0820903

>  <SCORE.RESTR>
0

>  <SCORE.RESTR.CAVITY>
0

>  <SCORE.RESTR.norm>
0

>  <SCORE.SYSTEM>
0

>  <SCORE.SYSTEM.CONST>
0

>  <SCORE.SYSTEM.DIHEDRAL>
0

>  <SCORE.SYSTEM.SOLV>
0

>  <SCORE.SYSTEM.norm>
0

>  <SCORE.heavy>
34

>  <SCORE.norm>
-0.277824

>  <RMSD>
10.438

$$$$
ligand
 OpenBabel11021811483D
libRbt.so/2013.1/901 2013/11/27
 34 36  0  0  0  0  0  0  0  0999 V2000
    9.4559   43.2765   69.6853 N   0  0  0  0  0  0  0  0  0  0  0  0
   10.5110   43.1617   68.6517 C   0  0  1  0  0  0  0  0  0  0  0  0
    9.6561   43.8000   70.9018 C   0  0  0  0  0  0  0  0  0  0  0  0
   10.7377   44.2427   71.2986 O   0  0  0  0  0  0  0  0  0  0  0  0
    1.5681   41.1999   80.5766 N   0  0  0  0  0  0  0  0  0  0  0  0
   11.4682   42.0128   69.0109 C   0  0  0  0  0  0  0  0  0  0  0  0
   10.7876   40.6447   68.8675 C   0  0  0  0  0  0  0  0  0  0  0  0
    9.5771   40.5246   69.8057 C   0  0  0  0  0  0  0  0  0  0  0  0
    9.8100   40.4707   71.0361 O   0  0  0  0  0  0  0  0  0  0  0  0
    8.4446   40.4918   69.2717 O   0  0  0  0  0  0  0  0  0  0  0  0
    2.9824   42.5390   79.3256 N   0  0  0  0  0  0  0  0  0  0  0  0
   10.6615   43.1542   66.2590 O   0  0  0  0  0  0  0  0  0  0  0  0
    2.5472   41.3184   79.6834 C   0  0  0  0  0  0  0  0  0  0  0  0
    8.7302   42.5326   67.1929 O   0  0  0  0  0  0  0  0  0  0  0  0
    3.1134   40.1652   79.1255 N   0  0  0  0  0  0  0  0  0  0  0  0
    4.1310   40.3012   78.1908 C   0  0  0  0  0  0  0  0  0  0  0  0
    4.5349   41.5769   77.8195 C   0  0  0  0  0  0  0  0  0  0  0  0
    4.6364   39.3049   77.6798 O   0  0  0  0  0  0  0  0  0  0  0  0
    6.5962   40.8857   76.9387 C   0  0  0  0  0  0  0  0  0  0  0  0
    5.5956   41.7613   76.9395 N   0  0  0  0  0  0  0  0  0  0  0  0
    7.4499   40.9136   77.8222 O   0  0  0  0  0  0  0  0  0  0  0  0
    5.6946   43.0099   76.1758 C   0  0  2  0  0  0  0  0  0  0  0  0
    5.5290   44.1889   77.1381 C   0  0  0  0  0  0  0  0  0  0  0  0
    3.9645   42.6889   78.4240 C   0  0  0  0  0  0  0  0  0  0  0  0
    4.4040   43.9723   78.0808 N   0  0  0  0  0  0  0  0  0  0  0  0
    4.6171   43.0602   75.0872 C   0  0  0  0  0  0  0  0  0  0  0  0
    4.9705   44.0767   74.0887 N   0  0  0  0  0  0  0  0  0  0  0  0
    8.3991   43.8620   71.7882 C   0  0  0  0  0  0  0  0  0  0  0  0
    8.0669   45.0334   72.4645 C   0  0  0  0  0  0  0  0  0  0  0  0
    6.8994   45.1052   73.2217 C   0  0  0  0  0  0  0  0  0  0  0  0
    6.0746   43.9924   73.3474 C   0  0  0  0  0  0  0  0  0  0  0  0
    6.4094   42.8190   72.6800 C   0  0  0  0  0  0  0  0  0  0  0  0
    7.5588   42.7572   71.8933 C   0  0  0  0  0  0  0  0  0  0  0  0
    9.9199   42.9293   67.2458 C   0  0  0  0  0  0  0  0  0  0  0  0
  1  3  1  0  0  0  0
  2  1  1  1  0  0  0
  2  6  1  0  0  0  0
  2 34  1  0  0  0  0
  3  4  2  0  0  0  0
  3 28  1  0  0  0  0
  5 13  1  0  0  0  0
  6  7  1  0  0  0  0
  7  8  1  0  0  0  0
  8  9  1  0  0  0  0
  8 10  1  0  0  0  0
 11 13  2  0  0  0  0
 11 24  1  0  0  0  0
 12 34  1  0  0  0  0
 13 15  1  0  0  0  0
 14 34  1  0  0  0  0
 15 16  1  0  0  0  0
 16 17  1  0  0  0  0
 16 18  2  0  0  0  0
 17 20  1  0  0  0  0
 17 24  2  0  0  0  0
 19 21  1  0  0  0  0
 19 20  1  0  0  0  0
 20 22  1  0  0  0  0
 22 23  1  0  0  0  0
 22 26  1  6  0  0  0
 23 25  1  0  0  0  0
 24 25  1  0  0  0  0
 26 27  1  0  0  0  0
 27 31  1  0  0  0  0
 28 29  2  0  0  0  0
 28 33  1  0  0  0  0
 29 30  1  0  0  0  0
 30 31  2  0  0  0  0
 31 32  1  0  0  0  0
 32 33  2  0  0  0  0
M  END
>  <CHROM.1>
75.03862588,69.52699923,162.16925190,-60.81281195,-68.71209141,-77.00898616
-162.63047688,62.37071251,-132.33552215,-131.84968381,6.98333111,42.35398254
73.70016224,0.31159053,0.98363882,-0.28331865

>  <Name>
ligand

>  <RI>
0

>  <Rbt.Current_Directory>
/home/itssahil/PROJECTS/Mol_Feturizer/New_Systems/rnas/3SUH

>  <Rbt.Executable>
rbdock ($Id: //depot/dev/client3/rdock/2013.1/src/exe/rbdock.cxx#4 $)

>  <Rbt.Library>
libRbt.so (2013.1, Build901 2013/11/27)

>  <Rbt.Parameter_File>
/export/apps/rDock/src/rDock_2013.1_src/data/scripts/dock_solv.prm

>  <Rbt.Receptor>
prm/pocket_docking_3.prm

>  <SCORE>
-5.97073

>  <SCORE.INTER>
-1.40913

>  <SCORE.INTER.CONST>
1

>  <SCORE.INTER.POLAR>
0

>  <SCORE.INTER.ROT>
10

>  <SCORE.INTER.SOLV>
6.57541

>  <SCORE.INTER.VDW>
-13.3979

>  <SCORE.INTER.norm>
-0.0414451

>  <SCORE.INTRA>
-4.5616

>  <SCORE.INTRA.DIHEDRAL>
-4.52554

>  <SCORE.INTRA.DIHEDRAL.0>
12.2703

>  <SCORE.INTRA.POLAR>
0

>  <SCORE.INTRA.POLAR.0>
0

>  <SCORE.INTRA.REPUL>
0

>  <SCORE.INTRA.REPUL.0>
0

>  <SCORE.INTRA.SOLV>
-0.444207

>  <SCORE.INTRA.SOLV.lig_0>
-64.3214

>  <SCORE.INTRA.VDW>
-2.07672

>  <SCORE.INTRA.VDW.0>
-1.67301

>  <SCORE.INTRA.norm>
-0.134165

>  <SCORE.RESTR>
0

>  <SCORE.RESTR.CAVITY>
0

>  <SCORE.RESTR.norm>
0

>  <SCORE.SYSTEM>
0

>  <SCORE.SYSTEM.CONST>
0

>  <SCORE.SYSTEM.DIHEDRAL>
0

>  <SCORE.SYSTEM.SOLV>
0

>  <SCORE.SYSTEM.norm>
0

>  <SCORE.heavy>
34

>  <SCORE.norm>
-0.17561

>  <RMSD>
10.442

$$$$
ligand
 OpenBabel11021811483D
libRbt.so/2013.1/901 2013/11/27
 34 36  0  0  0  0  0  0  0  0999 V2000
   10.1070   42.5781   69.0027 N   0  0  0  0  0  0  0  0  0  0  0  0
   10.7909   43.5262   68.0926 C   0  0  1  0  0  0  0  0  0  0  0  0
    8.8883   42.0714   68.7746 C   0  0  0  0  0  0  0  0  0  0  0  0
    8.1991   42.3368   67.7857 O   0  0  0  0  0  0  0  0  0  0  0  0
    6.8929   40.5362   79.7186 N   0  0  0  0  0  0  0  0  0  0  0  0
   12.1185   43.9834   68.7200 C   0  0  0  0  0  0  0  0  0  0  0  0
   11.8923   44.7172   70.0488 C   0  0  0  0  0  0  0  0  0  0  0  0
   13.2204   45.2034   70.6489 C   0  0  0  0  0  0  0  0  0  0  0  0
   13.7131   44.5199   71.5769 O   0  0  0  0  0  0  0  0  0  0  0  0
   13.7153   46.2470   70.1643 O   0  0  0  0  0  0  0  0  0  0  0  0
    7.6671   38.9037   78.2716 N   0  0  0  0  0  0  0  0  0  0  0  0
   11.5258   43.6548   65.8142 O   0  0  0  0  0  0  0  0  0  0  0  0
    6.7140   39.7772   78.6405 C   0  0  0  0  0  0  0  0  0  0  0  0
   10.7730   41.6912   66.5669 O   0  0  0  0  0  0  0  0  0  0  0  0
    5.5306   39.8989   77.9013 N   0  0  0  0  0  0  0  0  0  0  0  0
    5.3571   39.1053   76.7754 C   0  0  0  0  0  0  0  0  0  0  0  0
    6.3746   38.2364   76.4037 C   0  0  0  0  0  0  0  0  0  0  0  0
    4.3322   39.2012   76.1051 O   0  0  0  0  0  0  0  0  0  0  0  0
    5.0077   36.8953   75.0491 C   0  0  0  0  0  0  0  0  0  0  0  0
    6.2172   37.3738   75.3246 N   0  0  0  0  0  0  0  0  0  0  0  0
    4.4657   36.0953   75.8084 O   0  0  0  0  0  0  0  0  0  0  0  0
    7.4024   36.8506   74.6364 C   0  0  2  0  0  0  0  0  0  0  0  0
    8.3740   36.2980   75.6824 C   0  0  0  0  0  0  0  0  0  0  0  0
    7.5161   38.1290   77.1866 C   0  0  0  0  0  0  0  0  0  0  0  0
    8.5208   37.2209   76.8349 N   0  0  0  0  0  0  0  0  0  0  0  0
    8.0789   37.9553   73.8175 C   0  0  0  0  0  0  0  0  0  0  0  0
    7.1787   38.3973   72.7453 N   0  0  0  0  0  0  0  0  0  0  0  0
    8.4033   41.0654   69.8341 C   0  0  0  0  0  0  0  0  0  0  0  0
    9.0494   39.8423   69.9969 C   0  0  0  0  0  0  0  0  0  0  0  0
    8.6444   38.9565   70.9934 C   0  0  0  0  0  0  0  0  0  0  0  0
    7.5602   39.2646   71.8083 C   0  0  0  0  0  0  0  0  0  0  0  0
    6.9082   40.4817   71.6412 C   0  0  0  0  0  0  0  0  0  0  0  0
    7.3352   41.3840   70.6680 C   0  0  0  0  0  0  0  0  0  0  0  0
   11.0547   42.9066   66.7047 C   0  0  0  0  0  0  0  0  0  0  0  0
  1  3  1  0  0  0  0
  2  1  1  1  0  0  0
  2  6  1  0  0  0  0
  2 34  1  0  0  0  0
  3  4  2  0  0  0  0
  3 28  1  0  0  0  0
  5 13  1  0  0  0  0
  6  7  1  0  0  0  0
  7  8  1  0  0  0  0
  8  9  1  0  0  0  0
  8 10  1  0  0  0  0
 11 13  2  0  0  0  0
 11 24  1  0  0  0  0
 12 34  1  0  0  0  0
 13 15  1  0  0  0  0
 14 34  1  0  0  0  0
 15 16  1  0  0  0  0
 16 17  1  0  0  0  0
 16 18  2  0  0  0  0
 17 20  1  0  0  0  0
 17 24  2  0  0  0  0
 19 21  1  0  0  0  0
 19 20  1  0  0  0  0
 20 22  1  0  0  0  0
 22 23  1  0  0  0  0
 22 26  1  1  0  0  0
 23 25  1  0  0  0  0
 24 25  1  0  0  0  0
 26 27  1  0  0  0  0
 27 31  1  0  0  0  0
 28 29  2  0  0  0  0
 28 33  1  0  0  0  0
 29 30  1  0  0  0  0
 30 31  2  0  0  0  0
 31 32  1  0  0  0  0
 32 33  2  0  0  0  0
M  END
>  <CHROM.1>
175.51290586,-61.43008400,174.03289086,-178.45901131,-100.92250609,-68.73841589
-64.61451800,-173.81296192,59.03893330,-65.75529846,8.55974221,40.49436942
72.60009541,0.82080803,-0.83390993,-1.58514544

>  <Name>
ligand

>  <RI>
0

>  <Rbt.Current_Directory>
/home/itssahil/PROJECTS/Mol_Feturizer/New_Systems/rnas/3SUH

>  <Rbt.Executable>
rbdock ($Id: //depot/dev/client3/rdock/2013.1/src/exe/rbdock.cxx#4 $)

>  <Rbt.Library>
libRbt.so (2013.1, Build901 2013/11/27)

>  <Rbt.Parameter_File>
/export/apps/rDock/src/rDock_2013.1_src/data/scripts/dock_solv.prm

>  <Rbt.Receptor>
prm/pocket_docking_7.prm

>  <SCORE>
-15.6193

>  <SCORE.INTER>
-10.8331

>  <SCORE.INTER.CONST>
1

>  <SCORE.INTER.POLAR>
0

>  <SCORE.INTER.ROT>
10

>  <SCORE.INTER.SOLV>
6.61882

>  <SCORE.INTER.VDW>
-19.695

>  <SCORE.INTER.norm>
-0.318619

>  <SCORE.INTRA>
-4.78621

>  <SCORE.INTRA.DIHEDRAL>
-5.93391

>  <SCORE.INTRA.DIHEDRAL.0>
12.2703

>  <SCORE.INTRA.POLAR>
0

>  <SCORE.INTRA.POLAR.0>
0

>  <SCORE.INTRA.REPUL>
0

>  <SCORE.INTRA.REPUL.0>
0

>  <SCORE.INTRA.SOLV>
-0.450565

>  <SCORE.INTRA.SOLV.lig_0>
-64.3214

>  <SCORE.INTRA.VDW>
-1.59397

>  <SCORE.INTRA.VDW.0>
-1.67301

>  <SCORE.INTRA.norm>
-0.140771

>  <SCORE.RESTR>
0

>  <SCORE.RESTR.CAVITY>
0

>  <SCORE.RESTR.norm>
0

>  <SCORE.SYSTEM>
0

>  <SCORE.SYSTEM.CONST>
0

>  <SCORE.SYSTEM.DIHEDRAL>
0

>  <SCORE.SYSTEM.SOLV>
0

>  <SCORE.SYSTEM.norm>
0

>  <SCORE.heavy>
34

>  <SCORE.norm>
-0.45939

>  <RMSD>
10.456

$$$$
ligand
 OpenBabel11021811483D
libRbt.so/2013.1/901 2013/11/27
 34 36  0  0  0  0  0  0  0  0999 V2000
    9.8001   42.7892   69.0209 N   0  0  0  0  0  0  0  0  0  0  0  0
   10.6099   43.5522   68.0427 C   0  0  1  0  0  0  0  0  0  0  0  0
    8.5290   43.0805   69.3266 C   0  0  0  0  0  0  0  0  0  0  0  0
    7.8915   44.0143   68.8319 O   0  0  0  0  0  0  0  0  0  0  0  0
    9.5264   36.7292   79.5244 N   0  0  0  0  0  0  0  0  0  0  0  0
   11.9738   43.9052   68.6595 C   0  0  0  0  0  0  0  0  0  0  0  0
   11.8236   44.8516   69.8584 C   0  0  0  0  0  0  0  0  0  0  0  0
   13.1935   45.2423   70.4337 C   0  0  0  0  0  0  0  0  0  0  0  0
   13.6176   44.5739   71.4055 O   0  0  0  0  0  0  0  0  0  0  0  0
   13.7880   46.1996   69.8870 O   0  0  0  0  0  0  0  0  0  0  0  0
    8.0933   36.7933   77.7077 N   0  0  0  0  0  0  0  0  0  0  0  0
   11.1797   43.4186   65.7178 O   0  0  0  0  0  0  0  0  0  0  0  0
    8.5457   37.3292   78.8547 C   0  0  0  0  0  0  0  0  0  0  0  0
   10.6026   41.5341   66.7688 O   0  0  0  0  0  0  0  0  0  0  0  0
    7.9957   38.5160   79.3554 N   0  0  0  0  0  0  0  0  0  0  0  0
    6.9763   39.1359   78.6455 C   0  0  0  0  0  0  0  0  0  0  0  0
    6.5543   38.5734   77.4480 C   0  0  0  0  0  0  0  0  0  0  0  0
    6.4849   40.1831   79.0591 O   0  0  0  0  0  0  0  0  0  0  0  0
    4.5029   39.7102   77.4048 C   0  0  0  0  0  0  0  0  0  0  0  0
    5.4910   39.1206   76.7385 N   0  0  0  0  0  0  0  0  0  0  0  0
    3.6524   39.0375   77.9830 O   0  0  0  0  0  0  0  0  0  0  0  0
    5.3743   38.8673   75.2983 C   0  0  2  0  0  0  0  0  0  0  0  0
    5.5234   37.3641   75.0501 C   0  0  0  0  0  0  0  0  0  0  0  0
    7.1090   37.3789   77.0089 C   0  0  0  0  0  0  0  0  0  0  0  0
    6.6515   36.7905   75.8247 N   0  0  0  0  0  0  0  0  0  0  0  0
    6.4509   39.6399   74.5284 C   0  0  0  0  0  0  0  0  0  0  0  0
    6.2082   39.5205   73.0855 N   0  0  0  0  0  0  0  0  0  0  0  0
    7.8740   42.1162   70.3321 C   0  0  0  0  0  0  0  0  0  0  0  0
    8.0627   40.7409   70.2197 C   0  0  0  0  0  0  0  0  0  0  0  0
    7.5153   39.8732   71.1626 C   0  0  0  0  0  0  0  0  0  0  0  0
    6.7357   40.3681   72.2027 C   0  0  0  0  0  0  0  0  0  0  0  0
    6.5388   41.7406   72.3115 C   0  0  0  0  0  0  0  0  0  0  0  0
    7.1157   42.6122   71.3888 C   0  0  0  0  0  0  0  0  0  0  0  0
   10.8172   42.7703   66.7291 C   0  0  0  0  0  0  0  0  0  0  0  0
  1  3  1  0  0  0  0
  2  1  1  1  0  0  0
  2  6  1  0  0  0  0
  2 34  1  0  0  0  0
  3  4  2  0  0  0  0
  3 28  1  0  0  0  0
  5 13  1  0  0  0  0
  6  7  1  0  0  0  0
  7  8  1  0  0  0  0
  8  9  1  0  0  0  0
  8 10  1  0  0  0  0
 11 13  2  0  0  0  0
 11 24  1  0  0  0  0
 12 34  1  0  0  0  0
 13 15  1  0  0  0  0
 14 34  1  0  0  0  0
 15 16  1  0  0  0  0
 16 17  1  0  0  0  0
 16 18  2  0  0  0  0
 17 20  1  0  0  0  0
 17 24  2  0  0  0  0
 19 21  1  0  0  0  0
 19 20  1  0  0  0  0
 20 22  1  0  0  0  0
 22 23  1  0  0  0  0
 22 26  1  6  0  0  0
 23 25  1  0  0  0  0
 24 25  1  0  0  0  0
 26 27  1  0  0  0  0
 27 31  1  0  0  0  0
 28 29  2  0  0  0  0
 28 33  1  0  0  0  0
 29 30  1  0  0  0  0
 30 31  2  0  0  0  0
 31 32  1  0  0  0  0
 32 33  2  0  0  0  0
M  END
>  <CHROM.1>
130.90009745,-64.54090266,162.25844876,-177.77969021,-95.42916325,-76.67907509
-172.39790656,160.76661664,123.73916193,-42.90658327,8.36908013,40.87991678
73.08507703,1.11432973,-0.45689005,-1.24074978

>  <Name>
ligand

>  <RI>
0

>  <Rbt.Current_Directory>
/home/itssahil/PROJECTS/Mol_Feturizer/New_Systems/rnas/3SUH

>  <Rbt.Executable>
rbdock ($Id: //depot/dev/client3/rdock/2013.1/src/exe/rbdock.cxx#4 $)

>  <Rbt.Library>
libRbt.so (2013.1, Build901 2013/11/27)

>  <Rbt.Parameter_File>
/export/apps/rDock/src/rDock_2013.1_src/data/scripts/dock_solv.prm

>  <Rbt.Receptor>
prm/pocket_docking_5.prm

>  <SCORE>
-14.815

>  <SCORE.INTER>
-10.8608

>  <SCORE.INTER.CONST>
1

>  <SCORE.INTER.POLAR>
0

>  <SCORE.INTER.ROT>
10

>  <SCORE.INTER.SOLV>
9.31754

>  <SCORE.INTER.VDW>
-20.613

>  <SCORE.INTER.norm>
-0.319434

>  <SCORE.INTRA>
-3.9542

>  <SCORE.INTRA.DIHEDRAL>
-4.36271

>  <SCORE.INTRA.DIHEDRAL.0>
12.2703

>  <SCORE.INTRA.POLAR>
0

>  <SCORE.INTRA.POLAR.0>
0

>  <SCORE.INTRA.REPUL>
0

>  <SCORE.INTRA.REPUL.0>
0

>  <SCORE.INTRA.SOLV>
-0.909136

>  <SCORE.INTRA.SOLV.lig_0>
-64.3214

>  <SCORE.INTRA.VDW>
-1.31827

>  <SCORE.INTRA.VDW.0>
-1.67301

>  <SCORE.INTRA.norm>
-0.1163

>  <SCORE.RESTR>
0

>  <SCORE.RESTR.CAVITY>
0

>  <SCORE.RESTR.norm>
0

>  <SCORE.SYSTEM>
0

>  <SCORE.SYSTEM.CONST>
0

>  <SCORE.SYSTEM.DIHEDRAL>
0

>  <SCORE.SYSTEM.SOLV>
0

>  <SCORE.SYSTEM.norm>
0

>  <SCORE.heavy>
34

>  <SCORE.norm>
-0.435734

>  <RMSD>
10.473

$$$$
ligand
 OpenBabel11021811483D
libRbt.so/2013.1/901 2013/11/27
 34 36  0  0  0  0  0  0  0  0999 V2000
    8.5584   42.0993   69.5885 N   0  0  0  0  0  0  0  0  0  0  0  0
    9.1694   42.5752   68.3255 C   0  0  1  0  0  0  0  0  0  0  0  0
    7.5101   42.6878   70.1790 C   0  0  0  0  0  0  0  0  0  0  0  0
    6.9378   43.6898   69.7410 O   0  0  0  0  0  0  0  0  0  0  0  0
    0.9288   42.4002   75.9740 N   0  0  0  0  0  0  0  0  0  0  0  0
   10.1100   43.7569   68.6157 C   0  0  0  0  0  0  0  0  0  0  0  0
   11.3501   43.3119   69.4027 C   0  0  0  0  0  0  0  0  0  0  0  0
   12.5381   44.2518   69.1469 C   0  0  0  0  0  0  0  0  0  0  0  0
   13.0613   44.2159   68.0085 O   0  0  0  0  0  0  0  0  0  0  0  0
   12.8955   44.9879   70.0952 O   0  0  0  0  0  0  0  0  0  0  0  0
    3.1951   42.2043   76.4027 N   0  0  0  0  0  0  0  0  0  0  0  0
   10.7027   41.7898   66.6582 O   0  0  0  0  0  0  0  0  0  0  0  0
    1.9601   41.6731   76.3961 C   0  0  0  0  0  0  0  0  0  0  0  0
    9.7564   40.2838   68.0092 O   0  0  0  0  0  0  0  0  0  0  0  0
    1.7445   40.3588   76.8295 N   0  0  0  0  0  0  0  0  0  0  0  0
    2.8288   39.6080   77.2631 C   0  0  0  0  0  0  0  0  0  0  0  0
    4.0956   40.1759   77.2269 C   0  0  0  0  0  0  0  0  0  0  0  0
    2.6665   38.4496   77.6384 O   0  0  0  0  0  0  0  0  0  0  0  0
    5.0422   38.6497   78.7359 C   0  0  0  0  0  0  0  0  0  0  0  0
    5.2003   39.4869   77.7151 N   0  0  0  0  0  0  0  0  0  0  0  0
    4.8621   39.0798   79.8729 O   0  0  0  0  0  0  0  0  0  0  0  0
    6.5421   39.8378   77.2373 C   0  0  2  0  0  0  0  0  0  0  0  0
    6.7171   41.3555   77.3345 C   0  0  0  0  0  0  0  0  0  0  0  0
    4.2542   41.4932   76.8184 C   0  0  0  0  0  0  0  0  0  0  0  0
    5.5255   42.0777   76.8247 N   0  0  0  0  0  0  0  0  0  0  0  0
    6.7343   39.3749   75.7890 C   0  0  0  0  0  0  0  0  0  0  0  0
    5.7893   40.0807   74.9150 N   0  0  0  0  0  0  0  0  0  0  0  0
    7.0155   41.9850   71.4562 C   0  0  0  0  0  0  0  0  0  0  0  0
    6.9645   40.5948   71.5245 C   0  0  0  0  0  0  0  0  0  0  0  0
    6.5697   39.9593   72.7000 C   0  0  0  0  0  0  0  0  0  0  0  0
    6.1784   40.7074   73.8052 C   0  0  0  0  0  0  0  0  0  0  0  0
    6.2202   42.0959   73.7358 C   0  0  0  0  0  0  0  0  0  0  0  0
    6.6491   42.7323   72.5719 C   0  0  0  0  0  0  0  0  0  0  0  0
    9.9450   41.4557   67.6010 C   0  0  0  0  0  0  0  0  0  0  0  0
  1  3  1  0  0  0  0
  2  1  1  1  0  0  0
  2  6  1  0  0  0  0
  2 34  1  0  0  0  0
  3  4  2  0  0  0  0
  3 28  1  0  0  0  0
  5 13  1  0  0  0  0
  6  7  1  0  0  0  0
  7  8  1  0  0  0  0
  8  9  1  0  0  0  0
  8 10  1  0  0  0  0
 11 13  2  0  0  0  0
 11 24  1  0  0  0  0
 12 34  1  0  0  0  0
 13 15  1  0  0  0  0
 14 34  1  0  0  0  0
 15 16  1  0  0  0  0
 16 17  1  0  0  0  0
 16 18  2  0  0  0  0
 17 20  1  0  0  0  0
 17 24  2  0  0  0  0
 19 21  1  0  0  0  0
 19 20  1  0  0  0  0
 20 22  1  0  0  0  0
 22 23  1  0  0  0  0
 22 26  1  6  0  0  0
 23 25  1  0  0  0  0
 24 25  1  0  0  0  0
 26 27  1  0  0  0  0
 27 31  1  0  0  0  0
 28 29  2  0  0  0  0
 28 33  1  0  0  0  0
 29 30  1  0  0  0  0
 30 31  2  0  0  0  0
 31 32  1  0  0  0  0
 32 33  2  0  0  0  0
M  END
>  <CHROM.1>
80.37055068,68.44134611,-167.27544369,153.89910592,-69.87101949,-73.61793932
63.19095149,129.07170258,71.90275744,-39.97662959,6.84774642,41.46431749
73.31540571,0.93513794,-0.01508207,-1.27185663

>  <Name>
ligand

>  <RI>
0

>  <Rbt.Current_Directory>
/home/itssahil/PROJECTS/Mol_Feturizer/New_Systems/rnas/3SUH

>  <Rbt.Executable>
rbdock ($Id: //depot/dev/client3/rdock/2013.1/src/exe/rbdock.cxx#4 $)

>  <Rbt.Library>
libRbt.so (2013.1, Build901 2013/11/27)

>  <Rbt.Parameter_File>
/export/apps/rDock/src/rDock_2013.1_src/data/scripts/dock_solv.prm

>  <Rbt.Receptor>
prm/pocket_docking_3.prm

>  <SCORE>
-9.93327

>  <SCORE.INTER>
-8.80079

>  <SCORE.INTER.CONST>
1

>  <SCORE.INTER.POLAR>
0

>  <SCORE.INTER.ROT>
10

>  <SCORE.INTER.SOLV>
9.85575

>  <SCORE.INTER.VDW>
-19.4191

>  <SCORE.INTER.norm>
-0.258847

>  <SCORE.INTRA>
-1.13248

>  <SCORE.INTRA.DIHEDRAL>
-1.85908

>  <SCORE.INTRA.DIHEDRAL.0>
12.2703

>  <SCORE.INTRA.POLAR>
0

>  <SCORE.INTRA.POLAR.0>
0

>  <SCORE.INTRA.REPUL>
0

>  <SCORE.INTRA.REPUL.0>
0

>  <SCORE.INTRA.SOLV>
2.25828

>  <SCORE.INTRA.SOLV.lig_0>
-64.3214

>  <SCORE.INTRA.VDW>
-1.33208

>  <SCORE.INTRA.VDW.0>
-1.67301

>  <SCORE.INTRA.norm>
-0.0333083

>  <SCORE.RESTR>
0

>  <SCORE.RESTR.CAVITY>
0

>  <SCORE.RESTR.norm>
0

>  <SCORE.SYSTEM>
0

>  <SCORE.SYSTEM.CONST>
0

>  <SCORE.SYSTEM.DIHEDRAL>
0

>  <SCORE.SYSTEM.SOLV>
0

>  <SCORE.SYSTEM.norm>
0

>  <SCORE.heavy>
34

>  <SCORE.norm>
-0.292155

>  <RMSD>
10.474

$$$$
ligand
 OpenBabel11021811483D
libRbt.so/2013.1/901 2013/11/27
 34 36  0  0  0  0  0  0  0  0999 V2000
    9.1527   43.1800   69.8979 N   0  0  0  0  0  0  0  0  0  0  0  0
    9.7665   43.6162   68.6220 C   0  0  1  0  0  0  0  0  0  0  0  0
    7.8344   43.1912   70.1345 C   0  0  0  0  0  0  0  0  0  0  0  0
    6.9854   43.5661   69.3210 O   0  0  0  0  0  0  0  0  0  0  0  0
    8.4491   39.0672   81.3979 N   0  0  0  0  0  0  0  0  0  0  0  0
   11.2218   44.0495   68.8664 C   0  0  0  0  0  0  0  0  0  0  0  0
   12.0789   42.8854   69.3818 C   0  0  0  0  0  0  0  0  0  0  0  0
   11.7056   42.5164   70.8256 C   0  0  0  0  0  0  0  0  0  0  0  0
   11.2057   41.3827   71.0153 O   0  0  0  0  0  0  0  0  0  0  0  0
   11.9307   43.3755   71.7087 O   0  0  0  0  0  0  0  0  0  0  0  0
    7.2247   39.0626   79.4334 N   0  0  0  0  0  0  0  0  0  0  0  0
    9.2161   41.4057   67.8746 O   0  0  0  0  0  0  0  0  0  0  0  0
    7.4835   39.5866   80.6441 C   0  0  0  0  0  0  0  0  0  0  0  0
   10.2091   42.7878   66.4281 O   0  0  0  0  0  0  0  0  0  0  0  0
    6.7467   40.6769   81.1239 N   0  0  0  0  0  0  0  0  0  0  0  0
    5.7449   41.2137   80.3265 C   0  0  0  0  0  0  0  0  0  0  0  0
    5.5248   40.6692   79.0681 C   0  0  0  0  0  0  0  0  0  0  0  0
    5.0918   42.1765   80.7211 O   0  0  0  0  0  0  0  0  0  0  0  0
    3.3711   41.5689   78.8347 C   0  0  0  0  0  0  0  0  0  0  0  0
    4.4882   41.1290   78.2634 N   0  0  0  0  0  0  0  0  0  0  0  0
    2.4293   41.9557   78.1465 O   0  0  0  0  0  0  0  0  0  0  0  0
    4.5596   40.9380   76.8107 C   0  0  2  0  0  0  0  0  0  0  0  0
    4.9103   39.4758   76.5239 C   0  0  0  0  0  0  0  0  0  0  0  0
    6.2604   39.5687   78.6498 C   0  0  0  0  0  0  0  0  0  0  0  0
    6.0069   38.9939   77.3995 N   0  0  0  0  0  0  0  0  0  0  0  0
    5.6153   41.8651   76.1987 C   0  0  0  0  0  0  0  0  0  0  0  0
    6.4219   41.1202   75.2241 N   0  0  0  0  0  0  0  0  0  0  0  0
    7.4257   42.6433   71.5139 C   0  0  0  0  0  0  0  0  0  0  0  0
    6.9160   41.3534   71.6404 C   0  0  0  0  0  0  0  0  0  0  0  0
    6.5988   40.8391   72.8961 C   0  0  0  0  0  0  0  0  0  0  0  0
    6.7454   41.6252   74.0341 C   0  0  0  0  0  0  0  0  0  0  0  0
    7.2459   42.9167   73.9086 C   0  0  0  0  0  0  0  0  0  0  0  0
    7.5971   43.4196   72.6566 C   0  0  0  0  0  0  0  0  0  0  0  0
    9.7245   42.5064   67.5513 C   0  0  0  0  0  0  0  0  0  0  0  0
  1  3  1  0  0  0  0
  2  1  1  1  0  0  0
  2  6  1  0  0  0  0
  2 34  1  0  0  0  0
  3  4  2  0  0  0  0
  3 28  1  0  0  0  0
  5 13  1  0  0  0  0
  6  7  1  0  0  0  0
  7  8  1  0  0  0  0
  8  9  1  0  0  0  0
  8 10  1  0  0  0  0
 11 13  2  0  0  0  0
 11 24  1  0  0  0  0
 12 34  1  0  0  0  0
 13 15  1  0  0  0  0
 14 34  1  0  0  0  0
 15 16  1  0  0  0  0
 16 17  1  0  0  0  0
 16 18  2  0  0  0  0
 17 20  1  0  0  0  0
 17 24  2  0  0  0  0
 19 21  1  0  0  0  0
 19 20  1  0  0  0  0
 20 22  1  0  0  0  0
 22 23  1  0  0  0  0
 22 26  1  1  0  0  0
 23 25  1  0  0  0  0
 24 25  1  0  0  0  0
 26 27  1  0  0  0  0
 27 31  1  0  0  0  0
 28 29  2  0  0  0  0
 28 33  1  0  0  0  0
 29 30  1  0  0  0  0
 30 31  2  0  0  0  0
 31 32  1  0  0  0  0
 32 33  2  0  0  0  0
M  END
>  <CHROM.1>
155.75214606,62.38307059,-0.95965347,-71.04026844,114.87694170,-178.53988926
135.79586756,136.06427981,-133.80346024,-101.55149546,7.49044078,41.67369246
74.27692895,1.17386661,0.11574118,-1.30315485

>  <Name>
ligand

>  <RI>
0

>  <Rbt.Current_Directory>
/home/itssahil/PROJECTS/Mol_Feturizer/New_Systems/rnas/3SUH

>  <Rbt.Executable>
rbdock ($Id: //depot/dev/client3/rdock/2013.1/src/exe/rbdock.cxx#4 $)

>  <Rbt.Library>
libRbt.so (2013.1, Build901 2013/11/27)

>  <Rbt.Parameter_File>
/export/apps/rDock/src/rDock_2013.1_src/data/scripts/dock_solv.prm

>  <Rbt.Receptor>
prm/pocket_docking_2.prm

>  <SCORE>
-0.459466

>  <SCORE.INTER>
-2.54468

>  <SCORE.INTER.CONST>
1

>  <SCORE.INTER.POLAR>
0

>  <SCORE.INTER.ROT>
10

>  <SCORE.INTER.SOLV>
5.86444

>  <SCORE.INTER.VDW>
-13.9179

>  <SCORE.INTER.norm>
-0.0748434

>  <SCORE.INTRA>
1.34186

>  <SCORE.INTRA.DIHEDRAL>
0.392686

>  <SCORE.INTRA.DIHEDRAL.0>
12.2703

>  <SCORE.INTRA.POLAR>
0

>  <SCORE.INTRA.POLAR.0>
0

>  <SCORE.INTRA.REPUL>
0

>  <SCORE.INTRA.REPUL.0>
0

>  <SCORE.INTRA.SOLV>
0.4917

>  <SCORE.INTRA.SOLV.lig_0>
-64.3214

>  <SCORE.INTRA.VDW>
0.899669

>  <SCORE.INTRA.VDW.0>
-1.67301

>  <SCORE.INTRA.norm>
0.0394665

>  <SCORE.RESTR>
0.743349

>  <SCORE.RESTR.CAVITY>
0.743349

>  <SCORE.RESTR.norm>
0.0218632

>  <SCORE.SYSTEM>
0

>  <SCORE.SYSTEM.CONST>
0

>  <SCORE.SYSTEM.DIHEDRAL>
0

>  <SCORE.SYSTEM.SOLV>
0

>  <SCORE.SYSTEM.norm>
0

>  <SCORE.heavy>
34

>  <SCORE.norm>
-0.0135137

>  <RMSD>
10.477

$$$$
ligand
 OpenBabel11021811483D
libRbt.so/2013.1/901 2013/11/27
 34 36  0  0  0  0  0  0  0  0999 V2000
    9.8107   42.7627   69.1271 N   0  0  0  0  0  0  0  0  0  0  0  0
   10.5687   43.5552   68.1310 C   0  0  1  0  0  0  0  0  0  0  0  0
    8.5014   42.9166   69.3639 C   0  0  0  0  0  0  0  0  0  0  0  0
    7.7814   43.7335   68.7831 O   0  0  0  0  0  0  0  0  0  0  0  0
    4.7287   36.2356   79.8904 N   0  0  0  0  0  0  0  0  0  0  0  0
   11.9461   43.9297   68.7034 C   0  0  0  0  0  0  0  0  0  0  0  0
   11.8181   44.8214   69.9459 C   0  0  0  0  0  0  0  0  0  0  0  0
   13.1965   45.1498   70.5394 C   0  0  0  0  0  0  0  0  0  0  0  0
   13.6191   44.4024   71.4526 O   0  0  0  0  0  0  0  0  0  0  0  0
   13.7989   46.1400   70.0647 O   0  0  0  0  0  0  0  0  0  0  0  0
    5.1207   38.1962   78.7240 N   0  0  0  0  0  0  0  0  0  0  0  0
   10.5031   41.5633   66.7984 O   0  0  0  0  0  0  0  0  0  0  0  0
    5.4093   36.9053   78.9638 C   0  0  0  0  0  0  0  0  0  0  0  0
   11.1234   43.4685   65.8115 O   0  0  0  0  0  0  0  0  0  0  0  0
    6.4213   36.2537   78.2476 N   0  0  0  0  0  0  0  0  0  0  0  0
    7.1215   36.9611   77.2797 C   0  0  0  0  0  0  0  0  0  0  0  0
    6.7767   38.2838   77.0345 C   0  0  0  0  0  0  0  0  0  0  0  0
    8.0066   36.4085   76.6313 O   0  0  0  0  0  0  0  0  0  0  0  0
    8.7953   38.8224   75.9680 C   0  0  0  0  0  0  0  0  0  0  0  0
    7.4948   39.0510   76.1240 N   0  0  0  0  0  0  0  0  0  0  0  0
    9.3200   38.9345   74.8623 O   0  0  0  0  0  0  0  0  0  0  0  0
    6.8618   40.2199   75.5033 C   0  0  2  0  0  0  0  0  0  0  0  0
    6.2216   41.0730   76.6014 C   0  0  0  0  0  0  0  0  0  0  0  0
    5.7871   38.8949   77.7924 C   0  0  0  0  0  0  0  0  0  0  0  0
    5.4716   40.2406   77.5741 N   0  0  0  0  0  0  0  0  0  0  0  0
    5.8007   39.7801   74.4888 C   0  0  0  0  0  0  0  0  0  0  0  0
    6.4544   39.3297   73.2539 N   0  0  0  0  0  0  0  0  0  0  0  0
    7.9198   41.9452   70.4069 C   0  0  0  0  0  0  0  0  0  0  0  0
    8.0958   40.5705   70.2693 C   0  0  0  0  0  0  0  0  0  0  0  0
    7.6170   39.6960   71.2428 C   0  0  0  0  0  0  0  0  0  0  0  0
    6.9177   40.1836   72.3417 C   0  0  0  0  0  0  0  0  0  0  0  0
    6.7333   41.5555   72.4762 C   0  0  0  0  0  0  0  0  0  0  0  0
    7.2429   42.4337   71.5209 C   0  0  0  0  0  0  0  0  0  0  0  0
   10.7449   42.7946   66.8005 C   0  0  0  0  0  0  0  0  0  0  0  0
  1  3  1  0  0  0  0
  2  1  1  1  0  0  0
  2  6  1  0  0  0  0
  2 34  1  0  0  0  0
  3  4  2  0  0  0  0
  3 28  1  0  0  0  0
  5 13  1  0  0  0  0
  6  7  1  0  0  0  0
  7  8  1  0  0  0  0
  8  9  1  0  0  0  0
  8 10  1  0  0  0  0
 11 13  2  0  0  0  0
 11 24  1  0  0  0  0
 12 34  1  0  0  0  0
 13 15  1  0  0  0  0
 14 34  1  0  0  0  0
 15 16  1  0  0  0  0
 16 17  1  0  0  0  0
 16 18  2  0  0  0  0
 17 20  1  0  0  0  0
 17 24  2  0  0  0  0
 19 21  1  0  0  0  0
 19 20  1  0  0  0  0
 20 22  1  0  0  0  0
 22 23  1  0  0  0  0
 22 26  1  6  0  0  0
 23 25  1  0  0  0  0
 24 25  1  0  0  0  0
 26 27  1  0  0  0  0
 27 31  1  0  0  0  0
 28 29  2  0  0  0  0
 28 33  1  0  0  0  0
 29 30  1  0  0  0  0
 30 31  2  0  0  0  0
 31 32  1  0  0  0  0
 32 33  2  0  0  0  0
M  END
>  <CHROM.1>
139.40005219,-62.73800567,-14.39832385,178.01051024,-93.46347882,144.51498931
-76.98508963,-79.05471486,175.12525837,-53.46469015,8.43912284,40.84404127
72.96813401,1.04683177,-0.57601916,-1.29779072

>  <Name>
ligand

>  <RI>
0

>  <Rbt.Current_Directory>
/home/itssahil/PROJECTS/Mol_Feturizer/New_Systems/rnas/3SUH

>  <Rbt.Executable>
rbdock ($Id: //depot/dev/client3/rdock/2013.1/src/exe/rbdock.cxx#4 $)

>  <Rbt.Library>
libRbt.so (2013.1, Build901 2013/11/27)

>  <Rbt.Parameter_File>
/export/apps/rDock/src/rDock_2013.1_src/data/scripts/dock_solv.prm

>  <Rbt.Receptor>
prm/pocket_docking_5.prm

>  <SCORE>
-12.7513

>  <SCORE.INTER>
-9.57808

>  <SCORE.INTER.CONST>
1

>  <SCORE.INTER.POLAR>
0

>  <SCORE.INTER.ROT>
10

>  <SCORE.INTER.SOLV>
7.80923

>  <SCORE.INTER.VDW>
-19.2551

>  <SCORE.INTER.norm>
-0.281708

>  <SCORE.INTRA>
-3.17317

>  <SCORE.INTRA.DIHEDRAL>
-3.88431

>  <SCORE.INTRA.DIHEDRAL.0>
12.2703

>  <SCORE.INTRA.POLAR>
0

>  <SCORE.INTRA.POLAR.0>
0

>  <SCORE.INTRA.REPUL>
0

>  <SCORE.INTRA.REPUL.0>
0

>  <SCORE.INTRA.SOLV>
-0.218312

>  <SCORE.INTRA.SOLV.lig_0>
-64.3214

>  <SCORE.INTRA.VDW>
-1.12186

>  <SCORE.INTRA.VDW.0>
-1.67301

>  <SCORE.INTRA.norm>
-0.0933286

>  <SCORE.RESTR>
0

>  <SCORE.RESTR.CAVITY>
0

>  <SCORE.RESTR.norm>
0

>  <SCORE.SYSTEM>
0

>  <SCORE.SYSTEM.CONST>
0

>  <SCORE.SYSTEM.DIHEDRAL>
0

>  <SCORE.SYSTEM.SOLV>
0

>  <SCORE.SYSTEM.norm>
0

>  <SCORE.heavy>
34

>  <SCORE.norm>
-0.375037

>  <RMSD>
10.483

$$$$
ligand
 OpenBabel11021811483D
libRbt.so/2013.1/901 2013/11/27
 34 36  0  0  0  0  0  0  0  0999 V2000
    8.6353   42.3041   69.6041 N   0  0  0  0  0  0  0  0  0  0  0  0
    9.1188   43.2533   68.5745 C   0  0  1  0  0  0  0  0  0  0  0  0
    8.2637   41.0442   69.3425 C   0  0  0  0  0  0  0  0  0  0  0  0
    8.2802   40.5337   68.2189 O   0  0  0  0  0  0  0  0  0  0  0  0
   10.6016   39.2029   80.6232 N   0  0  0  0  0  0  0  0  0  0  0  0
    9.3960   44.6223   69.2183 C   0  0  0  0  0  0  0  0  0  0  0  0
    8.0971   45.3180   69.6476 C   0  0  0  0  0  0  0  0  0  0  0  0
    8.3609   46.7664   70.0868 C   0  0  0  0  0  0  0  0  0  0  0  0
    8.7631   46.9441   71.2605 O   0  0  0  0  0  0  0  0  0  0  0  0
    8.1569   47.6644   69.2378 O   0  0  0  0  0  0  0  0  0  0  0  0
    9.5056   38.0339   78.9527 N   0  0  0  0  0  0  0  0  0  0  0  0
   11.1507   41.9822   68.5170 O   0  0  0  0  0  0  0  0  0  0  0  0
    9.5063   38.9894   79.8984 C   0  0  0  0  0  0  0  0  0  0  0  0
   10.5746   43.1270   66.6877 O   0  0  0  0  0  0  0  0  0  0  0  0
    8.3644   39.7663   80.1312 N   0  0  0  0  0  0  0  0  0  0  0  0
    7.2290   39.5379   79.3654 C   0  0  0  0  0  0  0  0  0  0  0  0
    7.2720   38.5652   78.3753 C   0  0  0  0  0  0  0  0  0  0  0  0
    6.2185   40.2132   79.5440 O   0  0  0  0  0  0  0  0  0  0  0  0
    4.9423   38.3540   78.2010 C   0  0  0  0  0  0  0  0  0  0  0  0
    6.1394   38.2547   77.6308 N   0  0  0  0  0  0  0  0  0  0  0  0
    4.0207   38.9237   77.6211 O   0  0  0  0  0  0  0  0  0  0  0  0
    6.2884   37.6372   76.3085 C   0  0  2  0  0  0  0  0  0  0  0  0
    7.2474   36.4498   76.4260 C   0  0  0  0  0  0  0  0  0  0  0  0
    8.4174   37.7997   78.2036 C   0  0  0  0  0  0  0  0  0  0  0  0
    8.4436   36.7902   77.2351 N   0  0  0  0  0  0  0  0  0  0  0  0
    6.8283   38.6554   75.2984 C   0  0  0  0  0  0  0  0  0  0  0  0
    6.8142   38.0708   73.9518 N   0  0  0  0  0  0  0  0  0  0  0  0
    7.8462   40.2286   70.5796 C   0  0  0  0  0  0  0  0  0  0  0  0
    8.3934   38.9697   70.8150 C   0  0  0  0  0  0  0  0  0  0  0  0
    8.0566   38.2566   71.9638 C   0  0  0  0  0  0  0  0  0  0  0  0
    7.1347   38.7751   72.8669 C   0  0  0  0  0  0  0  0  0  0  0  0
    6.5805   40.0283   72.6288 C   0  0  0  0  0  0  0  0  0  0  0  0
    6.9438   40.7580   71.4978 C   0  0  0  0  0  0  0  0  0  0  0  0
   10.3908   42.7410   67.8679 C   0  0  0  0  0  0  0  0  0  0  0  0
  1  3  1  0  0  0  0
  2  1  1  1  0  0  0
  2  6  1  0  0  0  0
  2 34  1  0  0  0  0
  3  4  2  0  0  0  0
  3 28  1  0  0  0  0
  5 13  1  0  0  0  0
  6  7  1  0  0  0  0
  7  8  1  0  0  0  0
  8  9  1  0  0  0  0
  8 10  1  0  0  0  0
 11 13  2  0  0  0  0
 11 24  1  0  0  0  0
 12 34  1  0  0  0  0
 13 15  1  0  0  0  0
 14 34  1  0  0  0  0
 15 16  1  0  0  0  0
 16 17  1  0  0  0  0
 16 18  2  0  0  0  0
 17 20  1  0  0  0  0
 17 24  2  0  0  0  0
 19 21  1  0  0  0  0
 19 20  1  0  0  0  0
 20 22  1  0  0  0  0
 22 23  1  0  0  0  0
 22 26  1  6  0  0  0
 23 25  1  0  0  0  0
 24 25  1  0  0  0  0
 26 27  1  0  0  0  0
 27 31  1  0  0  0  0
 28 29  2  0  0  0  0
 28 33  1  0  0  0  0
 29 30  1  0  0  0  0
 30 31  2  0  0  0  0
 31 32  1  0  0  0  0
 32 33  2  0  0  0  0
M  END
>  <CHROM.1>
177.51796440,-69.62810516,-28.39627210,-171.19610759,-82.33508668,132.95749754
-173.05837822,174.70590140,130.20674225,-129.36551485,8.00388498,40.63348692
73.67907200,0.41930209,-1.40495140,-2.20474455

>  <Name>
ligand

>  <RI>
0

>  <Rbt.Current_Directory>
/home/itssahil/PROJECTS/Mol_Feturizer/New_Systems/rnas/3SUH

>  <Rbt.Executable>
rbdock ($Id: //depot/dev/client3/rdock/2013.1/src/exe/rbdock.cxx#4 $)

>  <Rbt.Library>
libRbt.so (2013.1, Build901 2013/11/27)

>  <Rbt.Parameter_File>
/export/apps/rDock/src/rDock_2013.1_src/data/scripts/dock_solv.prm

>  <Rbt.Receptor>
prm/pocket_docking_7.prm

>  <SCORE>
-9.62468

>  <SCORE.INTER>
-5.46403

>  <SCORE.INTER.CONST>
1

>  <SCORE.INTER.POLAR>
0

>  <SCORE.INTER.ROT>
10

>  <SCORE.INTER.SOLV>
5.88952

>  <SCORE.INTER.VDW>
-15.8725

>  <SCORE.INTER.norm>
-0.160707

>  <SCORE.INTRA>
-4.16065

>  <SCORE.INTRA.DIHEDRAL>
-5.04395

>  <SCORE.INTRA.DIHEDRAL.0>
12.2703

>  <SCORE.INTRA.POLAR>
0

>  <SCORE.INTRA.POLAR.0>
0

>  <SCORE.INTRA.REPUL>
0

>  <SCORE.INTRA.REPUL.0>
0

>  <SCORE.INTRA.SOLV>
-0.79288

>  <SCORE.INTRA.SOLV.lig_0>
-64.3214

>  <SCORE.INTRA.VDW>
-1.24224

>  <SCORE.INTRA.VDW.0>
-1.67301

>  <SCORE.INTRA.norm>
-0.122372

>  <SCORE.RESTR>
0

>  <SCORE.RESTR.CAVITY>
0

>  <SCORE.RESTR.norm>
0

>  <SCORE.SYSTEM>
0

>  <SCORE.SYSTEM.CONST>
0

>  <SCORE.SYSTEM.DIHEDRAL>
0

>  <SCORE.SYSTEM.SOLV>
0

>  <SCORE.SYSTEM.norm>
0

>  <SCORE.heavy>
34

>  <SCORE.norm>
-0.283079

>  <RMSD>
10.483

$$$$
ligand
 OpenBabel11021811483D
libRbt.so/2013.1/901 2013/11/27
 34 36  0  0  0  0  0  0  0  0999 V2000
    8.7766   42.3561   69.5868 N   0  0  0  0  0  0  0  0  0  0  0  0
    9.2295   43.3303   68.5666 C   0  0  1  0  0  0  0  0  0  0  0  0
    8.1707   41.1975   69.2958 C   0  0  0  0  0  0  0  0  0  0  0  0
    7.9205   40.8125   68.1502 O   0  0  0  0  0  0  0  0  0  0  0  0
    1.8762   40.8637   78.0619 N   0  0  0  0  0  0  0  0  0  0  0  0
    9.5186   44.6855   69.2337 C   0  0  0  0  0  0  0  0  0  0  0  0
    8.2272   45.3757   69.6936 C   0  0  0  0  0  0  0  0  0  0  0  0
    7.5023   44.5440   70.7626 C   0  0  0  0  0  0  0  0  0  0  0  0
    6.5629   43.8095   70.3764 O   0  0  0  0  0  0  0  0  0  0  0  0
    7.9053   44.6591   71.9429 O   0  0  0  0  0  0  0  0  0  0  0  0
    3.9194   39.7766   78.0192 N   0  0  0  0  0  0  0  0  0  0  0  0
   10.6679   43.2653   66.6497 O   0  0  0  0  0  0  0  0  0  0  0  0
    2.6767   39.9415   77.5336 C   0  0  0  0  0  0  0  0  0  0  0  0
   11.2329   42.0407   68.4301 O   0  0  0  0  0  0  0  0  0  0  0  0
    2.2122   39.1519   76.4741 N   0  0  0  0  0  0  0  0  0  0  0  0
    3.0581   38.1963   75.9275 C   0  0  0  0  0  0  0  0  0  0  0  0
    4.3463   38.0736   76.4312 C   0  0  0  0  0  0  0  0  0  0  0  0
    2.6770   37.4986   74.9909 O   0  0  0  0  0  0  0  0  0  0  0  0
    4.6970   35.9232   75.5623 C   0  0  0  0  0  0  0  0  0  0  0  0
    5.2045   37.0853   75.9619 N   0  0  0  0  0  0  0  0  0  0  0  0
    4.3728   35.0688   76.3840 O   0  0  0  0  0  0  0  0  0  0  0  0
    6.6546   37.2595   76.1003 C   0  0  2  0  0  0  0  0  0  0  0  0
    6.9659   37.6583   77.5451 C   0  0  0  0  0  0  0  0  0  0  0  0
    4.7500   38.8581   77.5031 C   0  0  0  0  0  0  0  0  0  0  0  0
    6.0335   38.7020   78.0380 N   0  0  0  0  0  0  0  0  0  0  0  0
    7.1606   38.3357   75.1337 C   0  0  0  0  0  0  0  0  0  0  0  0
    6.8525   37.9440   73.7528 N   0  0  0  0  0  0  0  0  0  0  0  0
    7.8375   40.3233   70.5183 C   0  0  0  0  0  0  0  0  0  0  0  0
    6.9380   40.7696   71.4835 C   0  0  0  0  0  0  0  0  0  0  0  0
    6.5950   39.9544   72.5603 C   0  0  0  0  0  0  0  0  0  0  0  0
    7.1821   38.7022   72.7077 C   0  0  0  0  0  0  0  0  0  0  0  0
    8.0874   38.2585   71.7495 C   0  0  0  0  0  0  0  0  0  0  0  0
    8.4041   39.0590   70.6529 C   0  0  0  0  0  0  0  0  0  0  0  0
   10.4843   42.8392   67.8156 C   0  0  0  0  0  0  0  0  0  0  0  0
  1  3  1  0  0  0  0
  2  1  1  1  0  0  0
  2  6  1  0  0  0  0
  2 34  1  0  0  0  0
  3  4  2  0  0  0  0
  3 28  1  0  0  0  0
  5 13  1  0  0  0  0
  6  7  1  0  0  0  0
  7  8  1  0  0  0  0
  8  9  1  0  0  0  0
  8 10  1  0  0  0  0
 11 13  2  0  0  0  0
 11 24  1  0  0  0  0
 12 34  1  0  0  0  0
 13 15  1  0  0  0  0
 14 34  1  0  0  0  0
 15 16  1  0  0  0  0
 16 17  1  0  0  0  0
 16 18  2  0  0  0  0
 17 20  1  0  0  0  0
 17 24  2  0  0  0  0
 19 21  1  0  0  0  0
 19 20  1  0  0  0  0
 20 22  1  0  0  0  0
 22 23  1  0  0  0  0
 22 26  1  6  0  0  0
 23 25  1  0  0  0  0
 24 25  1  0  0  0  0
 26 27  1  0  0  0  0
 27 31  1  0  0  0  0
 28 29  2  0  0  0  0
 28 33  1  0  0  0  0
 29 30  1  0  0  0  0
 30 31  2  0  0  0  0
 31 32  1  0  0  0  0
 32 33  2  0  0  0  0
M  END
>  <CHROM.1>
164.52164124,-70.48418996,153.32779758,62.72627300,-97.58225159,-79.16127817
-59.63836333,179.96269235,-64.76009649,63.67063560,6.62465873,40.21800717
73.00812970,-0.74283114,-0.88144103,2.83818005

>  <Name>
ligand

>  <RI>
0

>  <Rbt.Current_Directory>
/home/itssahil/PROJECTS/Mol_Feturizer/New_Systems/rnas/3SUH

>  <Rbt.Executable>
rbdock ($Id: //depot/dev/client3/rdock/2013.1/src/exe/rbdock.cxx#4 $)

>  <Rbt.Library>
libRbt.so (2013.1, Build901 2013/11/27)

>  <Rbt.Parameter_File>
/export/apps/rDock/src/rDock_2013.1_src/data/scripts/dock_solv.prm

>  <Rbt.Receptor>
prm/pocket_docking_7.prm

>  <SCORE>
-12.0346

>  <SCORE.INTER>
-6.56932

>  <SCORE.INTER.CONST>
1

>  <SCORE.INTER.POLAR>
0

>  <SCORE.INTER.ROT>
10

>  <SCORE.INTER.SOLV>
6.44502

>  <SCORE.INTER.VDW>
-16.7946

>  <SCORE.INTER.norm>
-0.193215

>  <SCORE.INTRA>
-5.46526

>  <SCORE.INTRA.DIHEDRAL>
-5.46017

>  <SCORE.INTRA.DIHEDRAL.0>
12.2703

>  <SCORE.INTRA.POLAR>
0

>  <SCORE.INTRA.POLAR.0>
0

>  <SCORE.INTRA.REPUL>
0

>  <SCORE.INTRA.REPUL.0>
0

>  <SCORE.INTRA.SOLV>
-0.037926

>  <SCORE.INTRA.SOLV.lig_0>
-64.3214

>  <SCORE.INTRA.VDW>
-2.71621

>  <SCORE.INTRA.VDW.0>
-1.67301

>  <SCORE.INTRA.norm>
-0.160743

>  <SCORE.RESTR>
0

>  <SCORE.RESTR.CAVITY>
0

>  <SCORE.RESTR.norm>
0

>  <SCORE.SYSTEM>
0

>  <SCORE.SYSTEM.CONST>
0

>  <SCORE.SYSTEM.DIHEDRAL>
0

>  <SCORE.SYSTEM.SOLV>
0

>  <SCORE.SYSTEM.norm>
0

>  <SCORE.heavy>
34

>  <SCORE.norm>
-0.353958

>  <RMSD>
10.487

$$$$
ligand
 OpenBabel11021811483D
libRbt.so/2013.1/901 2013/11/27
 34 36  0  0  0  0  0  0  0  0999 V2000
    9.2955   42.9072   69.3983 N   0  0  0  0  0  0  0  0  0  0  0  0
   10.0301   43.5990   68.3135 C   0  0  1  0  0  0  0  0  0  0  0  0
    8.0299   43.1845   69.7379 C   0  0  0  0  0  0  0  0  0  0  0  0
    7.3357   44.0450   69.1895 O   0  0  0  0  0  0  0  0  0  0  0  0
    8.0776   38.6091   81.3889 N   0  0  0  0  0  0  0  0  0  0  0  0
   11.2968   44.2598   68.8824 C   0  0  0  0  0  0  0  0  0  0  0  0
   12.3397   43.2148   69.3015 C   0  0  0  0  0  0  0  0  0  0  0  0
   11.7819   42.2737   70.3801 C   0  0  0  0  0  0  0  0  0  0  0  0
   11.5516   41.0888   70.0421 O   0  0  0  0  0  0  0  0  0  0  0  0
   11.6003   42.7594   71.5202 O   0  0  0  0  0  0  0  0  0  0  0  0
    6.8962   38.3220   79.4191 N   0  0  0  0  0  0  0  0  0  0  0  0
   10.8555   43.1418   66.1095 O   0  0  0  0  0  0  0  0  0  0  0  0
    7.3113   39.1121   80.4245 C   0  0  0  0  0  0  0  0  0  0  0  0
   10.2441   41.4118   67.3831 O   0  0  0  0  0  0  0  0  0  0  0  0
    6.9461   40.4635   80.4696 N   0  0  0  0  0  0  0  0  0  0  0  0
    6.1503   40.9786   79.4552 C   0  0  0  0  0  0  0  0  0  0  0  0
    5.7654   40.1433   78.4148 C   0  0  0  0  0  0  0  0  0  0  0  0
    5.8253   42.1632   79.4674 O   0  0  0  0  0  0  0  0  0  0  0  0
    3.9876   41.5035   77.7135 C   0  0  0  0  0  0  0  0  0  0  0  0
    4.9129   40.5968   77.4142 N   0  0  0  0  0  0  0  0  0  0  0  0
    2.9158   41.1609   78.2075 O   0  0  0  0  0  0  0  0  0  0  0  0
    4.9121   39.9315   76.1067 C   0  0  2  0  0  0  0  0  0  0  0  0
    4.7975   38.4206   76.3242 C   0  0  0  0  0  0  0  0  0  0  0  0
    6.1268   38.8030   78.4308 C   0  0  0  0  0  0  0  0  0  0  0  0
    5.7008   37.9528   77.4043 N   0  0  0  0  0  0  0  0  0  0  0  0
    6.1960   40.2593   75.3369 C   0  0  0  0  0  0  0  0  0  0  0  0
    6.0236   39.9171   73.9197 N   0  0  0  0  0  0  0  0  0  0  0  0
    7.4588   42.3002   70.8612 C   0  0  0  0  0  0  0  0  0  0  0  0
    7.5736   40.9136   70.7979 C   0  0  0  0  0  0  0  0  0  0  0  0
    7.1058   40.1176   71.8416 C   0  0  0  0  0  0  0  0  0  0  0  0
    6.4778   40.6968   72.9391 C   0  0  0  0  0  0  0  0  0  0  0  0
    6.3544   42.0808   72.9998 C   0  0  0  0  0  0  0  0  0  0  0  0
    6.8540   42.8802   71.9727 C   0  0  0  0  0  0  0  0  0  0  0  0
   10.4113   42.6373   67.1691 C   0  0  0  0  0  0  0  0  0  0  0  0
  1  3  1  0  0  0  0
  2  1  1  1  0  0  0
  2  6  1  0  0  0  0
  2 34  1  0  0  0  0
  3  4  2  0  0  0  0
  3 28  1  0  0  0  0
  5 13  1  0  0  0  0
  6  7  1  0  0  0  0
  7  8  1  0  0  0  0
  8  9  1  0  0  0  0
  8 10  1  0  0  0  0
 11 13  2  0  0  0  0
 11 24  1  0  0  0  0
 12 34  1  0  0  0  0
 13 15  1  0  0  0  0
 14 34  1  0  0  0  0
 15 16  1  0  0  0  0
 16 17  1  0  0  0  0
 16 18  2  0  0  0  0
 17 20  1  0  0  0  0
 17 24  2  0  0  0  0
 19 21  1  0  0  0  0
 19 20  1  0  0  0  0
 20 22  1  0  0  0  0
 22 23  1  0  0  0  0
 22 26  1  1  0  0  0
 23 25  1  0  0  0  0
 24 25  1  0  0  0  0
 26 27  1  0  0  0  0
 27 31  1  0  0  0  0
 28 29  2  0  0  0  0
 28 33  1  0  0  0  0
 29 30  1  0  0  0  0
 30 31  2  0  0  0  0
 31 32  1  0  0  0  0
 32 33  2  0  0  0  0
M  END
>  <CHROM.1>
121.39363415,69.56720019,169.53027440,-59.80559589,109.72870451,-82.93195827
-164.09688937,138.97450713,137.56369633,-49.62342624,7.65982449,41.25897047
73.74658023,1.16961175,0.04124345,-1.27027826

>  <Name>
ligand

>  <RI>
0

>  <Rbt.Current_Directory>
/home/itssahil/PROJECTS/Mol_Feturizer/New_Systems/rnas/3SUH

>  <Rbt.Executable>
rbdock ($Id: //depot/dev/client3/rdock/2013.1/src/exe/rbdock.cxx#4 $)

>  <Rbt.Library>
libRbt.so (2013.1, Build901 2013/11/27)

>  <Rbt.Parameter_File>
/export/apps/rDock/src/rDock_2013.1_src/data/scripts/dock_solv.prm

>  <Rbt.Receptor>
prm/pocket_docking_3.prm

>  <SCORE>
-10.7193

>  <SCORE.INTER>
-7.53928

>  <SCORE.INTER.CONST>
1

>  <SCORE.INTER.POLAR>
0

>  <SCORE.INTER.ROT>
10

>  <SCORE.INTER.SOLV>
8.92391

>  <SCORE.INTER.VDW>
-18.2675

>  <SCORE.INTER.norm>
-0.221744

>  <SCORE.INTRA>
-3.18005

>  <SCORE.INTRA.DIHEDRAL>
-2.77029

>  <SCORE.INTRA.DIHEDRAL.0>
12.2703

>  <SCORE.INTRA.POLAR>
0

>  <SCORE.INTRA.POLAR.0>
0

>  <SCORE.INTRA.REPUL>
0

>  <SCORE.INTRA.REPUL.0>
0

>  <SCORE.INTRA.SOLV>
-0.803481

>  <SCORE.INTRA.SOLV.lig_0>
-64.3214

>  <SCORE.INTRA.VDW>
-1.39317

>  <SCORE.INTRA.VDW.0>
-1.67301

>  <SCORE.INTRA.norm>
-0.093531

>  <SCORE.RESTR>
0

>  <SCORE.RESTR.CAVITY>
0

>  <SCORE.RESTR.norm>
0

>  <SCORE.SYSTEM>
0

>  <SCORE.SYSTEM.CONST>
0

>  <SCORE.SYSTEM.DIHEDRAL>
0

>  <SCORE.SYSTEM.SOLV>
0

>  <SCORE.SYSTEM.norm>
0

>  <SCORE.heavy>
34

>  <SCORE.norm>
-0.315275

>  <RMSD>
10.489

$$$$
ligand
 OpenBabel11021811483D
libRbt.so/2013.1/901 2013/11/27
 34 36  0  0  0  0  0  0  0  0999 V2000
    7.3075   39.5987   71.1389 N   0  0  0  0  0  0  0  0  0  0  0  0
    8.3908   40.0396   70.2295 C   0  0  1  0  0  0  0  0  0  0  0  0
    7.1573   38.3378   71.5651 C   0  0  0  0  0  0  0  0  0  0  0  0
    7.8998   37.4041   71.2488 O   0  0  0  0  0  0  0  0  0  0  0  0
    8.3149   40.1468   78.9476 N   0  0  0  0  0  0  0  0  0  0  0  0
    8.2060   41.5266   69.8830 C   0  0  0  0  0  0  0  0  0  0  0  0
    9.0200   41.9233   68.6440 C   0  0  0  0  0  0  0  0  0  0  0  0
    9.1482   43.4499   68.5280 C   0  0  0  0  0  0  0  0  0  0  0  0
   10.2619   43.9055   68.1770 O   0  0  0  0  0  0  0  0  0  0  0  0
    8.1284   44.1279   68.7905 O   0  0  0  0  0  0  0  0  0  0  0  0
    6.3246   38.9774   79.1189 N   0  0  0  0  0  0  0  0  0  0  0  0
   10.7799   39.9056   70.0805 O   0  0  0  0  0  0  0  0  0  0  0  0
    7.0618   39.9458   78.5479 C   0  0  0  0  0  0  0  0  0  0  0  0
    9.8292   39.5551   72.0711 O   0  0  0  0  0  0  0  0  0  0  0  0
    6.5255   40.7486   77.5333 N   0  0  0  0  0  0  0  0  0  0  0  0
    5.2186   40.5264   77.1209 C   0  0  0  0  0  0  0  0  0  0  0  0
    4.4952   39.4972   77.7090 C   0  0  0  0  0  0  0  0  0  0  0  0
    4.7294   41.2109   76.2257 O   0  0  0  0  0  0  0  0  0  0  0  0
    2.4009   40.3213   77.0478 C   0  0  0  0  0  0  0  0  0  0  0  0
    3.1622   39.2821   77.3771 N   0  0  0  0  0  0  0  0  0  0  0  0
    1.9998   41.0987   77.9109 O   0  0  0  0  0  0  0  0  0  0  0  0
    2.5682   37.9572   77.5865 C   0  0  2  0  0  0  0  0  0  0  0  0
    2.8931   37.4921   79.0083 C   0  0  0  0  0  0  0  0  0  0  0  0
    5.0601   38.7488   78.7328 C   0  0  0  0  0  0  0  0  0  0  0  0
    4.3142   37.7414   79.3545 N   0  0  0  0  0  0  0  0  0  0  0  0
    3.1162   36.9557   76.5640 C   0  0  0  0  0  0  0  0  0  0  0  0
    2.8940   37.4651   75.2052 N   0  0  0  0  0  0  0  0  0  0  0  0
    5.9898   38.1272   72.5460 C   0  0  0  0  0  0  0  0  0  0  0  0
    4.8817   37.3694   72.1751 C   0  0  0  0  0  0  0  0  0  0  0  0
    3.8513   37.1332   73.0830 C   0  0  0  0  0  0  0  0  0  0  0  0
    3.8967   37.6899   74.3568 C   0  0  0  0  0  0  0  0  0  0  0  0
    4.9984   38.4544   74.7259 C   0  0  0  0  0  0  0  0  0  0  0  0
    6.0464   38.6616   73.8301 C   0  0  0  0  0  0  0  0  0  0  0  0
    9.7880   39.8159   70.8439 C   0  0  0  0  0  0  0  0  0  0  0  0
  1  3  1  0  0  0  0
  2  1  1  1  0  0  0
  2  6  1  0  0  0  0
  2 34  1  0  0  0  0
  3  4  2  0  0  0  0
  3 28  1  0  0  0  0
  5 13  1  0  0  0  0
  6  7  1  0  0  0  0
  7  8  1  0  0  0  0
  8  9  1  0  0  0  0
  8 10  1  0  0  0  0
 11 13  2  0  0  0  0
 11 24  1  0  0  0  0
 12 34  1  0  0  0  0
 13 15  1  0  0  0  0
 14 34  1  0  0  0  0
 15 16  1  0  0  0  0
 16 17  1  0  0  0  0
 16 18  2  0  0  0  0
 17 20  1  0  0  0  0
 17 24  2  0  0  0  0
 19 21  1  0  0  0  0
 19 20  1  0  0  0  0
 20 22  1  0  0  0  0
 22 23  1  0  0  0  0
 22 26  1  6  0  0  0
 23 25  1  0  0  0  0
 24 25  1  0  0  0  0
 26 27  1  0  0  0  0
 27 31  1  0  0  0  0
 28 29  2  0  0  0  0
 28 33  1  0  0  0  0
 29 30  1  0  0  0  0
 30 31  2  0  0  0  0
 31 32  1  0  0  0  0
 32 33  2  0  0  0  0
M  END
>  <CHROM.1>
176.53798621,-162.79810065,166.53644124,-164.31304284,139.01404174,-74.60799575
-55.30122831,120.47612945,127.81192641,112.92343908,6.13450411,39.63797877
74.23479737,0.74468827,-0.80787567,-1.93665413

>  <Name>
ligand

>  <RI>
0

>  <Rbt.Current_Directory>
/home/itssahil/PROJECTS/Mol_Feturizer/New_Systems/rnas/3SUH

>  <Rbt.Executable>
rbdock ($Id: //depot/dev/client3/rdock/2013.1/src/exe/rbdock.cxx#4 $)

>  <Rbt.Library>
libRbt.so (2013.1, Build901 2013/11/27)

>  <Rbt.Parameter_File>
/export/apps/rDock/src/rDock_2013.1_src/data/scripts/dock_solv.prm

>  <Rbt.Receptor>
prm/pocket_docking_8.prm

>  <SCORE>
-6.76183

>  <SCORE.INTER>
-2.73671

>  <SCORE.INTER.CONST>
1

>  <SCORE.INTER.POLAR>
0

>  <SCORE.INTER.ROT>
10

>  <SCORE.INTER.SOLV>
7.73905

>  <SCORE.INTER.VDW>
-14.6708

>  <SCORE.INTER.norm>
-0.0804914

>  <SCORE.INTRA>
-4.02512

>  <SCORE.INTRA.DIHEDRAL>
-2.71875

>  <SCORE.INTRA.DIHEDRAL.0>
12.2703

>  <SCORE.INTRA.POLAR>
0

>  <SCORE.INTRA.POLAR.0>
0

>  <SCORE.INTRA.REPUL>
0

>  <SCORE.INTRA.REPUL.0>
0

>  <SCORE.INTRA.SOLV>
-0.262403

>  <SCORE.INTRA.SOLV.lig_0>
-64.3214

>  <SCORE.INTRA.VDW>
-2.53454

>  <SCORE.INTRA.VDW.0>
-1.67301

>  <SCORE.INTRA.norm>
-0.118386

>  <SCORE.RESTR>
0

>  <SCORE.RESTR.CAVITY>
0

>  <SCORE.RESTR.norm>
0

>  <SCORE.SYSTEM>
0

>  <SCORE.SYSTEM.CONST>
0

>  <SCORE.SYSTEM.DIHEDRAL>
0

>  <SCORE.SYSTEM.SOLV>
0

>  <SCORE.SYSTEM.norm>
0

>  <SCORE.heavy>
34

>  <SCORE.norm>
-0.198877

>  <RMSD>
10.489

$$$$
ligand
 OpenBabel11021811483D
libRbt.so/2013.1/901 2013/11/27
 34 36  0  0  0  0  0  0  0  0999 V2000
   10.0959   43.1705   68.8129 N   0  0  0  0  0  0  0  0  0  0  0  0
   10.9928   43.6867   67.7528 C   0  0  1  0  0  0  0  0  0  0  0  0
    8.8964   42.6239   68.5754 C   0  0  0  0  0  0  0  0  0  0  0  0
    8.4036   42.4904   67.4518 O   0  0  0  0  0  0  0  0  0  0  0  0
    0.5812   39.4649   77.4453 N   0  0  0  0  0  0  0  0  0  0  0  0
   12.3677   44.0244   68.3536 C   0  0  0  0  0  0  0  0  0  0  0  0
   12.2869   45.2194   69.3132 C   0  0  0  0  0  0  0  0  0  0  0  0
   11.4426   44.8822   70.5516 C   0  0  0  0  0  0  0  0  0  0  0  0
   11.9623   44.1333   71.4118 O   0  0  0  0  0  0  0  0  0  0  0  0
   10.2962   45.3833   70.6121 O   0  0  0  0  0  0  0  0  0  0  0  0
    2.6097   40.5726   77.3164 N   0  0  0  0  0  0  0  0  0  0  0  0
   11.7005   43.0904   65.5412 O   0  0  0  0  0  0  0  0  0  0  0  0
    1.8516   39.4946   77.0507 C   0  0  0  0  0  0  0  0  0  0  0  0
   10.7386   41.5144   66.7980 O   0  0  0  0  0  0  0  0  0  0  0  0
    2.3841   38.3981   76.3610 N   0  0  0  0  0  0  0  0  0  0  0  0
    3.7095   38.4423   75.9499 C   0  0  0  0  0  0  0  0  0  0  0  0
    4.4556   39.5838   76.2121 C   0  0  0  0  0  0  0  0  0  0  0  0
    4.1963   37.4972   75.3344 O   0  0  0  0  0  0  0  0  0  0  0  0
    6.5339   38.5351   75.9236 C   0  0  0  0  0  0  0  0  0  0  0  0
    5.8045   39.6459   75.8805 N   0  0  0  0  0  0  0  0  0  0  0  0
    7.6272   38.4849   75.3646 O   0  0  0  0  0  0  0  0  0  0  0  0
    6.4432   40.9522   75.6856 C   0  0  2  0  0  0  0  0  0  0  0  0
    6.0976   41.8507   76.8758 C   0  0  0  0  0  0  0  0  0  0  0  0
    3.8921   40.6323   76.9266 C   0  0  0  0  0  0  0  0  0  0  0  0
    4.6590   41.7631   77.2283 N   0  0  0  0  0  0  0  0  0  0  0  0
    5.9625   41.5952   74.3802 C   0  0  0  0  0  0  0  0  0  0  0  0
    6.2980   40.7238   73.2473 N   0  0  0  0  0  0  0  0  0  0  0  0
    8.1657   42.1108   69.8295 C   0  0  0  0  0  0  0  0  0  0  0  0
    8.1023   40.7467   70.1032 C   0  0  0  0  0  0  0  0  0  0  0  0
    7.4891   40.2874   71.2671 C   0  0  0  0  0  0  0  0  0  0  0  0
    6.8930   41.1842   72.1473 C   0  0  0  0  0  0  0  0  0  0  0  0
    6.9476   42.5462   71.8711 C   0  0  0  0  0  0  0  0  0  0  0  0
    7.5921   43.0091   70.7248 C   0  0  0  0  0  0  0  0  0  0  0  0
   11.1608   42.6792   66.5967 C   0  0  0  0  0  0  0  0  0  0  0  0
  1  3  1  0  0  0  0
  2  1  1  1  0  0  0
  2  6  1  0  0  0  0
  2 34  1  0  0  0  0
  3  4  2  0  0  0  0
  3 28  1  0  0  0  0
  5 13  1  0  0  0  0
  6  7  1  0  0  0  0
  7  8  1  0  0  0  0
  8  9  1  0  0  0  0
  8 10  1  0  0  0  0
 11 13  2  0  0  0  0
 11 24  1  0  0  0  0
 12 34  1  0  0  0  0
 13 15  1  0  0  0  0
 14 34  1  0  0  0  0
 15 16  1  0  0  0  0
 16 17  1  0  0  0  0
 16 18  2  0  0  0  0
 17 20  1  0  0  0  0
 17 24  2  0  0  0  0
 19 21  1  0  0  0  0
 19 20  1  0  0  0  0
 20 22  1  0  0  0  0
 22 23  1  0  0  0  0
 22 26  1  6  0  0  0
 23 25  1  0  0  0  0
 24 25  1  0  0  0  0
 26 27  1  0  0  0  0
 27 31  1  0  0  0  0
 28 29  2  0  0  0  0
 28 33  1  0  0  0  0
 29 30  1  0  0  0  0
 30 31  2  0  0  0  0
 31 32  1  0  0  0  0
 32 33  2  0  0  0  0
M  END
>  <CHROM.1>
-170.66779407,-67.66859251,167.74637033,65.61138221,74.38080404,163.75884767
-59.75061630,-131.56434226,163.67369403,-104.34041548,7.38573581,41.49360187
72.45596451,0.54491842,-0.77287177,-1.98967641

>  <Name>
ligand

>  <RI>
0

>  <Rbt.Current_Directory>
/home/itssahil/PROJECTS/Mol_Feturizer/New_Systems/rnas/3SUH

>  <Rbt.Executable>
rbdock ($Id: //depot/dev/client3/rdock/2013.1/src/exe/rbdock.cxx#4 $)

>  <Rbt.Library>
libRbt.so (2013.1, Build901 2013/11/27)

>  <Rbt.Parameter_File>
/export/apps/rDock/src/rDock_2013.1_src/data/scripts/dock_solv.prm

>  <Rbt.Receptor>
prm/pocket_docking_4.prm

>  <SCORE>
-13.0762

>  <SCORE.INTER>
-10.3435

>  <SCORE.INTER.CONST>
1

>  <SCORE.INTER.POLAR>
0

>  <SCORE.INTER.ROT>
10

>  <SCORE.INTER.SOLV>
11.3653

>  <SCORE.INTER.VDW>
-20.9508

>  <SCORE.INTER.norm>
-0.304221

>  <SCORE.INTRA>
-2.73268

>  <SCORE.INTRA.DIHEDRAL>
-4.60788

>  <SCORE.INTRA.DIHEDRAL.0>
12.2703

>  <SCORE.INTRA.POLAR>
0

>  <SCORE.INTRA.POLAR.0>
0

>  <SCORE.INTRA.REPUL>
0

>  <SCORE.INTRA.REPUL.0>
0

>  <SCORE.INTRA.SOLV>
0.551595

>  <SCORE.INTRA.SOLV.lig_0>
-64.3214

>  <SCORE.INTRA.VDW>
-0.704541

>  <SCORE.INTRA.VDW.0>
-1.67301

>  <SCORE.INTRA.norm>
-0.080373

>  <SCORE.RESTR>
0

>  <SCORE.RESTR.CAVITY>
0

>  <SCORE.RESTR.norm>
0

>  <SCORE.SYSTEM>
0

>  <SCORE.SYSTEM.CONST>
0

>  <SCORE.SYSTEM.DIHEDRAL>
0

>  <SCORE.SYSTEM.SOLV>
0

>  <SCORE.SYSTEM.norm>
0

>  <SCORE.heavy>
34

>  <SCORE.norm>
-0.384594

>  <RMSD>
10.506

$$$$
ligand
 OpenBabel11021811483D
libRbt.so/2013.1/901 2013/11/27
 34 36  0  0  0  0  0  0  0  0999 V2000
    9.9160   42.7465   68.9582 N   0  0  0  0  0  0  0  0  0  0  0  0
   10.6808   43.5203   67.9526 C   0  0  1  0  0  0  0  0  0  0  0  0
    8.7243   42.1837   68.7189 C   0  0  0  0  0  0  0  0  0  0  0  0
    8.1300   42.2469   67.6390 O   0  0  0  0  0  0  0  0  0  0  0  0
    9.3497   39.1225   80.1707 N   0  0  0  0  0  0  0  0  0  0  0  0
   12.0252   43.9661   68.5519 C   0  0  0  0  0  0  0  0  0  0  0  0
   11.8262   44.8965   69.7560 C   0  0  0  0  0  0  0  0  0  0  0  0
   13.1739   45.3588   70.3305 C   0  0  0  0  0  0  0  0  0  0  0  0
   13.7253   46.3394   69.7779 O   0  0  0  0  0  0  0  0  0  0  0  0
   13.6221   44.7227   71.3120 O   0  0  0  0  0  0  0  0  0  0  0  0
    8.2590   38.3422   78.2840 N   0  0  0  0  0  0  0  0  0  0  0  0
   10.6588   41.4833   66.6886 O   0  0  0  0  0  0  0  0  0  0  0  0
    8.3542   39.2245   79.2938 C   0  0  0  0  0  0  0  0  0  0  0  0
   11.3829   43.3394   65.6789 O   0  0  0  0  0  0  0  0  0  0  0  0
    7.4152   40.2540   79.4350 N   0  0  0  0  0  0  0  0  0  0  0  0
    6.3836   40.3536   78.5111 C   0  0  0  0  0  0  0  0  0  0  0  0
    6.3326   39.4455   77.4618 C   0  0  0  0  0  0  0  0  0  0  0  0
    5.5536   41.2541   78.6080 O   0  0  0  0  0  0  0  0  0  0  0  0
    4.0736   39.8381   76.9669 C   0  0  0  0  0  0  0  0  0  0  0  0
    5.2805   39.4642   76.5529 N   0  0  0  0  0  0  0  0  0  0  0  0
    3.3872   39.0824   77.6512 O   0  0  0  0  0  0  0  0  0  0  0  0
    5.4667   38.8869   75.2172 C   0  0  2  0  0  0  0  0  0  0  0  0
    6.0788   37.4917   75.3658 C   0  0  0  0  0  0  0  0  0  0  0  0
    7.2688   38.4234   77.3824 C   0  0  0  0  0  0  0  0  0  0  0  0
    7.1897   37.4831   76.3493 N   0  0  0  0  0  0  0  0  0  0  0  0
    6.3812   39.7783   74.3700 C   0  0  0  0  0  0  0  0  0  0  0  0
    6.4940   39.2245   73.0150 N   0  0  0  0  0  0  0  0  0  0  0  0
    8.1437   41.3846   69.8996 C   0  0  0  0  0  0  0  0  0  0  0  0
    7.2733   41.9891   70.8034 C   0  0  0  0  0  0  0  0  0  0  0  0
    6.7050   41.2501   71.8391 C   0  0  0  0  0  0  0  0  0  0  0  0
    7.0362   39.9100   72.0091 C   0  0  0  0  0  0  0  0  0  0  0  0
    7.9122   39.3071   71.1128 C   0  0  0  0  0  0  0  0  0  0  0  0
    8.4536   40.0365   70.0551 C   0  0  0  0  0  0  0  0  0  0  0  0
   10.9265   42.7089   66.6637 C   0  0  0  0  0  0  0  0  0  0  0  0
  1  3  1  0  0  0  0
  2  1  1  1  0  0  0
  2  6  1  0  0  0  0
  2 34  1  0  0  0  0
  3  4  2  0  0  0  0
  3 28  1  0  0  0  0
  5 13  1  0  0  0  0
  6  7  1  0  0  0  0
  7  8  1  0  0  0  0
  8  9  1  0  0  0  0
  8 10  1  0  0  0  0
 11 13  2  0  0  0  0
 11 24  1  0  0  0  0
 12 34  1  0  0  0  0
 13 15  1  0  0  0  0
 14 34  1  0  0  0  0
 15 16  1  0  0  0  0
 16 17  1  0  0  0  0
 16 18  2  0  0  0  0
 17 20  1  0  0  0  0
 17 24  2  0  0  0  0
 19 21  1  0  0  0  0
 19 20  1  0  0  0  0
 20 22  1  0  0  0  0
 22 23  1  0  0  0  0
 22 26  1  6  0  0  0
 23 25  1  0  0  0  0
 24 25  1  0  0  0  0
 26 27  1  0  0  0  0
 27 31  1  0  0  0  0
 28 29  2  0  0  0  0
 28 33  1  0  0  0  0
 29 30  1  0  0  0  0
 30 31  2  0  0  0  0
 31 32  1  0  0  0  0
 32 33  2  0  0  0  0
M  END
>  <CHROM.1>
-177.61011447,-62.25562086,-10.76727345,-178.87079460,83.49151450,-74.84583283
-176.81372242,168.27458831,-43.86414107,93.37074683,8.38412640,41.08682776
72.98004909,1.01754219,-0.62406705,-1.48699917

>  <Name>
ligand

>  <RI>
0

>  <Rbt.Current_Directory>
/home/itssahil/PROJECTS/Mol_Feturizer/New_Systems/rnas/3SUH

>  <Rbt.Executable>
rbdock ($Id: //depot/dev/client3/rdock/2013.1/src/exe/rbdock.cxx#4 $)

>  <Rbt.Library>
libRbt.so (2013.1, Build901 2013/11/27)

>  <Rbt.Parameter_File>
/export/apps/rDock/src/rDock_2013.1_src/data/scripts/dock_solv.prm

>  <Rbt.Receptor>
prm/pocket_docking_5.prm

>  <SCORE>
-15.9586

>  <SCORE.INTER>
-11.8233

>  <SCORE.INTER.CONST>
1

>  <SCORE.INTER.POLAR>
0

>  <SCORE.INTER.ROT>
10

>  <SCORE.INTER.SOLV>
9.38659

>  <SCORE.INTER.VDW>
-21.2777

>  <SCORE.INTER.norm>
-0.347745

>  <SCORE.INTRA>
-4.13524

>  <SCORE.INTRA.DIHEDRAL>
-5.84868

>  <SCORE.INTRA.DIHEDRAL.0>
12.2703

>  <SCORE.INTRA.POLAR>
0

>  <SCORE.INTRA.POLAR.0>
0

>  <SCORE.INTRA.REPUL>
0

>  <SCORE.INTRA.REPUL.0>
0

>  <SCORE.INTRA.SOLV>
-0.693236

>  <SCORE.INTRA.SOLV.lig_0>
-64.3214

>  <SCORE.INTRA.VDW>
-0.864286

>  <SCORE.INTRA.VDW.0>
-1.67301

>  <SCORE.INTRA.norm>
-0.121625

>  <SCORE.RESTR>
0

>  <SCORE.RESTR.CAVITY>
0

>  <SCORE.RESTR.norm>
0

>  <SCORE.SYSTEM>
0

>  <SCORE.SYSTEM.CONST>
0

>  <SCORE.SYSTEM.DIHEDRAL>
0

>  <SCORE.SYSTEM.SOLV>
0

>  <SCORE.SYSTEM.norm>
0

>  <SCORE.heavy>
34

>  <SCORE.norm>
-0.46937

>  <RMSD>
10.518

$$$$
ligand
 OpenBabel11021811483D
libRbt.so/2013.1/901 2013/11/27
 34 36  0  0  0  0  0  0  0  0999 V2000
    7.3829   41.9211   70.7494 N   0  0  0  0  0  0  0  0  0  0  0  0
    8.1051   42.7389   69.7472 C   0  0  1  0  0  0  0  0  0  0  0  0
    7.9571   40.9561   71.4796 C   0  0  0  0  0  0  0  0  0  0  0  0
    9.1472   40.6390   71.3996 O   0  0  0  0  0  0  0  0  0  0  0  0
    6.8362   42.8955   80.4016 N   0  0  0  0  0  0  0  0  0  0  0  0
    7.9868   42.0857   68.3599 C   0  0  0  0  0  0  0  0  0  0  0  0
    8.7234   40.7404   68.3043 C   0  0  0  0  0  0  0  0  0  0  0  0
   10.2464   40.9381   68.3445 C   0  0  0  0  0  0  0  0  0  0  0  0
   10.8819   40.3096   69.2233 O   0  0  0  0  0  0  0  0  0  0  0  0
   10.7423   41.7118   67.4935 O   0  0  0  0  0  0  0  0  0  0  0  0
    6.1075   40.7393   79.9794 N   0  0  0  0  0  0  0  0  0  0  0  0
    6.5065   44.4375   70.3014 O   0  0  0  0  0  0  0  0  0  0  0  0
    6.0369   42.0608   79.7422 C   0  0  0  0  0  0  0  0  0  0  0  0
    8.2508   45.0103   69.0293 O   0  0  0  0  0  0  0  0  0  0  0  0
    5.1292   42.5719   78.8060 N   0  0  0  0  0  0  0  0  0  0  0  0
    4.3036   41.6909   78.1205 C   0  0  0  0  0  0  0  0  0  0  0  0
    4.4244   40.3294   78.3658 C   0  0  0  0  0  0  0  0  0  0  0  0
    3.5065   42.1142   77.2872 O   0  0  0  0  0  0  0  0  0  0  0  0
    2.3234   39.7792   77.4795 C   0  0  0  0  0  0  0  0  0  0  0  0
    3.5727   39.4162   77.7543 N   0  0  0  0  0  0  0  0  0  0  0  0
    1.4964   39.8989   78.3806 O   0  0  0  0  0  0  0  0  0  0  0  0
    3.9949   38.0192   77.6052 C   0  0  2  0  0  0  0  0  0  0  0  0
    4.5111   37.5151   78.9553 C   0  0  0  0  0  0  0  0  0  0  0  0
    5.3175   39.8738   79.3261 C   0  0  0  0  0  0  0  0  0  0  0  0
    5.4062   38.5052   79.6035 N   0  0  0  0  0  0  0  0  0  0  0  0
    5.0918   37.9006   76.5416 C   0  0  0  0  0  0  0  0  0  0  0  0
    4.5861   38.3904   75.2533 N   0  0  0  0  0  0  0  0  0  0  0  0
    7.0201   40.2761   72.4942 C   0  0  0  0  0  0  0  0  0  0  0  0
    6.4701   39.0258   72.2221 C   0  0  0  0  0  0  0  0  0  0  0  0
    5.6671   38.3870   73.1649 C   0  0  0  0  0  0  0  0  0  0  0  0
    5.3686   39.0113   74.3713 C   0  0  0  0  0  0  0  0  0  0  0  0
    5.9098   40.2638   74.6410 C   0  0  0  0  0  0  0  0  0  0  0  0
    6.7423   40.8882   73.7132 C   0  0  0  0  0  0  0  0  0  0  0  0
    7.5733   44.1859   69.6905 C   0  0  0  0  0  0  0  0  0  0  0  0
  1  3  1  0  0  0  0
  2  1  1  1  0  0  0
  2  6  1  0  0  0  0
  2 34  1  0  0  0  0
  3  4  2  0  0  0  0
  3 28  1  0  0  0  0
  5 13  1  0  0  0  0
  6  7  1  0  0  0  0
  7  8  1  0  0  0  0
  8  9  1  0  0  0  0
  8 10  1  0  0  0  0
 11 13  2  0  0  0  0
 11 24  1  0  0  0  0
 12 34  1  0  0  0  0
 13 15  1  0  0  0  0
 14 34  1  0  0  0  0
 15 16  1  0  0  0  0
 16 17  1  0  0  0  0
 16 18  2  0  0  0  0
 17 20  1  0  0  0  0
 17 24  2  0  0  0  0
 19 21  1  0  0  0  0
 19 20  1  0  0  0  0
 20 22  1  0  0  0  0
 22 23  1  0  0  0  0
 22 26  1  6  0  0  0
 23 25  1  0  0  0  0
 24 25  1  0  0  0  0
 26 27  1  0  0  0  0
 27 31  1  0  0  0  0
 28 29  2  0  0  0  0
 28 33  1  0  0  0  0
 29 30  1  0  0  0  0
 30 31  2  0  0  0  0
 31 32  1  0  0  0  0
 32 33  2  0  0  0  0
M  END
>  <CHROM.1>
92.21458675,-66.42974390,-10.98993605,-70.60457236,126.39944871,-72.89453239
-59.66108188,146.49389554,111.95721968,101.73457993,6.29728062,40.78935675
74.29491108,-0.09014333,1.13759822,0.30579573

>  <Name>
ligand

>  <RI>
0

>  <Rbt.Current_Directory>
/home/itssahil/PROJECTS/Mol_Feturizer/New_Systems/rnas/3SUH

>  <Rbt.Executable>
rbdock ($Id: //depot/dev/client3/rdock/2013.1/src/exe/rbdock.cxx#4 $)

>  <Rbt.Library>
libRbt.so (2013.1, Build901 2013/11/27)

>  <Rbt.Parameter_File>
/export/apps/rDock/src/rDock_2013.1_src/data/scripts/dock_solv.prm

>  <Rbt.Receptor>
prm/pocket_docking_4.prm

>  <SCORE>
-9.82642

>  <SCORE.INTER>
-5.38634

>  <SCORE.INTER.CONST>
1

>  <SCORE.INTER.POLAR>
0

>  <SCORE.INTER.ROT>
10

>  <SCORE.INTER.SOLV>
7.49622

>  <SCORE.INTER.VDW>
-16.3563

>  <SCORE.INTER.norm>
-0.158422

>  <SCORE.INTRA>
-4.45307

>  <SCORE.INTRA.DIHEDRAL>
-4.01519

>  <SCORE.INTRA.DIHEDRAL.0>
12.2703

>  <SCORE.INTRA.POLAR>
0

>  <SCORE.INTRA.POLAR.0>
0

>  <SCORE.INTRA.REPUL>
0

>  <SCORE.INTRA.REPUL.0>
0

>  <SCORE.INTRA.SOLV>
0.0163366

>  <SCORE.INTRA.SOLV.lig_0>
-64.3214

>  <SCORE.INTRA.VDW>
-2.45365

>  <SCORE.INTRA.VDW.0>
-1.67301

>  <SCORE.INTRA.norm>
-0.130973

>  <SCORE.RESTR>
0.0129962

>  <SCORE.RESTR.CAVITY>
0.0129962

>  <SCORE.RESTR.norm>
0.00038224

>  <SCORE.SYSTEM>
0

>  <SCORE.SYSTEM.CONST>
0

>  <SCORE.SYSTEM.DIHEDRAL>
0

>  <SCORE.SYSTEM.SOLV>
0

>  <SCORE.SYSTEM.norm>
0

>  <SCORE.heavy>
34

>  <SCORE.norm>
-0.289012

>  <RMSD>
10.525

$$$$
ligand
 OpenBabel11021811483D
libRbt.so/2013.1/901 2013/11/27
 34 36  0  0  0  0  0  0  0  0999 V2000
   10.3733   43.0261   69.0216 N   0  0  0  0  0  0  0  0  0  0  0  0
   11.0226   43.7036   67.8752 C   0  0  1  0  0  0  0  0  0  0  0  0
    9.0483   42.9880   69.2136 C   0  0  0  0  0  0  0  0  0  0  0  0
    8.2216   43.5120   68.4617 O   0  0  0  0  0  0  0  0  0  0  0  0
    6.8262   40.1417   81.5677 N   0  0  0  0  0  0  0  0  0  0  0  0
   12.4853   44.0273   68.2228 C   0  0  0  0  0  0  0  0  0  0  0  0
   12.5863   44.9153   69.4705 C   0  0  0  0  0  0  0  0  0  0  0  0
   12.1819   44.1443   70.7363 C   0  0  0  0  0  0  0  0  0  0  0  0
   11.2348   44.6106   71.4121 O   0  0  0  0  0  0  0  0  0  0  0  0
   12.8273   43.1036   70.9989 O   0  0  0  0  0  0  0  0  0  0  0  0
    6.3377   39.5196   79.3922 N   0  0  0  0  0  0  0  0  0  0  0  0
   10.5641   41.6655   66.6988 O   0  0  0  0  0  0  0  0  0  0  0  0
    6.4220   40.4669   80.3424 C   0  0  0  0  0  0  0  0  0  0  0  0
   11.3357   43.4044   65.5284 O   0  0  0  0  0  0  0  0  0  0  0  0
    6.0885   41.7971   80.0578 N   0  0  0  0  0  0  0  0  0  0  0  0
    5.6727   42.1256   78.7745 C   0  0  0  0  0  0  0  0  0  0  0  0
    5.6275   41.1293   77.8082 C   0  0  0  0  0  0  0  0  0  0  0  0
    5.3846   43.2873   78.4979 O   0  0  0  0  0  0  0  0  0  0  0  0
    4.1981   42.3094   76.3707 C   0  0  0  0  0  0  0  0  0  0  0  0
    5.1523   41.3972   76.5292 N   0  0  0  0  0  0  0  0  0  0  0  0
    3.0547   42.0907   76.7648 O   0  0  0  0  0  0  0  0  0  0  0  0
    5.5600   40.5401   75.4106 C   0  0  2  0  0  0  0  0  0  0  0  0
    5.3516   39.0773   75.8110 C   0  0  0  0  0  0  0  0  0  0  0  0
    5.9379   39.8192   78.1471 C   0  0  0  0  0  0  0  0  0  0  0  0
    5.8490   38.8091   77.1829 N   0  0  0  0  0  0  0  0  0  0  0  0
    7.0299   40.7866   75.0536 C   0  0  0  0  0  0  0  0  0  0  0  0
    7.3542   40.1029   73.7956 N   0  0  0  0  0  0  0  0  0  0  0  0
    8.6018   42.1814   70.4464 C   0  0  0  0  0  0  0  0  0  0  0  0
    9.3052   42.2732   71.6450 C   0  0  0  0  0  0  0  0  0  0  0  0
    8.8675   41.5859   72.7754 C   0  0  0  0  0  0  0  0  0  0  0  0
    7.7477   40.7639   72.7074 C   0  0  0  0  0  0  0  0  0  0  0  0
    7.0492   40.6641   71.5089 C   0  0  0  0  0  0  0  0  0  0  0  0
    7.4657   41.3792   70.3869 C   0  0  0  0  0  0  0  0  0  0  0  0
   10.9672   42.8491   66.5921 C   0  0  0  0  0  0  0  0  0  0  0  0
  1  3  1  0  0  0  0
  2  1  1  1  0  0  0
  2  6  1  0  0  0  0
  2 34  1  0  0  0  0
  3  4  2  0  0  0  0
  3 28  1  0  0  0  0
  5 13  1  0  0  0  0
  6  7  1  0  0  0  0
  7  8  1  0  0  0  0
  8  9  1  0  0  0  0
  8 10  1  0  0  0  0
 11 13  2  0  0  0  0
 11 24  1  0  0  0  0
 12 34  1  0  0  0  0
 13 15  1  0  0  0  0
 14 34  1  0  0  0  0
 15 16  1  0  0  0  0
 16 17  1  0  0  0  0
 16 18  2  0  0  0  0
 17 20  1  0  0  0  0
 17 24  2  0  0  0  0
 19 21  1  0  0  0  0
 19 20  1  0  0  0  0
 20 22  1  0  0  0  0
 22 23  1  0  0  0  0
 22 26  1  1  0  0  0
 23 25  1  0  0  0  0
 24 25  1  0  0  0  0
 26 27  1  0  0  0  0
 27 31  1  0  0  0  0
 28 29  2  0  0  0  0
 28 33  1  0  0  0  0
 29 30  1  0  0  0  0
 30 31  2  0  0  0  0
 31 32  1  0  0  0  0
 32 33  2  0  0  0  0
M  END
>  <CHROM.1>
158.30994133,-58.27358957,-9.06511137,69.53276816,-121.92811241,-69.91173911
-170.14871745,117.97267439,56.97851595,41.11657001,8.07599406,41.93307710
73.34246608,-1.02548161,0.47718105,1.53785591

>  <Name>
ligand

>  <RI>
0

>  <Rbt.Current_Directory>
/home/itssahil/PROJECTS/Mol_Feturizer/New_Systems/rnas/3SUH

>  <Rbt.Executable>
rbdock ($Id: //depot/dev/client3/rdock/2013.1/src/exe/rbdock.cxx#4 $)

>  <Rbt.Library>
libRbt.so (2013.1, Build901 2013/11/27)

>  <Rbt.Parameter_File>
/export/apps/rDock/src/rDock_2013.1_src/data/scripts/dock_solv.prm

>  <Rbt.Receptor>
prm/pocket_docking_3.prm

>  <SCORE>
-10.2035

>  <SCORE.INTER>
-6.17675

>  <SCORE.INTER.CONST>
1

>  <SCORE.INTER.POLAR>
0

>  <SCORE.INTER.ROT>
10

>  <SCORE.INTER.SOLV>
7.3218

>  <SCORE.INTER.VDW>
-16.8251

>  <SCORE.INTER.norm>
-0.181669

>  <SCORE.INTRA>
-4.02678

>  <SCORE.INTRA.DIHEDRAL>
-3.85974

>  <SCORE.INTRA.DIHEDRAL.0>
12.2703

>  <SCORE.INTRA.POLAR>
0

>  <SCORE.INTRA.POLAR.0>
0

>  <SCORE.INTRA.REPUL>
0

>  <SCORE.INTRA.REPUL.0>
0

>  <SCORE.INTRA.SOLV>
-0.401142

>  <SCORE.INTRA.SOLV.lig_0>
-64.3214

>  <SCORE.INTRA.VDW>
-1.89633

>  <SCORE.INTRA.VDW.0>
-1.67301

>  <SCORE.INTRA.norm>
-0.118435

>  <SCORE.RESTR>
0

>  <SCORE.RESTR.CAVITY>
0

>  <SCORE.RESTR.norm>
0

>  <SCORE.SYSTEM>
0

>  <SCORE.SYSTEM.CONST>
0

>  <SCORE.SYSTEM.DIHEDRAL>
0

>  <SCORE.SYSTEM.SOLV>
0

>  <SCORE.SYSTEM.norm>
0

>  <SCORE.heavy>
34

>  <SCORE.norm>
-0.300104

>  <RMSD>
10.529

$$$$
ligand
 OpenBabel11021811483D
libRbt.so/2013.1/901 2013/11/27
 34 36  0  0  0  0  0  0  0  0999 V2000
    8.0495   42.1258   71.2331 N   0  0  0  0  0  0  0  0  0  0  0  0
    8.7294   42.0701   69.9180 C   0  0  1  0  0  0  0  0  0  0  0  0
    7.0218   42.9394   71.5085 C   0  0  0  0  0  0  0  0  0  0  0  0
    6.5278   43.7327   70.7023 O   0  0  0  0  0  0  0  0  0  0  0  0
    8.7616   40.1183   79.8917 N   0  0  0  0  0  0  0  0  0  0  0  0
   10.2459   42.2401   70.1088 C   0  0  0  0  0  0  0  0  0  0  0  0
   11.0053   42.0601   68.7873 C   0  0  0  0  0  0  0  0  0  0  0  0
   10.6444   43.1655   67.7833 C   0  0  0  0  0  0  0  0  0  0  0  0
    9.6593   42.9604   67.0360 O   0  0  0  0  0  0  0  0  0  0  0  0
   11.3605   44.1931   67.7870 O   0  0  0  0  0  0  0  0  0  0  0  0
    6.9475   39.9200   78.4676 N   0  0  0  0  0  0  0  0  0  0  0  0
    8.6364   39.6776   69.7956 O   0  0  0  0  0  0  0  0  0  0  0  0
    7.4635   40.2871   79.6535 C   0  0  0  0  0  0  0  0  0  0  0  0
    8.0325   40.8468   67.9909 O   0  0  0  0  0  0  0  0  0  0  0  0
    6.6487   40.8476   80.6453 N   0  0  0  0  0  0  0  0  0  0  0  0
    5.2966   41.0235   80.3837 C   0  0  0  0  0  0  0  0  0  0  0  0
    4.8019   40.6634   79.1371 C   0  0  0  0  0  0  0  0  0  0  0  0
    4.5636   41.5224   81.2340 O   0  0  0  0  0  0  0  0  0  0  0  0
    2.5637   40.5619   79.8317 C   0  0  0  0  0  0  0  0  0  0  0  0
    3.4438   40.7575   78.8544 N   0  0  0  0  0  0  0  0  0  0  0  0
    1.5045   39.9796   79.6096 O   0  0  0  0  0  0  0  0  0  0  0  0
    3.0000   40.8700   77.4606 C   0  0  2  0  0  0  0  0  0  0  0  0
    3.6889   39.7797   76.6360 C   0  0  0  0  0  0  0  0  0  0  0  0
    5.6434   40.0828   78.1978 C   0  0  0  0  0  0  0  0  0  0  0  0
    5.1337   39.6800   76.9586 N   0  0  0  0  0  0  0  0  0  0  0  0
    3.3422   42.2541   76.8985 C   0  0  0  0  0  0  0  0  0  0  0  0
    4.7920   42.3594   76.6931 N   0  0  0  0  0  0  0  0  0  0  0  0
    6.4434   42.7845   72.9267 C   0  0  0  0  0  0  0  0  0  0  0  0
    5.8597   43.8700   73.5755 C   0  0  0  0  0  0  0  0  0  0  0  0
    5.2870   43.7149   74.8363 C   0  0  0  0  0  0  0  0  0  0  0  0
    5.3318   42.4834   75.4810 C   0  0  0  0  0  0  0  0  0  0  0  0
    5.9222   41.4005   74.8384 C   0  0  0  0  0  0  0  0  0  0  0  0
    6.4639   41.5461   73.5620 C   0  0  0  0  0  0  0  0  0  0  0  0
    8.4410   40.7499   69.1739 C   0  0  0  0  0  0  0  0  0  0  0  0
  1  3  1  0  0  0  0
  2  1  1  1  0  0  0
  2  6  1  0  0  0  0
  2 34  1  0  0  0  0
  3  4  2  0  0  0  0
  3 28  1  0  0  0  0
  5 13  1  0  0  0  0
  6  7  1  0  0  0  0
  7  8  1  0  0  0  0
  8  9  1  0  0  0  0
  8 10  1  0  0  0  0
 11 13  2  0  0  0  0
 11 24  1  0  0  0  0
 12 34  1  0  0  0  0
 13 15  1  0  0  0  0
 14 34  1  0  0  0  0
 15 16  1  0  0  0  0
 16 17  1  0  0  0  0
 16 18  2  0  0  0  0
 17 20  1  0  0  0  0
 17 24  2  0  0  0  0
 19 21  1  0  0  0  0
 19 20  1  0  0  0  0
 20 22  1  0  0  0  0
 22 23  1  0  0  0  0
 22 26  1  6  0  0  0
 23 25  1  0  0  0  0
 24 25  1  0  0  0  0
 26 27  1  0  0  0  0
 27 31  1  0  0  0  0
 28 29  2  0  0  0  0
 28 33  1  0  0  0  0
 29 30  1  0  0  0  0
 30 31  2  0  0  0  0
 31 32  1  0  0  0  0
 32 33  2  0  0  0  0
M  END
>  <CHROM.1>
127.48151518,174.75495882,-51.65388692,64.98879042,-88.50855524,-142.79695801
71.61688589,114.35327828,77.01227077,150.14467961,6.53055371,41.55671866
74.55693326,1.13588066,0.13754002,-1.34565987

>  <Name>
ligand

>  <RI>
0

>  <Rbt.Current_Directory>
/home/itssahil/PROJECTS/Mol_Feturizer/New_Systems/rnas/3SUH

>  <Rbt.Executable>
rbdock ($Id: //depot/dev/client3/rdock/2013.1/src/exe/rbdock.cxx#4 $)

>  <Rbt.Library>
libRbt.so (2013.1, Build901 2013/11/27)

>  <Rbt.Parameter_File>
/export/apps/rDock/src/rDock_2013.1_src/data/scripts/dock_solv.prm

>  <Rbt.Receptor>
prm/pocket_docking_2.prm

>  <SCORE>
-4.78111

>  <SCORE.INTER>
-3.79747

>  <SCORE.INTER.CONST>
1

>  <SCORE.INTER.POLAR>
0

>  <SCORE.INTER.ROT>
10

>  <SCORE.INTER.SOLV>
6.66673

>  <SCORE.INTER.VDW>
-15.0206

>  <SCORE.INTER.norm>
-0.11169

>  <SCORE.INTRA>
-1.5376

>  <SCORE.INTRA.DIHEDRAL>
-2.65317

>  <SCORE.INTRA.DIHEDRAL.0>
12.2703

>  <SCORE.INTRA.POLAR>
0

>  <SCORE.INTRA.POLAR.0>
0

>  <SCORE.INTRA.REPUL>
0

>  <SCORE.INTRA.REPUL.0>
0

>  <SCORE.INTRA.SOLV>
1.88406

>  <SCORE.INTRA.SOLV.lig_0>
-64.3214

>  <SCORE.INTRA.VDW>
-1.15304

>  <SCORE.INTRA.VDW.0>
-1.67301

>  <SCORE.INTRA.norm>
-0.0452236

>  <SCORE.RESTR>
0.553956

>  <SCORE.RESTR.CAVITY>
0.553956

>  <SCORE.RESTR.norm>
0.0162928

>  <SCORE.SYSTEM>
0

>  <SCORE.SYSTEM.CONST>
0

>  <SCORE.SYSTEM.DIHEDRAL>
0

>  <SCORE.SYSTEM.SOLV>
0

>  <SCORE.SYSTEM.norm>
0

>  <SCORE.heavy>
34

>  <SCORE.norm>
-0.140621

>  <RMSD>
10.534

$$$$
ligand
 OpenBabel11021811483D
libRbt.so/2013.1/901 2013/11/27
 34 36  0  0  0  0  0  0  0  0999 V2000
    8.7899   41.6072   70.3181 N   0  0  0  0  0  0  0  0  0  0  0  0
    9.5184   41.8121   69.0445 C   0  0  1  0  0  0  0  0  0  0  0  0
    7.6788   42.2733   70.6583 C   0  0  0  0  0  0  0  0  0  0  0  0
    7.1391   43.1307   69.9534 O   0  0  0  0  0  0  0  0  0  0  0  0
    2.5584   36.8466   80.9294 N   0  0  0  0  0  0  0  0  0  0  0  0
   10.5356   40.6771   68.8388 C   0  0  0  0  0  0  0  0  0  0  0  0
   11.6684   40.7395   69.8723 C   0  0  0  0  0  0  0  0  0  0  0  0
   11.1700   40.3379   71.2689 C   0  0  0  0  0  0  0  0  0  0  0  0
   11.0074   41.2577   72.1047 O   0  0  0  0  0  0  0  0  0  0  0  0
   10.9599   39.1195   71.4693 O   0  0  0  0  0  0  0  0  0  0  0  0
    4.5327   37.6365   80.0148 N   0  0  0  0  0  0  0  0  0  0  0  0
    7.5618   41.1239   67.8421 O   0  0  0  0  0  0  0  0  0  0  0  0
    3.2909   37.1452   79.8596 C   0  0  0  0  0  0  0  0  0  0  0  0
    8.8589   42.6958   66.9280 O   0  0  0  0  0  0  0  0  0  0  0  0
    2.7564   36.9432   78.5808 N   0  0  0  0  0  0  0  0  0  0  0  0
    3.5281   37.2631   77.4719 C   0  0  0  0  0  0  0  0  0  0  0  0
    4.7943   37.7986   77.6675 C   0  0  0  0  0  0  0  0  0  0  0  0
    3.0774   37.1044   76.3402 O   0  0  0  0  0  0  0  0  0  0  0  0
    5.5584   37.3004   75.5064 C   0  0  0  0  0  0  0  0  0  0  0  0
    5.6286   38.0696   76.5886 N   0  0  0  0  0  0  0  0  0  0  0  0
    6.0513   36.1746   75.5086 O   0  0  0  0  0  0  0  0  0  0  0  0
    6.7007   39.0605   76.7329 C   0  0  2  0  0  0  0  0  0  0  0  0
    7.4870   38.7514   78.0094 C   0  0  0  0  0  0  0  0  0  0  0  0
    5.2922   37.9510   78.9545 C   0  0  0  0  0  0  0  0  0  0  0  0
    6.5852   38.4493   79.1482 N   0  0  0  0  0  0  0  0  0  0  0  0
    6.1176   40.4762   76.8004 C   0  0  0  0  0  0  0  0  0  0  0  0
    5.3296   40.7443   75.5910 N   0  0  0  0  0  0  0  0  0  0  0  0
    7.0680   41.8548   72.0079 C   0  0  0  0  0  0  0  0  0  0  0  0
    6.6155   42.8161   72.9086 C   0  0  0  0  0  0  0  0  0  0  0  0
    6.0123   42.4345   74.1053 C   0  0  0  0  0  0  0  0  0  0  0  0
    5.8957   41.0883   74.4347 C   0  0  0  0  0  0  0  0  0  0  0  0
    6.3551   40.1272   73.5405 C   0  0  0  0  0  0  0  0  0  0  0  0
    6.9265   40.5073   72.3270 C   0  0  0  0  0  0  0  0  0  0  0  0
    8.5618   41.8819   67.8363 C   0  0  0  0  0  0  0  0  0  0  0  0
  1  3  1  0  0  0  0
  2  1  1  1  0  0  0
  2  6  1  0  0  0  0
  2 34  1  0  0  0  0
  3  4  2  0  0  0  0
  3 28  1  0  0  0  0
  5 13  1  0  0  0  0
  6  7  1  0  0  0  0
  7  8  1  0  0  0  0
  8  9  1  0  0  0  0
  8 10  1  0  0  0  0
 11 13  2  0  0  0  0
 11 24  1  0  0  0  0
 12 34  1  0  0  0  0
 13 15  1  0  0  0  0
 14 34  1  0  0  0  0
 15 16  1  0  0  0  0
 16 17  1  0  0  0  0
 16 18  2  0  0  0  0
 17 20  1  0  0  0  0
 17 24  2  0  0  0  0
 19 21  1  0  0  0  0
 19 20  1  0  0  0  0
 20 22  1  0  0  0  0
 22 23  1  0  0  0  0
 22 26  1  1  0  0  0
 23 25  1  0  0  0  0
 24 25  1  0  0  0  0
 26 27  1  0  0  0  0
 27 31  1  0  0  0  0
 28 29  2  0  0  0  0
 28 33  1  0  0  0  0
 29 30  1  0  0  0  0
 30 31  2  0  0  0  0
 31 32  1  0  0  0  0
 32 33  2  0  0  0  0
M  END
>  <CHROM.1>
-166.96320527,-67.50072103,-37.38177753,71.38972026,-105.23084755,-75.65819116
-57.97267851,-79.78695051,-95.04590410,136.21178328,6.86010655,39.77964523
74.01907826,1.09970886,0.24743799,-1.03217474

>  <Name>
ligand

>  <RI>
0

>  <Rbt.Current_Directory>
/home/itssahil/PROJECTS/Mol_Feturizer/New_Systems/rnas/3SUH

>  <Rbt.Executable>
rbdock ($Id: //depot/dev/client3/rdock/2013.1/src/exe/rbdock.cxx#4 $)

>  <Rbt.Library>
libRbt.so (2013.1, Build901 2013/11/27)

>  <Rbt.Parameter_File>
/export/apps/rDock/src/rDock_2013.1_src/data/scripts/dock_solv.prm

>  <Rbt.Receptor>
prm/pocket_docking_8.prm

>  <SCORE>
-9.027

>  <SCORE.INTER>
-3.75014

>  <SCORE.INTER.CONST>
1

>  <SCORE.INTER.POLAR>
0

>  <SCORE.INTER.ROT>
10

>  <SCORE.INTER.SOLV>
6.62265

>  <SCORE.INTER.VDW>
-14.9743

>  <SCORE.INTER.norm>
-0.110298

>  <SCORE.INTRA>
-5.27687

>  <SCORE.INTRA.DIHEDRAL>
-4.95536

>  <SCORE.INTRA.DIHEDRAL.0>
12.2703

>  <SCORE.INTRA.POLAR>
0

>  <SCORE.INTRA.POLAR.0>
0

>  <SCORE.INTRA.REPUL>
0

>  <SCORE.INTRA.REPUL.0>
0

>  <SCORE.INTRA.SOLV>
0.159547

>  <SCORE.INTRA.SOLV.lig_0>
-64.3214

>  <SCORE.INTRA.VDW>
-2.87896

>  <SCORE.INTRA.VDW.0>
-1.67301

>  <SCORE.INTRA.norm>
-0.155202

>  <SCORE.RESTR>
0

>  <SCORE.RESTR.CAVITY>
0

>  <SCORE.RESTR.norm>
0

>  <SCORE.SYSTEM>
0

>  <SCORE.SYSTEM.CONST>
0

>  <SCORE.SYSTEM.DIHEDRAL>
0

>  <SCORE.SYSTEM.SOLV>
0

>  <SCORE.SYSTEM.norm>
0

>  <SCORE.heavy>
34

>  <SCORE.norm>
-0.2655

>  <RMSD>
10.547

$$$$
ligand
 OpenBabel11021811483D
libRbt.so/2013.1/901 2013/11/27
 34 36  0  0  0  0  0  0  0  0999 V2000
   10.5562   42.4330   70.3765 N   0  0  0  0  0  0  0  0  0  0  0  0
   11.7460   42.0780   69.5683 C   0  0  1  0  0  0  0  0  0  0  0  0
    9.6732   41.5381   70.8385 C   0  0  0  0  0  0  0  0  0  0  0  0
    9.7492   40.3219   70.6430 O   0  0  0  0  0  0  0  0  0  0  0  0
    8.4637   41.7816   80.8788 N   0  0  0  0  0  0  0  0  0  0  0  0
   12.3945   43.3552   69.0085 C   0  0  0  0  0  0  0  0  0  0  0  0
   11.4605   44.0811   68.0307 C   0  0  0  0  0  0  0  0  0  0  0  0
   11.2297   43.2488   66.7602 C   0  0  0  0  0  0  0  0  0  0  0  0
   12.1395   43.2564   65.8981 O   0  0  0  0  0  0  0  0  0  0  0  0
   10.1490   42.6208   66.6802 O   0  0  0  0  0  0  0  0  0  0  0  0
    7.6524   41.4837   78.7314 N   0  0  0  0  0  0  0  0  0  0  0  0
   13.4369   40.3925   69.7873 O   0  0  0  0  0  0  0  0  0  0  0  0
    7.4824   41.9214   79.9911 C   0  0  0  0  0  0  0  0  0  0  0  0
   12.8943   41.5791   71.6001 O   0  0  0  0  0  0  0  0  0  0  0  0
    6.2808   42.5253   80.3825 N   0  0  0  0  0  0  0  0  0  0  0  0
    5.2658   42.6703   79.4464 C   0  0  0  0  0  0  0  0  0  0  0  0
    5.4857   42.2365   78.1456 C   0  0  0  0  0  0  0  0  0  0  0  0
    4.2066   43.2060   79.7630 O   0  0  0  0  0  0  0  0  0  0  0  0
    3.2115   42.1460   77.5778 C   0  0  0  0  0  0  0  0  0  0  0  0
    4.4750   42.2985   77.1927 N   0  0  0  0  0  0  0  0  0  0  0  0
    2.3930   43.0456   77.4016 O   0  0  0  0  0  0  0  0  0  0  0  0
    4.8235   42.3292   75.7680 C   0  0  2  0  0  0  0  0  0  0  0  0
    5.8209   41.2038   75.4817 C   0  0  0  0  0  0  0  0  0  0  0  0
    6.6823   41.6157   77.8140 C   0  0  0  0  0  0  0  0  0  0  0  0
    6.8848   41.1394   76.5140 N   0  0  0  0  0  0  0  0  0  0  0  0
    5.4332   43.6845   75.3937 C   0  0  0  0  0  0  0  0  0  0  0  0
    5.4962   43.8114   73.9325 N   0  0  0  0  0  0  0  0  0  0  0  0
    8.5451   42.1354   71.6990 C   0  0  0  0  0  0  0  0  0  0  0  0
    8.7639   43.2854   72.4536 C   0  0  0  0  0  0  0  0  0  0  0  0
    7.7264   43.8565   73.1880 C   0  0  0  0  0  0  0  0  0  0  0  0
    6.4710   43.2583   73.2116 C   0  0  0  0  0  0  0  0  0  0  0  0
    6.2532   42.1049   72.4657 C   0  0  0  0  0  0  0  0  0  0  0  0
    7.2809   41.5528   71.7024 C   0  0  0  0  0  0  0  0  0  0  0  0
   12.7830   41.2806   70.3860 C   0  0  0  0  0  0  0  0  0  0  0  0
  1  3  1  0  0  0  0
  2  1  1  1  0  0  0
  2  6  1  0  0  0  0
  2 34  1  0  0  0  0
  3  4  2  0  0  0  0
  3 28  1  0  0  0  0
  5 13  1  0  0  0  0
  6  7  1  0  0  0  0
  7  8  1  0  0  0  0
  8  9  1  0  0  0  0
  8 10  1  0  0  0  0
 11 13  2  0  0  0  0
 11 24  1  0  0  0  0
 12 34  1  0  0  0  0
 13 15  1  0  0  0  0
 14 34  1  0  0  0  0
 15 16  1  0  0  0  0
 16 17  1  0  0  0  0
 16 18  2  0  0  0  0
 17 20  1  0  0  0  0
 17 24  2  0  0  0  0
 19 21  1  0  0  0  0
 19 20  1  0  0  0  0
 20 22  1  0  0  0  0
 22 23  1  0  0  0  0
 22 26  1  1  0  0  0
 23 25  1  0  0  0  0
 24 25  1  0  0  0  0
 26 27  1  0  0  0  0
 27 31  1  0  0  0  0
 28 29  2  0  0  0  0
 28 33  1  0  0  0  0
 29 30  1  0  0  0  0
 30 31  2  0  0  0  0
 31 32  1  0  0  0  0
 32 33  2  0  0  0  0
M  END
>  <CHROM.1>
170.20939949,-64.33080011,145.20732694,-66.50357446,-78.45954904,119.26280284
-167.39076734,-81.06654096,-76.71143350,-29.71055342,8.07861025,42.32854467
73.73161678,-0.98614417,-0.24980142,1.73383052

>  <Name>
ligand

>  <RI>
0

>  <Rbt.Current_Directory>
/home/itssahil/PROJECTS/Mol_Feturizer/New_Systems/rnas/3SUH

>  <Rbt.Executable>
rbdock ($Id: //depot/dev/client3/rdock/2013.1/src/exe/rbdock.cxx#4 $)

>  <Rbt.Library>
libRbt.so (2013.1, Build901 2013/11/27)

>  <Rbt.Parameter_File>
/export/apps/rDock/src/rDock_2013.1_src/data/scripts/dock_solv.prm

>  <Rbt.Receptor>
prm/pocket_docking_4.prm

>  <SCORE>
-9.04205

>  <SCORE.INTER>
-4.39221

>  <SCORE.INTER.CONST>
1

>  <SCORE.INTER.POLAR>
0

>  <SCORE.INTER.ROT>
10

>  <SCORE.INTER.SOLV>
7.5771

>  <SCORE.INTER.VDW>
-15.7205

>  <SCORE.INTER.norm>
-0.129183

>  <SCORE.INTRA>
-4.64983

>  <SCORE.INTRA.DIHEDRAL>
-4.47448

>  <SCORE.INTRA.DIHEDRAL.0>
12.2703

>  <SCORE.INTRA.POLAR>
0

>  <SCORE.INTRA.POLAR.0>
0

>  <SCORE.INTRA.REPUL>
0

>  <SCORE.INTRA.REPUL.0>
0

>  <SCORE.INTRA.SOLV>
-0.73235

>  <SCORE.INTRA.SOLV.lig_0>
-64.3214

>  <SCORE.INTRA.VDW>
-2.04642

>  <SCORE.INTRA.VDW.0>
-1.67301

>  <SCORE.INTRA.norm>
-0.13676

>  <SCORE.RESTR>
0

>  <SCORE.RESTR.CAVITY>
0

>  <SCORE.RESTR.norm>
0

>  <SCORE.SYSTEM>
0

>  <SCORE.SYSTEM.CONST>
0

>  <SCORE.SYSTEM.DIHEDRAL>
0

>  <SCORE.SYSTEM.SOLV>
0

>  <SCORE.SYSTEM.norm>
0

>  <SCORE.heavy>
34

>  <SCORE.norm>
-0.265943

>  <RMSD>
10.555

$$$$
ligand
 OpenBabel11021811483D
libRbt.so/2013.1/901 2013/11/27
 34 36  0  0  0  0  0  0  0  0999 V2000
    8.3889   41.5833   69.7711 N   0  0  0  0  0  0  0  0  0  0  0  0
    8.9785   42.7833   69.1328 C   0  0  1  0  0  0  0  0  0  0  0  0
    9.1078   40.5428   70.2121 C   0  0  0  0  0  0  0  0  0  0  0  0
   10.3372   40.4650   70.1356 O   0  0  0  0  0  0  0  0  0  0  0  0
    3.4351   41.5390   77.9818 N   0  0  0  0  0  0  0  0  0  0  0  0
    9.1099   42.5548   67.6176 C   0  0  0  0  0  0  0  0  0  0  0  0
   10.5123   42.0581   67.2408 C   0  0  0  0  0  0  0  0  0  0  0  0
   11.5617   43.1656   67.4204 C   0  0  0  0  0  0  0  0  0  0  0  0
   12.0216   43.3364   68.5739 O   0  0  0  0  0  0  0  0  0  0  0  0
   11.8830   43.8158   66.3993 O   0  0  0  0  0  0  0  0  0  0  0  0
    4.9979   40.3606   76.7461 N   0  0  0  0  0  0  0  0  0  0  0  0
    8.7262   45.1584   69.3394 O   0  0  0  0  0  0  0  0  0  0  0  0
    3.9820   40.3793   77.6264 C   0  0  0  0  0  0  0  0  0  0  0  0
    6.9249   43.8778   69.6624 O   0  0  0  0  0  0  0  0  0  0  0  0
    3.4900   39.1888   78.1762 N   0  0  0  0  0  0  0  0  0  0  0  0
    4.0653   37.9844   77.7943 C   0  0  0  0  0  0  0  0  0  0  0  0
    5.0914   37.9977   76.8587 C   0  0  0  0  0  0  0  0  0  0  0  0
    3.6443   36.9262   78.2549 O   0  0  0  0  0  0  0  0  0  0  0  0
    5.8843   35.8576   77.4007 C   0  0  0  0  0  0  0  0  0  0  0  0
    5.7430   36.8235   76.4980 N   0  0  0  0  0  0  0  0  0  0  0  0
    6.7392   35.9453   78.2792 O   0  0  0  0  0  0  0  0  0  0  0  0
    6.4338   36.7459   75.2062 C   0  0  2  0  0  0  0  0  0  0  0  0
    7.3317   37.9764   75.0543 C   0  0  0  0  0  0  0  0  0  0  0  0
    5.5655   39.2059   76.3659 C   0  0  0  0  0  0  0  0  0  0  0  0
    6.6292   39.2197   75.4568 N   0  0  0  0  0  0  0  0  0  0  0  0
    5.4202   36.6856   74.0583 C   0  0  0  0  0  0  0  0  0  0  0  0
    6.1237   36.4633   72.7890 N   0  0  0  0  0  0  0  0  0  0  0  0
    8.2820   39.4328   70.8873 C   0  0  0  0  0  0  0  0  0  0  0  0
    8.7683   38.1293   70.9528 C   0  0  0  0  0  0  0  0  0  0  0  0
    8.0451   37.1379   71.6129 C   0  0  0  0  0  0  0  0  0  0  0  0
    6.8069   37.4290   72.1755 C   0  0  0  0  0  0  0  0  0  0  0  0
    6.3157   38.7282   72.1032 C   0  0  0  0  0  0  0  0  0  0  0  0
    7.0549   39.7288   71.4740 C   0  0  0  0  0  0  0  0  0  0  0  0
    8.1401   44.0505   69.3995 C   0  0  0  0  0  0  0  0  0  0  0  0
  1  3  1  0  0  0  0
  2  1  1  1  0  0  0
  2  6  1  0  0  0  0
  2 34  1  0  0  0  0
  3  4  2  0  0  0  0
  3 28  1  0  0  0  0
  5 13  1  0  0  0  0
  6  7  1  0  0  0  0
  7  8  1  0  0  0  0
  8  9  1  0  0  0  0
  8 10  1  0  0  0  0
 11 13  2  0  0  0  0
 11 24  1  0  0  0  0
 12 34  1  0  0  0  0
 13 15  1  0  0  0  0
 14 34  1  0  0  0  0
 15 16  1  0  0  0  0
 16 17  1  0  0  0  0
 16 18  2  0  0  0  0
 17 20  1  0  0  0  0
 17 24  2  0  0  0  0
 19 21  1  0  0  0  0
 19 20  1  0  0  0  0
 20 22  1  0  0  0  0
 22 23  1  0  0  0  0
 22 26  1  6  0  0  0
 23 25  1  0  0  0  0
 24 25  1  0  0  0  0
 26 27  1  0  0  0  0
 27 31  1  0  0  0  0
 28 29  2  0  0  0  0
 28 33  1  0  0  0  0
 29 30  1  0  0  0  0
 30 31  2  0  0  0  0
 31 32  1  0  0  0  0
 32 33  2  0  0  0  0
M  END
>  <CHROM.1>
88.13348527,-95.42589960,155.55917317,-69.94682276,83.06983224,-77.19411776
-173.95098268,-75.26778228,137.81772676,156.53699576,7.26647925,39.86446806
72.87526884,0.71516402,0.94090301,-0.29884684

>  <Name>
ligand

>  <RI>
0

>  <Rbt.Current_Directory>
/home/itssahil/PROJECTS/Mol_Feturizer/New_Systems/rnas/3SUH

>  <Rbt.Executable>
rbdock ($Id: //depot/dev/client3/rdock/2013.1/src/exe/rbdock.cxx#4 $)

>  <Rbt.Library>
libRbt.so (2013.1, Build901 2013/11/27)

>  <Rbt.Parameter_File>
/export/apps/rDock/src/rDock_2013.1_src/data/scripts/dock_solv.prm

>  <Rbt.Receptor>
prm/pocket_docking_6.prm

>  <SCORE>
-13.4898

>  <SCORE.INTER>
-10.8893

>  <SCORE.INTER.CONST>
1

>  <SCORE.INTER.POLAR>
0

>  <SCORE.INTER.ROT>
10

>  <SCORE.INTER.SOLV>
5.36926

>  <SCORE.INTER.VDW>
-19.316

>  <SCORE.INTER.norm>
-0.320274

>  <SCORE.INTRA>
-2.60047

>  <SCORE.INTRA.DIHEDRAL>
-1.1673

>  <SCORE.INTRA.DIHEDRAL.0>
12.2703

>  <SCORE.INTRA.POLAR>
0

>  <SCORE.INTRA.POLAR.0>
0

>  <SCORE.INTRA.REPUL>
0

>  <SCORE.INTRA.REPUL.0>
0

>  <SCORE.INTRA.SOLV>
-0.376582

>  <SCORE.INTRA.SOLV.lig_0>
-64.3214

>  <SCORE.INTRA.VDW>
-1.82853

>  <SCORE.INTRA.VDW.0>
-1.67301

>  <SCORE.INTRA.norm>
-0.0764844

>  <SCORE.RESTR>
0

>  <SCORE.RESTR.CAVITY>
0

>  <SCORE.RESTR.norm>
0

>  <SCORE.SYSTEM>
0

>  <SCORE.SYSTEM.CONST>
0

>  <SCORE.SYSTEM.DIHEDRAL>
0

>  <SCORE.SYSTEM.SOLV>
0

>  <SCORE.SYSTEM.norm>
0

>  <SCORE.heavy>
34

>  <SCORE.norm>
-0.396758

>  <RMSD>
10.557

$$$$
ligand
 OpenBabel11021811483D
libRbt.so/2013.1/901 2013/11/27
 34 36  0  0  0  0  0  0  0  0999 V2000
    9.3262   41.4423   70.2472 N   0  0  0  0  0  0  0  0  0  0  0  0
   10.2647   40.7672   69.3208 C   0  0  1  0  0  0  0  0  0  0  0  0
    8.2429   40.8548   70.7720 C   0  0  0  0  0  0  0  0  0  0  0  0
    7.9042   39.6903   70.5431 O   0  0  0  0  0  0  0  0  0  0  0  0
    1.7921   47.9889   79.3051 N   0  0  0  0  0  0  0  0  0  0  0  0
    9.9308   41.1528   67.8699 C   0  0  0  0  0  0  0  0  0  0  0  0
    9.9900   42.6721   67.6612 C   0  0  0  0  0  0  0  0  0  0  0  0
   11.3488   43.1024   67.0880 C   0  0  0  0  0  0  0  0  0  0  0  0
   11.5337   42.9265   65.8608 O   0  0  0  0  0  0  0  0  0  0  0  0
   12.1724   43.6004   67.8895 O   0  0  0  0  0  0  0  0  0  0  0  0
    2.1922   47.7242   77.0405 N   0  0  0  0  0  0  0  0  0  0  0  0
   11.9681   42.2357   70.1515 O   0  0  0  0  0  0  0  0  0  0  0  0
    2.6321   47.7124   78.3109 C   0  0  0  0  0  0  0  0  0  0  0  0
   12.5956   40.2554   69.3309 O   0  0  0  0  0  0  0  0  0  0  0  0
    3.9685   47.4113   78.6022 N   0  0  0  0  0  0  0  0  0  0  0  0
    4.8347   47.1196   77.5571 C   0  0  0  0  0  0  0  0  0  0  0  0
    4.3406   47.1091   76.2593 C   0  0  0  0  0  0  0  0  0  0  0  0
    6.0089   46.8425   77.7881 O   0  0  0  0  0  0  0  0  0  0  0  0
    6.4450   47.3098   75.2425 C   0  0  0  0  0  0  0  0  0  0  0  0
    5.1850   46.8902   75.1765 N   0  0  0  0  0  0  0  0  0  0  0  0
    6.7285   48.4759   74.9775 O   0  0  0  0  0  0  0  0  0  0  0  0
    4.6301   46.3871   73.9151 C   0  0  2  0  0  0  0  0  0  0  0  0
    3.4147   47.2384   73.5388 C   0  0  0  0  0  0  0  0  0  0  0  0
    3.0152   47.4448   76.0185 C   0  0  0  0  0  0  0  0  0  0  0  0
    2.5306   47.4768   74.7062 N   0  0  0  0  0  0  0  0  0  0  0  0
    4.2225   44.9166   74.0568 C   0  0  0  0  0  0  0  0  0  0  0  0
    5.3916   44.1142   74.4373 N   0  0  0  0  0  0  0  0  0  0  0  0
    7.4455   41.7366   71.7500 C   0  0  0  0  0  0  0  0  0  0  0  0
    6.9174   41.1967   72.9202 C   0  0  0  0  0  0  0  0  0  0  0  0
    6.2438   42.0079   73.8313 C   0  0  0  0  0  0  0  0  0  0  0  0
    6.0519   43.3585   73.5605 C   0  0  0  0  0  0  0  0  0  0  0  0
    6.5709   43.8975   72.3881 C   0  0  0  0  0  0  0  0  0  0  0  0
    7.2758   43.0941   71.4930 C   0  0  0  0  0  0  0  0  0  0  0  0
   11.7347   41.1185   69.6298 C   0  0  0  0  0  0  0  0  0  0  0  0
  1  3  1  0  0  0  0
  2  1  1  1  0  0  0
  2  6  1  0  0  0  0
  2 34  1  0  0  0  0
  3  4  2  0  0  0  0
  3 28  1  0  0  0  0
  5 13  1  0  0  0  0
  6  7  1  0  0  0  0
  7  8  1  0  0  0  0
  8  9  1  0  0  0  0
  8 10  1  0  0  0  0
 11 13  2  0  0  0  0
 11 24  1  0  0  0  0
 12 34  1  0  0  0  0
 13 15  1  0  0  0  0
 14 34  1  0  0  0  0
 15 16  1  0  0  0  0
 16 17  1  0  0  0  0
 16 18  2  0  0  0  0
 17 20  1  0  0  0  0
 17 24  2  0  0  0  0
 19 21  1  0  0  0  0
 19 20  1  0  0  0  0
 20 22  1  0  0  0  0
 22 23  1  0  0  0  0
 22 26  1  1  0  0  0
 23 25  1  0  0  0  0
 24 25  1  0  0  0  0
 26 27  1  0  0  0  0
 27 31  1  0  0  0  0
 28 29  2  0  0  0  0
 28 33  1  0  0  0  0
 29 30  1  0  0  0  0
 30 31  2  0  0  0  0
 31 32  1  0  0  0  0
 32 33  2  0  0  0  0
M  END
>  <CHROM.1>
98.49990943,57.81065681,-28.61308424,96.42055520,78.49695574,-83.25035962
-58.97708376,-102.46170676,-125.61383793,-139.36873335,7.00720002,44.33598886
72.84855581,0.56047951,-0.81539007,-3.03917601

>  <Name>
ligand

>  <RI>
0

>  <Rbt.Current_Directory>
/home/itssahil/PROJECTS/Mol_Feturizer/New_Systems/rnas/3SUH

>  <Rbt.Executable>
rbdock ($Id: //depot/dev/client3/rdock/2013.1/src/exe/rbdock.cxx#4 $)

>  <Rbt.Library>
libRbt.so (2013.1, Build901 2013/11/27)

>  <Rbt.Parameter_File>
/export/apps/rDock/src/rDock_2013.1_src/data/scripts/dock_solv.prm

>  <Rbt.Receptor>
prm/pocket_docking_7.prm

>  <SCORE>
-10.9608

>  <SCORE.INTER>
-8.54487

>  <SCORE.INTER.CONST>
1

>  <SCORE.INTER.POLAR>
0

>  <SCORE.INTER.ROT>
10

>  <SCORE.INTER.SOLV>
7.79823

>  <SCORE.INTER.VDW>
-18.5627

>  <SCORE.INTER.norm>
-0.25132

>  <SCORE.INTRA>
-2.41593

>  <SCORE.INTRA.DIHEDRAL>
-0.160757

>  <SCORE.INTRA.DIHEDRAL.0>
12.2703

>  <SCORE.INTRA.POLAR>
0

>  <SCORE.INTRA.POLAR.0>
0

>  <SCORE.INTRA.REPUL>
0

>  <SCORE.INTRA.REPUL.0>
0

>  <SCORE.INTRA.SOLV>
-0.5725

>  <SCORE.INTRA.SOLV.lig_0>
-64.3214

>  <SCORE.INTRA.VDW>
-2.04931

>  <SCORE.INTRA.VDW.0>
-1.67301

>  <SCORE.INTRA.norm>
-0.0710569

>  <SCORE.RESTR>
0

>  <SCORE.RESTR.CAVITY>
0

>  <SCORE.RESTR.norm>
0

>  <SCORE.SYSTEM>
0

>  <SCORE.SYSTEM.CONST>
0

>  <SCORE.SYSTEM.DIHEDRAL>
0

>  <SCORE.SYSTEM.SOLV>
0

>  <SCORE.SYSTEM.norm>
0

>  <SCORE.heavy>
34

>  <SCORE.norm>
-0.322377

>  <RMSD>
10.557

$$$$
ligand
 OpenBabel11021811483D
libRbt.so/2013.1/901 2013/11/27
 34 36  0  0  0  0  0  0  0  0999 V2000
    8.9982   42.8966   69.9661 N   0  0  0  0  0  0  0  0  0  0  0  0
    9.8392   42.9731   68.7488 C   0  0  1  0  0  0  0  0  0  0  0  0
    7.8585   43.5808   70.1305 C   0  0  0  0  0  0  0  0  0  0  0  0
    7.3825   44.3503   69.2912 O   0  0  0  0  0  0  0  0  0  0  0  0
    2.5277   38.4982   80.3141 N   0  0  0  0  0  0  0  0  0  0  0  0
   11.1397   42.1811   68.9645 C   0  0  0  0  0  0  0  0  0  0  0  0
   12.2015   43.0237   69.6842 C   0  0  0  0  0  0  0  0  0  0  0  0
   12.5780   44.2653   68.8614 C   0  0  0  0  0  0  0  0  0  0  0  0
   12.7946   44.0971   67.6384 O   0  0  0  0  0  0  0  0  0  0  0  0
   12.6384   45.3564   69.4734 O   0  0  0  0  0  0  0  0  0  0  0  0
    4.3922   39.6355   79.5468 N   0  0  0  0  0  0  0  0  0  0  0  0
    9.5868   42.7144   66.3787 O   0  0  0  0  0  0  0  0  0  0  0  0
    3.3078   38.8783   79.3055 C   0  0  0  0  0  0  0  0  0  0  0  0
    8.0629   41.7660   67.7080 O   0  0  0  0  0  0  0  0  0  0  0  0
    2.9876   38.4831   78.0005 N   0  0  0  0  0  0  0  0  0  0  0  0
    3.8061   38.8897   76.9554 C   0  0  0  0  0  0  0  0  0  0  0  0
    4.9001   39.6980   77.2354 C   0  0  0  0  0  0  0  0  0  0  0  0
    3.5402   38.5643   75.8011 O   0  0  0  0  0  0  0  0  0  0  0  0
    6.0097   39.2378   75.2206 C   0  0  0  0  0  0  0  0  0  0  0  0
    5.7858   40.0725   76.2311 N   0  0  0  0  0  0  0  0  0  0  0  0
    6.9648   38.4650   75.2502 O   0  0  0  0  0  0  0  0  0  0  0  0
    6.6032   41.2790   76.3989 C   0  0  2  0  0  0  0  0  0  0  0  0
    7.2741   41.2307   77.7740 C   0  0  0  0  0  0  0  0  0  0  0  0
    5.1940   40.0375   78.5491 C   0  0  0  0  0  0  0  0  0  0  0  0
    6.3220   40.8151   78.8334 N   0  0  0  0  0  0  0  0  0  0  0  0
    5.7355   42.5364   76.2775 C   0  0  0  0  0  0  0  0  0  0  0  0
    5.0747   42.5562   74.9667 N   0  0  0  0  0  0  0  0  0  0  0  0
    7.1286   43.3016   71.4568 C   0  0  0  0  0  0  0  0  0  0  0  0
    6.5586   44.3438   72.1840 C   0  0  0  0  0  0  0  0  0  0  0  0
    5.8504   44.0833   73.3554 C   0  0  0  0  0  0  0  0  0  0  0  0
    5.7430   42.7827   73.8363 C   0  0  0  0  0  0  0  0  0  0  0  0
    6.3193   41.7417   73.1162 C   0  0  0  0  0  0  0  0  0  0  0  0
    6.9976   41.9974   71.9253 C   0  0  0  0  0  0  0  0  0  0  0  0
    9.1025   42.4390   67.5031 C   0  0  0  0  0  0  0  0  0  0  0  0
  1  3  1  0  0  0  0
  2  1  1  1  0  0  0
  2  6  1  0  0  0  0
  2 34  1  0  0  0  0
  3  4  2  0  0  0  0
  3 28  1  0  0  0  0
  5 13  1  0  0  0  0
  6  7  1  0  0  0  0
  7  8  1  0  0  0  0
  8  9  1  0  0  0  0
  8 10  1  0  0  0  0
 11 13  2  0  0  0  0
 11 24  1  0  0  0  0
 12 34  1  0  0  0  0
 13 15  1  0  0  0  0
 14 34  1  0  0  0  0
 15 16  1  0  0  0  0
 16 17  1  0  0  0  0
 16 18  2  0  0  0  0
 17 20  1  0  0  0  0
 17 24  2  0  0  0  0
 19 21  1  0  0  0  0
 19 20  1  0  0  0  0
 20 22  1  0  0  0  0
 22 23  1  0  0  0  0
 22 26  1  1  0  0  0
 23 25  1  0  0  0  0
 24 25  1  0  0  0  0
 26 27  1  0  0  0  0
 27 31  1  0  0  0  0
 28 29  2  0  0  0  0
 28 33  1  0  0  0  0
 29 30  1  0  0  0  0
 30 31  2  0  0  0  0
 31 32  1  0  0  0  0
 32 33  2  0  0  0  0
M  END
>  <CHROM.1>
173.90862266,-84.17584846,164.84290810,-61.21477109,-45.91603520,-94.65765341
-58.58037268,-71.16362830,-91.90056891,138.10565168,7.16822578,41.66472253
73.34555841,0.97033653,-0.46379368,-1.47544472

>  <Name>
ligand

>  <RI>
0

>  <Rbt.Current_Directory>
/home/itssahil/PROJECTS/Mol_Feturizer/New_Systems/rnas/3SUH

>  <Rbt.Executable>
rbdock ($Id: //depot/dev/client3/rdock/2013.1/src/exe/rbdock.cxx#4 $)

>  <Rbt.Library>
libRbt.so (2013.1, Build901 2013/11/27)

>  <Rbt.Parameter_File>
/export/apps/rDock/src/rDock_2013.1_src/data/scripts/dock_solv.prm

>  <Rbt.Receptor>
prm/pocket_docking_4.prm

>  <SCORE>
-11.49

>  <SCORE.INTER>
-7.04246

>  <SCORE.INTER.CONST>
1

>  <SCORE.INTER.POLAR>
0

>  <SCORE.INTER.ROT>
10

>  <SCORE.INTER.SOLV>
8.42284

>  <SCORE.INTER.VDW>
-17.7693

>  <SCORE.INTER.norm>
-0.207131

>  <SCORE.INTRA>
-4.4475

>  <SCORE.INTRA.DIHEDRAL>
-3.94299

>  <SCORE.INTRA.DIHEDRAL.0>
12.2703

>  <SCORE.INTRA.POLAR>
0

>  <SCORE.INTRA.POLAR.0>
0

>  <SCORE.INTRA.REPUL>
0

>  <SCORE.INTRA.REPUL.0>
0

>  <SCORE.INTRA.SOLV>
-0.329373

>  <SCORE.INTRA.SOLV.lig_0>
-64.3214

>  <SCORE.INTRA.VDW>
-2.31132

>  <SCORE.INTRA.VDW.0>
-1.67301

>  <SCORE.INTRA.norm>
-0.130809

>  <SCORE.RESTR>
0

>  <SCORE.RESTR.CAVITY>
0

>  <SCORE.RESTR.norm>
0

>  <SCORE.SYSTEM>
0

>  <SCORE.SYSTEM.CONST>
0

>  <SCORE.SYSTEM.DIHEDRAL>
0

>  <SCORE.SYSTEM.SOLV>
0

>  <SCORE.SYSTEM.norm>
0

>  <SCORE.heavy>
34

>  <SCORE.norm>
-0.33794

>  <RMSD>
10.563

$$$$
ligand
 OpenBabel11021811483D
libRbt.so/2013.1/901 2013/11/27
 34 36  0  0  0  0  0  0  0  0999 V2000
    9.8006   42.8043   69.0973 N   0  0  0  0  0  0  0  0  0  0  0  0
   10.6015   43.5751   68.1179 C   0  0  1  0  0  0  0  0  0  0  0  0
    8.5123   43.0515   69.3680 C   0  0  0  0  0  0  0  0  0  0  0  0
    7.8496   43.9465   68.8360 O   0  0  0  0  0  0  0  0  0  0  0  0
    5.7991   40.5161   80.4066 N   0  0  0  0  0  0  0  0  0  0  0  0
   11.9741   43.9161   68.7218 C   0  0  0  0  0  0  0  0  0  0  0  0
   11.8379   44.7887   69.9770 C   0  0  0  0  0  0  0  0  0  0  0  0
   13.2137   45.2270   70.5017 C   0  0  0  0  0  0  0  0  0  0  0  0
   13.7495   46.2149   69.9469 O   0  0  0  0  0  0  0  0  0  0  0  0
   13.6985   44.5656   71.4485 O   0  0  0  0  0  0  0  0  0  0  0  0
    6.5415   39.0955   78.7365 N   0  0  0  0  0  0  0  0  0  0  0  0
   10.5287   41.5797   66.7909 O   0  0  0  0  0  0  0  0  0  0  0  0
    5.6218   39.9516   79.2149 C   0  0  0  0  0  0  0  0  0  0  0  0
   11.1964   43.4715   65.8090 O   0  0  0  0  0  0  0  0  0  0  0  0
    4.4750   40.2581   78.4716 N   0  0  0  0  0  0  0  0  0  0  0  0
    4.3031   39.6668   77.2272 C   0  0  0  0  0  0  0  0  0  0  0  0
    5.2874   38.8121   76.7487 C   0  0  0  0  0  0  0  0  0  0  0  0
    3.3104   39.9277   76.5522 O   0  0  0  0  0  0  0  0  0  0  0  0
    3.9046   37.7864   75.1555 C   0  0  0  0  0  0  0  0  0  0  0  0
    5.1261   38.1444   75.5397 N   0  0  0  0  0  0  0  0  0  0  0  0
    3.3420   36.8278   75.6796 O   0  0  0  0  0  0  0  0  0  0  0  0
    6.3077   37.6715   74.8101 C   0  0  2  0  0  0  0  0  0  0  0  0
    7.2092   36.9033   75.7800 C   0  0  0  0  0  0  0  0  0  0  0  0
    6.3915   38.5151   77.5363 C   0  0  0  0  0  0  0  0  0  0  0  0
    7.3603   37.6192   77.0708 N   0  0  0  0  0  0  0  0  0  0  0  0
    7.0709   38.8527   74.2013 C   0  0  0  0  0  0  0  0  0  0  0  0
    6.2541   39.4835   73.1572 N   0  0  0  0  0  0  0  0  0  0  0  0
    7.8737   42.0866   70.3833 C   0  0  0  0  0  0  0  0  0  0  0  0
    7.9927   40.7084   70.2215 C   0  0  0  0  0  0  0  0  0  0  0  0
    7.4620   39.8372   71.1707 C   0  0  0  0  0  0  0  0  0  0  0  0
    6.7674   40.3337   72.2687 C   0  0  0  0  0  0  0  0  0  0  0  0
    6.6399   41.7095   72.4272 C   0  0  0  0  0  0  0  0  0  0  0  0
    7.2013   42.5828   71.4966 C   0  0  0  0  0  0  0  0  0  0  0  0
   10.7896   42.8071   66.7932 C   0  0  0  0  0  0  0  0  0  0  0  0
  1  3  1  0  0  0  0
  2  1  1  1  0  0  0
  2  6  1  0  0  0  0
  2 34  1  0  0  0  0
  3  4  2  0  0  0  0
  3 28  1  0  0  0  0
  5 13  1  0  0  0  0
  6  7  1  0  0  0  0
  7  8  1  0  0  0  0
  8  9  1  0  0  0  0
  8 10  1  0  0  0  0
 11 13  2  0  0  0  0
 11 24  1  0  0  0  0
 12 34  1  0  0  0  0
 13 15  1  0  0  0  0
 14 34  1  0  0  0  0
 15 16  1  0  0  0  0
 16 17  1  0  0  0  0
 16 18  2  0  0  0  0
 17 20  1  0  0  0  0
 17 24  2  0  0  0  0
 19 21  1  0  0  0  0
 19 20  1  0  0  0  0
 20 22  1  0  0  0  0
 22 23  1  0  0  0  0
 22 26  1  1  0  0  0
 23 25  1  0  0  0  0
 24 25  1  0  0  0  0
 26 27  1  0  0  0  0
 27 31  1  0  0  0  0
 28 29  2  0  0  0  0
 28 33  1  0  0  0  0
 29 30  1  0  0  0  0
 30 31  2  0  0  0  0
 31 32  1  0  0  0  0
 32 33  2  0  0  0  0
M  END
>  <CHROM.1>
134.70539571,-61.51330280,-15.03548794,-174.99330500,81.88469870,-75.35159384
-66.56013667,-164.92727908,79.67872440,-50.30737926,7.87494567,41.00961576
72.88278688,0.81251173,-0.71042823,-1.58229900

>  <Name>
ligand

>  <RI>
0

>  <Rbt.Current_Directory>
/home/itssahil/PROJECTS/Mol_Feturizer/New_Systems/rnas/3SUH

>  <Rbt.Executable>
rbdock ($Id: //depot/dev/client3/rdock/2013.1/src/exe/rbdock.cxx#4 $)

>  <Rbt.Library>
libRbt.so (2013.1, Build901 2013/11/27)

>  <Rbt.Parameter_File>
/export/apps/rDock/src/rDock_2013.1_src/data/scripts/dock_solv.prm

>  <Rbt.Receptor>
prm/pocket_docking_5.prm

>  <SCORE>
-15.1391

>  <SCORE.INTER>
-10.6834

>  <SCORE.INTER.CONST>
1

>  <SCORE.INTER.POLAR>
0

>  <SCORE.INTER.ROT>
10

>  <SCORE.INTER.SOLV>
9.11726

>  <SCORE.INTER.VDW>
-20.428

>  <SCORE.INTER.norm>
-0.314218

>  <SCORE.INTRA>
-4.45571

>  <SCORE.INTRA.DIHEDRAL>
-4.61221

>  <SCORE.INTRA.DIHEDRAL.0>
12.2703

>  <SCORE.INTRA.POLAR>
0

>  <SCORE.INTRA.POLAR.0>
0

>  <SCORE.INTRA.REPUL>
0

>  <SCORE.INTRA.REPUL.0>
0

>  <SCORE.INTRA.SOLV>
-0.629048

>  <SCORE.INTRA.SOLV.lig_0>
-64.3214

>  <SCORE.INTRA.VDW>
-1.83508

>  <SCORE.INTRA.VDW.0>
-1.67301

>  <SCORE.INTRA.norm>
-0.13105

>  <SCORE.RESTR>
0

>  <SCORE.RESTR.CAVITY>
0

>  <SCORE.RESTR.norm>
0

>  <SCORE.SYSTEM>
0

>  <SCORE.SYSTEM.CONST>
0

>  <SCORE.SYSTEM.DIHEDRAL>
0

>  <SCORE.SYSTEM.SOLV>
0

>  <SCORE.SYSTEM.norm>
0

>  <SCORE.heavy>
34

>  <SCORE.norm>
-0.445268

>  <RMSD>
10.563

$$$$
ligand
 OpenBabel11021811483D
libRbt.so/2013.1/901 2013/11/27
 34 36  0  0  0  0  0  0  0  0999 V2000
    9.5753   42.6947   69.1070 N   0  0  0  0  0  0  0  0  0  0  0  0
   10.2189   43.5524   68.0847 C   0  0  1  0  0  0  0  0  0  0  0  0
    8.4666   41.9758   68.8880 C   0  0  0  0  0  0  0  0  0  0  0  0
    7.8571   41.9476   67.8152 O   0  0  0  0  0  0  0  0  0  0  0  0
    1.3289   40.1217   77.8044 N   0  0  0  0  0  0  0  0  0  0  0  0
   11.3786   44.3378   68.7200 C   0  0  0  0  0  0  0  0  0  0  0  0
   12.4853   43.4019   69.2246 C   0  0  0  0  0  0  0  0  0  0  0  0
   11.9821   42.5138   70.3727 C   0  0  0  0  0  0  0  0  0  0  0  0
   11.7807   43.0680   71.4788 O   0  0  0  0  0  0  0  0  0  0  0  0
   11.8073   41.2999   70.1183 O   0  0  0  0  0  0  0  0  0  0  0  0
    3.5710   39.5648   77.6591 N   0  0  0  0  0  0  0  0  0  0  0  0
   11.2667   43.3603   65.9369 O   0  0  0  0  0  0  0  0  0  0  0  0
    2.3116   39.4579   77.2010 C   0  0  0  0  0  0  0  0  0  0  0  0
   10.5892   41.4872   66.9475 O   0  0  0  0  0  0  0  0  0  0  0  0
    2.0198   38.6537   76.0921 N   0  0  0  0  0  0  0  0  0  0  0  0
    3.0540   37.9696   75.4675 C   0  0  0  0  0  0  0  0  0  0  0  0
    4.3480   38.1272   75.9462 C   0  0  0  0  0  0  0  0  0  0  0  0
    2.8246   37.2661   74.4869 O   0  0  0  0  0  0  0  0  0  0  0  0
    5.1788   36.1891   74.9186 C   0  0  0  0  0  0  0  0  0  0  0  0
    5.4042   37.4093   75.3962 N   0  0  0  0  0  0  0  0  0  0  0  0
    5.4617   35.9128   73.7550 O   0  0  0  0  0  0  0  0  0  0  0  0
    6.7736   37.9181   75.5304 C   0  0  2  0  0  0  0  0  0  0  0  0
    7.0215   38.2809   76.9968 C   0  0  0  0  0  0  0  0  0  0  0  0
    4.5824   38.9110   77.0678 C   0  0  0  0  0  0  0  0  0  0  0  0
    5.8807   39.0330   77.5752 N   0  0  0  0  0  0  0  0  0  0  0  0
    6.9790   39.1478   74.6392 C   0  0  0  0  0  0  0  0  0  0  0  0
    6.6959   38.7982   73.2418 N   0  0  0  0  0  0  0  0  0  0  0  0
    8.0110   41.1195   70.0834 C   0  0  0  0  0  0  0  0  0  0  0  0
    7.1309   41.6376   71.0305 C   0  0  0  0  0  0  0  0  0  0  0  0
    6.6759   40.8433   72.0811 C   0  0  0  0  0  0  0  0  0  0  0  0
    7.1311   39.5366   72.2214 C   0  0  0  0  0  0  0  0  0  0  0  0
    8.0169   39.0205   71.2815 C   0  0  0  0  0  0  0  0  0  0  0  0
    8.4450   39.8030   70.2101 C   0  0  0  0  0  0  0  0  0  0  0  0
   10.7382   42.7320   66.8859 C   0  0  0  0  0  0  0  0  0  0  0  0
  1  3  1  0  0  0  0
  2  1  1  1  0  0  0
  2  6  1  0  0  0  0
  2 34  1  0  0  0  0
  3  4  2  0  0  0  0
  3 28  1  0  0  0  0
  5 13  1  0  0  0  0
  6  7  1  0  0  0  0
  7  8  1  0  0  0  0
  8  9  1  0  0  0  0
  8 10  1  0  0  0  0
 11 13  2  0  0  0  0
 11 24  1  0  0  0  0
 12 34  1  0  0  0  0
 13 15  1  0  0  0  0
 14 34  1  0  0  0  0
 15 16  1  0  0  0  0
 16 17  1  0  0  0  0
 16 18  2  0  0  0  0
 17 20  1  0  0  0  0
 17 24  2  0  0  0  0
 19 21  1  0  0  0  0
 19 20  1  0  0  0  0
 20 22  1  0  0  0  0
 22 23  1  0  0  0  0
 22 26  1  6  0  0  0
 23 25  1  0  0  0  0
 24 25  1  0  0  0  0
 26 27  1  0  0  0  0
 27 31  1  0  0  0  0
 28 29  2  0  0  0  0
 28 33  1  0  0  0  0
 29 30  1  0  0  0  0
 30 31  2  0  0  0  0
 31 32  1  0  0  0  0
 32 33  2  0  0  0  0
M  END
>  <CHROM.1>
174.20036380,63.44770738,177.85122180,-64.96215585,-71.68206478,123.76565892
-57.98322824,-161.25532140,-63.66779671,90.03371394,7.32108825,40.21475291
72.42393252,0.83311915,-0.46851425,-1.45085484

>  <Name>
ligand

>  <RI>
0

>  <Rbt.Current_Directory>
/home/itssahil/PROJECTS/Mol_Feturizer/New_Systems/rnas/3SUH

>  <Rbt.Executable>
rbdock ($Id: //depot/dev/client3/rdock/2013.1/src/exe/rbdock.cxx#4 $)

>  <Rbt.Library>
libRbt.so (2013.1, Build901 2013/11/27)

>  <Rbt.Parameter_File>
/export/apps/rDock/src/rDock_2013.1_src/data/scripts/dock_solv.prm

>  <Rbt.Receptor>
prm/pocket_docking_7.prm

>  <SCORE>
-13.9415

>  <SCORE.INTER>
-9.58349

>  <SCORE.INTER.CONST>
1

>  <SCORE.INTER.POLAR>
0

>  <SCORE.INTER.ROT>
10

>  <SCORE.INTER.SOLV>
7.6342

>  <SCORE.INTER.VDW>
-19.2004

>  <SCORE.INTER.norm>
-0.281867

>  <SCORE.INTRA>
-4.35802

>  <SCORE.INTRA.DIHEDRAL>
-5.31762

>  <SCORE.INTRA.DIHEDRAL.0>
12.2703

>  <SCORE.INTRA.POLAR>
0

>  <SCORE.INTRA.POLAR.0>
0

>  <SCORE.INTRA.REPUL>
0

>  <SCORE.INTRA.REPUL.0>
0

>  <SCORE.INTRA.SOLV>
0.726572

>  <SCORE.INTRA.SOLV.lig_0>
-64.3214

>  <SCORE.INTRA.VDW>
-2.0625

>  <SCORE.INTRA.VDW.0>
-1.67301

>  <SCORE.INTRA.norm>
-0.128177

>  <SCORE.RESTR>
0

>  <SCORE.RESTR.CAVITY>
0

>  <SCORE.RESTR.norm>
0

>  <SCORE.SYSTEM>
0

>  <SCORE.SYSTEM.CONST>
0

>  <SCORE.SYSTEM.DIHEDRAL>
0

>  <SCORE.SYSTEM.SOLV>
0

>  <SCORE.SYSTEM.norm>
0

>  <SCORE.heavy>
34

>  <SCORE.norm>
-0.410044

>  <RMSD>
10.569

$$$$
ligand
 OpenBabel11021811483D
libRbt.so/2013.1/901 2013/11/27
 34 36  0  0  0  0  0  0  0  0999 V2000
    8.7423   42.2860   70.4628 N   0  0  0  0  0  0  0  0  0  0  0  0
    9.6618   42.2694   69.3013 C   0  0  1  0  0  0  0  0  0  0  0  0
    8.1715   43.3965   70.9474 C   0  0  0  0  0  0  0  0  0  0  0  0
    8.3472   44.5271   70.4847 O   0  0  0  0  0  0  0  0  0  0  0  0
    8.4557   38.5402   81.1608 N   0  0  0  0  0  0  0  0  0  0  0  0
   10.8122   41.2827   69.5628 C   0  0  0  0  0  0  0  0  0  0  0  0
   11.8110   41.8382   70.5871 C   0  0  0  0  0  0  0  0  0  0  0  0
   12.4151   43.1679   70.1105 C   0  0  0  0  0  0  0  0  0  0  0  0
   12.7795   43.9797   70.9932 O   0  0  0  0  0  0  0  0  0  0  0  0
   12.5016   43.3423   68.8732 O   0  0  0  0  0  0  0  0  0  0  0  0
    7.0865   38.7897   79.3111 N   0  0  0  0  0  0  0  0  0  0  0  0
    7.9854   41.0742   68.0730 O   0  0  0  0  0  0  0  0  0  0  0  0
    7.4322   39.1431   80.5613 C   0  0  0  0  0  0  0  0  0  0  0  0
    9.3536   42.4282   66.9401 O   0  0  0  0  0  0  0  0  0  0  0  0
    6.7260   40.1420   81.2433 N   0  0  0  0  0  0  0  0  0  0  0  0
    5.6630   40.7676   80.6059 C   0  0  0  0  0  0  0  0  0  0  0  0
    5.3524   40.4014   79.3029 C   0  0  0  0  0  0  0  0  0  0  0  0
    5.0348   41.6537   81.1797 O   0  0  0  0  0  0  0  0  0  0  0  0
    3.1809   41.2866   79.3585 C   0  0  0  0  0  0  0  0  0  0  0  0
    4.2548   40.9511   78.6500 N   0  0  0  0  0  0  0  0  0  0  0  0
    2.4304   40.4201   79.8015 O   0  0  0  0  0  0  0  0  0  0  0  0
    4.2175   40.9673   77.1835 C   0  0  2  0  0  0  0  0  0  0  0  0
    4.5560   39.5662   76.6679 C   0  0  0  0  0  0  0  0  0  0  0  0
    6.0622   39.3837   78.6801 C   0  0  0  0  0  0  0  0  0  0  0  0
    5.7190   38.9857   77.3833 N   0  0  0  0  0  0  0  0  0  0  0  0
    5.2174   41.9897   76.6325 C   0  0  0  0  0  0  0  0  0  0  0  0
    4.7172   42.5366   75.3652 N   0  0  0  0  0  0  0  0  0  0  0  0
    7.2116   43.1615   72.1278 C   0  0  0  0  0  0  0  0  0  0  0  0
    7.0851   41.8962   72.6961 C   0  0  0  0  0  0  0  0  0  0  0  0
    6.2581   41.6970   73.7997 C   0  0  0  0  0  0  0  0  0  0  0  0
    5.5141   42.7512   74.3190 C   0  0  0  0  0  0  0  0  0  0  0  0
    5.6325   44.0134   73.7471 C   0  0  0  0  0  0  0  0  0  0  0  0
    6.4868   44.2215   72.6652 C   0  0  0  0  0  0  0  0  0  0  0  0
    8.9352   41.8904   67.9943 C   0  0  0  0  0  0  0  0  0  0  0  0
  1  3  1  0  0  0  0
  2  1  1  1  0  0  0
  2  6  1  0  0  0  0
  2 34  1  0  0  0  0
  3  4  2  0  0  0  0
  3 28  1  0  0  0  0
  5 13  1  0  0  0  0
  6  7  1  0  0  0  0
  7  8  1  0  0  0  0
  8  9  1  0  0  0  0
  8 10  1  0  0  0  0
 11 13  2  0  0  0  0
 11 24  1  0  0  0  0
 12 34  1  0  0  0  0
 13 15  1  0  0  0  0
 14 34  1  0  0  0  0
 15 16  1  0  0  0  0
 16 17  1  0  0  0  0
 16 18  2  0  0  0  0
 17 20  1  0  0  0  0
 17 24  2  0  0  0  0
 19 21  1  0  0  0  0
 19 20  1  0  0  0  0
 20 22  1  0  0  0  0
 22 23  1  0  0  0  0
 22 26  1  6  0  0  0
 23 25  1  0  0  0  0
 24 25  1  0  0  0  0
 26 27  1  0  0  0  0
 27 31  1  0  0  0  0
 28 29  2  0  0  0  0
 28 33  1  0  0  0  0
 29 30  1  0  0  0  0
 30 31  2  0  0  0  0
 31 32  1  0  0  0  0
 32 33  2  0  0  0  0
M  END
>  <CHROM.1>
140.24721246,-73.54504177,-33.50179353,-58.93677333,151.42919413,-73.54628964
-149.21531317,-138.91861536,56.68704128,6.06636478,7.27229620,41.61524028
74.55843155,1.13135034,0.18953257,-1.24718667

>  <Name>
ligand

>  <RI>
0

>  <Rbt.Current_Directory>
/home/itssahil/PROJECTS/Mol_Feturizer/New_Systems/rnas/3SUH

>  <Rbt.Executable>
rbdock ($Id: //depot/dev/client3/rdock/2013.1/src/exe/rbdock.cxx#4 $)

>  <Rbt.Library>
libRbt.so (2013.1, Build901 2013/11/27)

>  <Rbt.Parameter_File>
/export/apps/rDock/src/rDock_2013.1_src/data/scripts/dock_solv.prm

>  <Rbt.Receptor>
prm/pocket_docking_2.prm

>  <SCORE>
-4.00211

>  <SCORE.INTER>
-2.19309

>  <SCORE.INTER.CONST>
1

>  <SCORE.INTER.POLAR>
0

>  <SCORE.INTER.ROT>
10

>  <SCORE.INTER.SOLV>
5.23763

>  <SCORE.INTER.VDW>
-13.4746

>  <SCORE.INTER.norm>
-0.0645027

>  <SCORE.INTRA>
-2.04401

>  <SCORE.INTRA.DIHEDRAL>
-0.822541

>  <SCORE.INTRA.DIHEDRAL.0>
12.2703

>  <SCORE.INTRA.POLAR>
0

>  <SCORE.INTRA.POLAR.0>
0

>  <SCORE.INTRA.REPUL>
0

>  <SCORE.INTRA.REPUL.0>
0

>  <SCORE.INTRA.SOLV>
-1.18243

>  <SCORE.INTRA.SOLV.lig_0>
-64.3214

>  <SCORE.INTRA.VDW>
-1.04152

>  <SCORE.INTRA.VDW.0>
-1.67301

>  <SCORE.INTRA.norm>
-0.0601179

>  <SCORE.RESTR>
0.234994

>  <SCORE.RESTR.CAVITY>
0.234994

>  <SCORE.RESTR.norm>
0.00691159

>  <SCORE.SYSTEM>
0

>  <SCORE.SYSTEM.CONST>
0

>  <SCORE.SYSTEM.DIHEDRAL>
0

>  <SCORE.SYSTEM.SOLV>
0

>  <SCORE.SYSTEM.norm>
0

>  <SCORE.heavy>
34

>  <SCORE.norm>
-0.117709

>  <RMSD>
10.572

$$$$
ligand
 OpenBabel11021811483D
libRbt.so/2013.1/901 2013/11/27
 34 36  0  0  0  0  0  0  0  0999 V2000
    8.0000   42.0398   71.2867 N   0  0  0  0  0  0  0  0  0  0  0  0
    8.6859   42.0097   69.9740 C   0  0  1  0  0  0  0  0  0  0  0  0
    7.0041   42.8827   71.5897 C   0  0  0  0  0  0  0  0  0  0  0  0
    6.5480   43.7273   70.8139 O   0  0  0  0  0  0  0  0  0  0  0  0
    5.9457   36.9787   78.0615 N   0  0  0  0  0  0  0  0  0  0  0  0
   10.1899   42.2664   70.1670 C   0  0  0  0  0  0  0  0  0  0  0  0
   10.9706   42.0584   68.8622 C   0  0  0  0  0  0  0  0  0  0  0  0
   10.5399   43.0698   67.7890 C   0  0  0  0  0  0  0  0  0  0  0  0
   11.3741   43.9458   67.4607 O   0  0  0  0  0  0  0  0  0  0  0  0
    9.3862   42.9429   67.3182 O   0  0  0  0  0  0  0  0  0  0  0  0
    4.4862   38.7750   78.1033 N   0  0  0  0  0  0  0  0  0  0  0  0
    7.9610   40.7052   68.0976 O   0  0  0  0  0  0  0  0  0  0  0  0
    5.6562   38.2156   78.4574 C   0  0  0  0  0  0  0  0  0  0  0  0
    8.8313   39.6308   69.8518 O   0  0  0  0  0  0  0  0  0  0  0  0
    6.5782   38.9213   79.2408 N   0  0  0  0  0  0  0  0  0  0  0  0
    6.2676   40.2130   79.6439 C   0  0  0  0  0  0  0  0  0  0  0  0
    5.0647   40.7728   79.2340 C   0  0  0  0  0  0  0  0  0  0  0  0
    7.0645   40.8557   80.3229 O   0  0  0  0  0  0  0  0  0  0  0  0
    5.0506   42.4441   80.8799 C   0  0  0  0  0  0  0  0  0  0  0  0
    4.6809   42.0363   79.6696 N   0  0  0  0  0  0  0  0  0  0  0  0
    5.0214   41.6705   81.8345 O   0  0  0  0  0  0  0  0  0  0  0  0
    3.7177   42.8127   78.8812 C   0  0  2  0  0  0  0  0  0  0  0  0
    2.5155   41.9218   78.5581 C   0  0  0  0  0  0  0  0  0  0  0  0
    4.1697   40.0220   78.4839 C   0  0  0  0  0  0  0  0  0  0  0  0
    2.9390   40.5724   78.1094 N   0  0  0  0  0  0  0  0  0  0  0  0
    4.3657   43.3167   77.5871 C   0  0  0  0  0  0  0  0  0  0  0  0
    4.7185   42.1752   76.7340 N   0  0  0  0  0  0  0  0  0  0  0  0
    6.4102   42.6942   72.9974 C   0  0  0  0  0  0  0  0  0  0  0  0
    5.7726   43.7503   73.6438 C   0  0  0  0  0  0  0  0  0  0  0  0
    5.1869   43.5630   74.8943 C   0  0  0  0  0  0  0  0  0  0  0  0
    5.2717   42.3297   75.5315 C   0  0  0  0  0  0  0  0  0  0  0  0
    5.9158   41.2764   74.8913 C   0  0  0  0  0  0  0  0  0  0  0  0
    6.4711   41.4531   73.6248 C   0  0  0  0  0  0  0  0  0  0  0  0
    8.4745   40.6683   69.2420 C   0  0  0  0  0  0  0  0  0  0  0  0
  1  3  1  0  0  0  0
  2  1  1  1  0  0  0
  2  6  1  0  0  0  0
  2 34  1  0  0  0  0
  3  4  2  0  0  0  0
  3 28  1  0  0  0  0
  5 13  1  0  0  0  0
  6  7  1  0  0  0  0
  7  8  1  0  0  0  0
  8  9  1  0  0  0  0
  8 10  1  0  0  0  0
 11 13  2  0  0  0  0
 11 24  1  0  0  0  0
 12 34  1  0  0  0  0
 13 15  1  0  0  0  0
 14 34  1  0  0  0  0
 15 16  1  0  0  0  0
 16 17  1  0  0  0  0
 16 18  2  0  0  0  0
 17 20  1  0  0  0  0
 17 24  2  0  0  0  0
 19 21  1  0  0  0  0
 19 20  1  0  0  0  0
 20 22  1  0  0  0  0
 22 23  1  0  0  0  0
 22 26  1  6  0  0  0
 23 25  1  0  0  0  0
 24 25  1  0  0  0  0
 26 27  1  0  0  0  0
 27 31  1  0  0  0  0
 28 29  2  0  0  0  0
 28 33  1  0  0  0  0
 29 30  1  0  0  0  0
 30 31  2  0  0  0  0
 31 32  1  0  0  0  0
 32 33  2  0  0  0  0
M  END
>  <CHROM.1>
121.23664704,172.33583688,122.74774033,63.60596559,111.29137672,-40.85690785
64.84779055,178.48967692,-18.13566983,155.21507066,6.56442203,41.55507874
74.69349995,0.79171249,0.98239424,-0.74601763

>  <Name>
ligand

>  <RI>
0

>  <Rbt.Current_Directory>
/home/itssahil/PROJECTS/Mol_Feturizer/New_Systems/rnas/3SUH

>  <Rbt.Executable>
rbdock ($Id: //depot/dev/client3/rdock/2013.1/src/exe/rbdock.cxx#4 $)

>  <Rbt.Library>
libRbt.so (2013.1, Build901 2013/11/27)

>  <Rbt.Parameter_File>
/export/apps/rDock/src/rDock_2013.1_src/data/scripts/dock_solv.prm

>  <Rbt.Receptor>
prm/pocket_docking_2.prm

>  <SCORE>
-0.0145876

>  <SCORE.INTER>
-3.92718

>  <SCORE.INTER.CONST>
1

>  <SCORE.INTER.POLAR>
0

>  <SCORE.INTER.ROT>
10

>  <SCORE.INTER.SOLV>
5.60002

>  <SCORE.INTER.VDW>
-14.7515

>  <SCORE.INTER.norm>
-0.115505

>  <SCORE.INTRA>
-1.04316

>  <SCORE.INTRA.DIHEDRAL>
-4.16729

>  <SCORE.INTRA.DIHEDRAL.0>
12.2703

>  <SCORE.INTRA.POLAR>
0

>  <SCORE.INTRA.POLAR.0>
0

>  <SCORE.INTRA.REPUL>
0

>  <SCORE.INTRA.REPUL.0>
0

>  <SCORE.INTRA.SOLV>
1.54484

>  <SCORE.INTRA.SOLV.lig_0>
-64.3214

>  <SCORE.INTRA.VDW>
0.268066

>  <SCORE.INTRA.VDW.0>
-1.67301

>  <SCORE.INTRA.norm>
-0.030681

>  <SCORE.RESTR>
4.95575

>  <SCORE.RESTR.CAVITY>
4.95575

>  <SCORE.RESTR.norm>
0.145757

>  <SCORE.SYSTEM>
0

>  <SCORE.SYSTEM.CONST>
0

>  <SCORE.SYSTEM.DIHEDRAL>
0

>  <SCORE.SYSTEM.SOLV>
0

>  <SCORE.SYSTEM.norm>
0

>  <SCORE.heavy>
34

>  <SCORE.norm>
-0.000429047

>  <RMSD>
10.574

$$$$
ligand
 OpenBabel11021811483D
libRbt.so/2013.1/901 2013/11/27
 34 36  0  0  0  0  0  0  0  0999 V2000
    9.8720   42.7462   69.0072 N   0  0  0  0  0  0  0  0  0  0  0  0
   10.6317   43.5065   67.9875 C   0  0  1  0  0  0  0  0  0  0  0  0
    8.6951   42.1516   68.7720 C   0  0  0  0  0  0  0  0  0  0  0  0
    8.1117   42.1709   67.6846 O   0  0  0  0  0  0  0  0  0  0  0  0
    6.7035   40.7806   80.2949 N   0  0  0  0  0  0  0  0  0  0  0  0
   11.9751   43.9682   68.5769 C   0  0  0  0  0  0  0  0  0  0  0  0
   11.7739   44.9048   69.7759 C   0  0  0  0  0  0  0  0  0  0  0  0
   13.1167   45.4443   70.2918 C   0  0  0  0  0  0  0  0  0  0  0  0
   13.6596   44.8210   71.2340 O   0  0  0  0  0  0  0  0  0  0  0  0
   13.5722   46.4672   69.7306 O   0  0  0  0  0  0  0  0  0  0  0  0
    7.1433   39.1814   78.6802 N   0  0  0  0  0  0  0  0  0  0  0  0
   11.3011   43.2793   65.6967 O   0  0  0  0  0  0  0  0  0  0  0  0
    6.3706   40.1715   79.1598 C   0  0  0  0  0  0  0  0  0  0  0  0
   10.6339   41.4458   66.7838 O   0  0  0  0  0  0  0  0  0  0  0  0
    5.2151   40.5717   78.4768 N   0  0  0  0  0  0  0  0  0  0  0  0
    4.8804   39.9322   77.2908 C   0  0  0  0  0  0  0  0  0  0  0  0
    5.7174   38.9355   76.8065 C   0  0  0  0  0  0  0  0  0  0  0  0
    3.8774   40.2723   76.6684 O   0  0  0  0  0  0  0  0  0  0  0  0
    4.1059   37.9940   75.3856 C   0  0  0  0  0  0  0  0  0  0  0  0
    5.3869   38.2212   75.6603 N   0  0  0  0  0  0  0  0  0  0  0  0
    3.4355   37.2561   76.1042 O   0  0  0  0  0  0  0  0  0  0  0  0
    6.4453   37.5632   74.8864 C   0  0  2  0  0  0  0  0  0  0  0  0
    7.3203   36.7496   75.8433 C   0  0  0  0  0  0  0  0  0  0  0  0
    6.8350   38.5527   77.5358 C   0  0  0  0  0  0  0  0  0  0  0  0
    7.6526   37.5179   77.0684 N   0  0  0  0  0  0  0  0  0  0  0  0
    7.2947   38.6026   74.1470 C   0  0  0  0  0  0  0  0  0  0  0  0
    6.4768   39.2775   73.1317 N   0  0  0  0  0  0  0  0  0  0  0  0
    8.1182   41.3751   69.9695 C   0  0  0  0  0  0  0  0  0  0  0  0
    7.2810   42.0071   70.8858 C   0  0  0  0  0  0  0  0  0  0  0  0
    6.7150   41.2893   71.9376 C   0  0  0  0  0  0  0  0  0  0  0  0
    7.0160   39.9425   72.1105 C   0  0  0  0  0  0  0  0  0  0  0  0
    7.8590   39.3120   71.2015 C   0  0  0  0  0  0  0  0  0  0  0  0
    8.3974   40.0207   70.1284 C   0  0  0  0  0  0  0  0  0  0  0  0
   10.8789   42.6748   66.7120 C   0  0  0  0  0  0  0  0  0  0  0  0
  1  3  1  0  0  0  0
  2  1  1  1  0  0  0
  2  6  1  0  0  0  0
  2 34  1  0  0  0  0
  3  4  2  0  0  0  0
  3 28  1  0  0  0  0
  5 13  1  0  0  0  0
  6  7  1  0  0  0  0
  7  8  1  0  0  0  0
  8  9  1  0  0  0  0
  8 10  1  0  0  0  0
 11 13  2  0  0  0  0
 11 24  1  0  0  0  0
 12 34  1  0  0  0  0
 13 15  1  0  0  0  0
 14 34  1  0  0  0  0
 15 16  1  0  0  0  0
 16 17  1  0  0  0  0
 16 18  2  0  0  0  0
 17 20  1  0  0  0  0
 17 24  2  0  0  0  0
 19 21  1  0  0  0  0
 19 20  1  0  0  0  0
 20 22  1  0  0  0  0
 22 23  1  0  0  0  0
 22 26  1  1  0  0  0
 23 25  1  0  0  0  0
 24 25  1  0  0  0  0
 26 27  1  0  0  0  0
 27 31  1  0  0  0  0
 28 29  2  0  0  0  0
 28 33  1  0  0  0  0
 29 30  1  0  0  0  0
 30 31  2  0  0  0  0
 31 32  1  0  0  0  0
 32 33  2  0  0  0  0
M  END
>  <CHROM.1>
-176.22292328,-61.59610424,167.79706602,-175.73611627,-94.26612325,-67.24574560
-65.82633040,-160.98435718,-121.92803058,89.96271511,8.11878539,40.89634985
72.76659430,0.82181893,-0.77045841,-1.64351610

>  <Name>
ligand

>  <RI>
0

>  <Rbt.Current_Directory>
/home/itssahil/PROJECTS/Mol_Feturizer/New_Systems/rnas/3SUH

>  <Rbt.Executable>
rbdock ($Id: //depot/dev/client3/rdock/2013.1/src/exe/rbdock.cxx#4 $)

>  <Rbt.Library>
libRbt.so (2013.1, Build901 2013/11/27)

>  <Rbt.Parameter_File>
/export/apps/rDock/src/rDock_2013.1_src/data/scripts/dock_solv.prm

>  <Rbt.Receptor>
prm/pocket_docking_6.prm

>  <SCORE>
-15.8795

>  <SCORE.INTER>
-11.4002

>  <SCORE.INTER.CONST>
1

>  <SCORE.INTER.POLAR>
0

>  <SCORE.INTER.ROT>
10

>  <SCORE.INTER.SOLV>
8.7851

>  <SCORE.INTER.VDW>
-20.7952

>  <SCORE.INTER.norm>
-0.3353

>  <SCORE.INTRA>
-4.4793

>  <SCORE.INTRA.DIHEDRAL>
-5.45362

>  <SCORE.INTRA.DIHEDRAL.0>
12.2703

>  <SCORE.INTRA.POLAR>
0

>  <SCORE.INTRA.POLAR.0>
0

>  <SCORE.INTRA.REPUL>
0

>  <SCORE.INTRA.REPUL.0>
0

>  <SCORE.INTRA.SOLV>
-0.435072

>  <SCORE.INTRA.SOLV.lig_0>
-64.3214

>  <SCORE.INTRA.VDW>
-1.53495

>  <SCORE.INTRA.VDW.0>
-1.67301

>  <SCORE.INTRA.norm>
-0.131744

>  <SCORE.RESTR>
0

>  <SCORE.RESTR.CAVITY>
0

>  <SCORE.RESTR.norm>
0

>  <SCORE.SYSTEM>
0

>  <SCORE.SYSTEM.CONST>
0

>  <SCORE.SYSTEM.DIHEDRAL>
0

>  <SCORE.SYSTEM.SOLV>
0

>  <SCORE.SYSTEM.norm>
0

>  <SCORE.heavy>
34

>  <SCORE.norm>
-0.467044

>  <RMSD>
10.574

$$$$
ligand
 OpenBabel11021811483D
libRbt.so/2013.1/901 2013/11/27
 34 36  0  0  0  0  0  0  0  0999 V2000
    8.8578   42.6656   71.2851 N   0  0  0  0  0  0  0  0  0  0  0  0
    9.7925   42.7292   70.1375 C   0  0  1  0  0  0  0  0  0  0  0  0
    7.5311   42.5293   71.1610 C   0  0  0  0  0  0  0  0  0  0  0  0
    6.9392   42.4434   70.0814 O   0  0  0  0  0  0  0  0  0  0  0  0
    8.4987   39.7403   79.3211 N   0  0  0  0  0  0  0  0  0  0  0  0
    9.5737   41.5141   69.2205 C   0  0  0  0  0  0  0  0  0  0  0  0
   10.6871   41.3902   68.1716 C   0  0  0  0  0  0  0  0  0  0  0  0
   10.6145   42.5316   67.1458 C   0  0  0  0  0  0  0  0  0  0  0  0
   11.6636   43.1872   66.9443 O   0  0  0  0  0  0  0  0  0  0  0  0
    9.5116   42.7218   66.5836 O   0  0  0  0  0  0  0  0  0  0  0  0
    6.4043   39.7310   78.3355 N   0  0  0  0  0  0  0  0  0  0  0  0
   10.6367   44.7610   69.1851 O   0  0  0  0  0  0  0  0  0  0  0  0
    7.2960   40.2895   79.1724 C   0  0  0  0  0  0  0  0  0  0  0  0
    8.4808   44.2690   68.8710 O   0  0  0  0  0  0  0  0  0  0  0  0
    6.9737   41.4469   79.8923 N   0  0  0  0  0  0  0  0  0  0  0  0
    5.7175   42.0139   79.7253 C   0  0  0  0  0  0  0  0  0  0  0  0
    4.8317   41.4304   78.8291 C   0  0  0  0  0  0  0  0  0  0  0  0
    5.4151   43.0348   80.3381 O   0  0  0  0  0  0  0  0  0  0  0  0
    2.9271   42.4613   79.7303 C   0  0  0  0  0  0  0  0  0  0  0  0
    3.5398   41.9226   78.6804 N   0  0  0  0  0  0  0  0  0  0  0  0
    2.2544   41.7632   80.4855 O   0  0  0  0  0  0  0  0  0  0  0  0
    2.8043   41.6633   77.4378 C   0  0  2  0  0  0  0  0  0  0  0  0
    2.8954   40.1696   77.1154 C   0  0  0  0  0  0  0  0  0  0  0  0
    5.1860   40.2656   78.1620 C   0  0  0  0  0  0  0  0  0  0  0  0
    4.2755   39.6544   77.2929 N   0  0  0  0  0  0  0  0  0  0  0  0
    3.3877   42.4896   76.2864 C   0  0  0  0  0  0  0  0  0  0  0  0
    4.8141   42.1802   76.1293 N   0  0  0  0  0  0  0  0  0  0  0  0
    6.7685   42.4347   72.4949 C   0  0  0  0  0  0  0  0  0  0  0  0
    6.6181   41.2089   73.1387 C   0  0  0  0  0  0  0  0  0  0  0  0
    5.9761   41.1333   74.3731 C   0  0  0  0  0  0  0  0  0  0  0  0
    5.4379   42.2759   74.9556 C   0  0  0  0  0  0  0  0  0  0  0  0
    5.5794   43.4995   74.3098 C   0  0  0  0  0  0  0  0  0  0  0  0
    6.2527   43.5816   73.0918 C   0  0  0  0  0  0  0  0  0  0  0  0
    9.6256   44.0317   69.3278 C   0  0  0  0  0  0  0  0  0  0  0  0
  1  3  1  0  0  0  0
  2  1  1  1  0  0  0
  2  6  1  0  0  0  0
  2 34  1  0  0  0  0
  3  4  2  0  0  0  0
  3 28  1  0  0  0  0
  5 13  1  0  0  0  0
  6  7  1  0  0  0  0
  7  8  1  0  0  0  0
  8  9  1  0  0  0  0
  8 10  1  0  0  0  0
 11 13  2  0  0  0  0
 11 24  1  0  0  0  0
 12 34  1  0  0  0  0
 13 15  1  0  0  0  0
 14 34  1  0  0  0  0
 15 16  1  0  0  0  0
 16 17  1  0  0  0  0
 16 18  2  0  0  0  0
 17 20  1  0  0  0  0
 17 24  2  0  0  0  0
 19 21  1  0  0  0  0
 19 20  1  0  0  0  0
 20 22  1  0  0  0  0
 22 23  1  0  0  0  0
 22 26  1  6  0  0  0
 23 25  1  0  0  0  0
 24 25  1  0  0  0  0
 26 27  1  0  0  0  0
 27 31  1  0  0  0  0
 28 29  2  0  0  0  0
 28 33  1  0  0  0  0
 29 30  1  0  0  0  0
 30 31  2  0  0  0  0
 31 32  1  0  0  0  0
 32 33  2  0  0  0  0
M  END
>  <CHROM.1>
-53.46823806,-169.10867037,123.02891333,-68.65061662,127.91293251,-89.58873658
57.25135563,151.37585979,-116.77085505,-85.74731374,6.73361948,42.06432984
74.26300843,-1.09641995,-0.23652071,1.84215096

>  <Name>
ligand

>  <RI>
0

>  <Rbt.Current_Directory>
/home/itssahil/PROJECTS/Mol_Feturizer/New_Systems/rnas/3SUH

>  <Rbt.Executable>
rbdock ($Id: //depot/dev/client3/rdock/2013.1/src/exe/rbdock.cxx#4 $)

>  <Rbt.Library>
libRbt.so (2013.1, Build901 2013/11/27)

>  <Rbt.Parameter_File>
/export/apps/rDock/src/rDock_2013.1_src/data/scripts/dock_solv.prm

>  <Rbt.Receptor>
prm/pocket_docking_3.prm

>  <SCORE>
-6.59397

>  <SCORE.INTER>
-3.65852

>  <SCORE.INTER.CONST>
1

>  <SCORE.INTER.POLAR>
0

>  <SCORE.INTER.ROT>
10

>  <SCORE.INTER.SOLV>
7.57922

>  <SCORE.INTER.VDW>
-15.2321

>  <SCORE.INTER.norm>
-0.107603

>  <SCORE.INTRA>
-2.93545

>  <SCORE.INTRA.DIHEDRAL>
-4.84701

>  <SCORE.INTRA.DIHEDRAL.0>
12.2703

>  <SCORE.INTRA.POLAR>
0

>  <SCORE.INTRA.POLAR.0>
0

>  <SCORE.INTRA.REPUL>
0

>  <SCORE.INTRA.REPUL.0>
0

>  <SCORE.INTRA.SOLV>
2.26929

>  <SCORE.INTRA.SOLV.lig_0>
-64.3214

>  <SCORE.INTRA.VDW>
-1.64659

>  <SCORE.INTRA.VDW.0>
-1.67301

>  <SCORE.INTRA.norm>
-0.0863368

>  <SCORE.RESTR>
0

>  <SCORE.RESTR.CAVITY>
0

>  <SCORE.RESTR.norm>
0

>  <SCORE.SYSTEM>
0

>  <SCORE.SYSTEM.CONST>
0

>  <SCORE.SYSTEM.DIHEDRAL>
0

>  <SCORE.SYSTEM.SOLV>
0

>  <SCORE.SYSTEM.norm>
0

>  <SCORE.heavy>
34

>  <SCORE.norm>
-0.19394

>  <RMSD>
10.575

$$$$
ligand
 OpenBabel11021811483D
libRbt.so/2013.1/901 2013/11/27
 34 36  0  0  0  0  0  0  0  0999 V2000
    9.2584   43.0365   70.3732 N   0  0  0  0  0  0  0  0  0  0  0  0
   10.2519   42.7099   69.3238 C   0  0  1  0  0  0  0  0  0  0  0  0
    7.9354   43.0649   70.1661 C   0  0  0  0  0  0  0  0  0  0  0  0
    7.3963   42.8250   69.0821 O   0  0  0  0  0  0  0  0  0  0  0  0
    3.3403   37.5887   77.0710 N   0  0  0  0  0  0  0  0  0  0  0  0
   10.8899   44.0037   68.7909 C   0  0  0  0  0  0  0  0  0  0  0  0
   11.9588   43.7108   67.7293 C   0  0  0  0  0  0  0  0  0  0  0  0
   11.3375   43.0809   66.4733 C   0  0  0  0  0  0  0  0  0  0  0  0
   10.6237   42.0637   66.6368 O   0  0  0  0  0  0  0  0  0  0  0  0
   11.5881   43.6324   65.3770 O   0  0  0  0  0  0  0  0  0  0  0  0
    2.5173   39.7404   76.8447 N   0  0  0  0  0  0  0  0  0  0  0  0
   11.8789   42.0333   70.9495 O   0  0  0  0  0  0  0  0  0  0  0  0
    3.5330   38.9042   77.1216 C   0  0  0  0  0  0  0  0  0  0  0  0
   11.6411   40.7806   69.1156 O   0  0  0  0  0  0  0  0  0  0  0  0
    4.7965   39.4024   77.4638 N   0  0  0  0  0  0  0  0  0  0  0  0
    4.9871   40.7768   77.5087 C   0  0  0  0  0  0  0  0  0  0  0  0
    3.9259   41.6123   77.1858 C   0  0  0  0  0  0  0  0  0  0  0  0
    6.0889   41.2377   77.7963 O   0  0  0  0  0  0  0  0  0  0  0  0
    4.8420   43.5081   78.2198 C   0  0  0  0  0  0  0  0  0  0  0  0
    4.0505   42.9937   77.2834 N   0  0  0  0  0  0  0  0  0  0  0  0
    5.7947   44.2195   77.9091 O   0  0  0  0  0  0  0  0  0  0  0  0
    3.1649   43.8584   76.4959 C   0  0  2  0  0  0  0  0  0  0  0  0
    1.7202   43.3920   76.6929 C   0  0  0  0  0  0  0  0  0  0  0  0
    2.6838   41.0711   76.8832 C   0  0  0  0  0  0  0  0  0  0  0  0
    1.6043   41.9157   76.6015 N   0  0  0  0  0  0  0  0  0  0  0  0
    3.5412   43.8022   75.0113 C   0  0  0  0  0  0  0  0  0  0  0  0
    4.9350   44.2295   74.8383 N   0  0  0  0  0  0  0  0  0  0  0  0
    7.0968   43.3787   71.4183 C   0  0  0  0  0  0  0  0  0  0  0  0
    6.8147   42.3820   72.3493 C   0  0  0  0  0  0  0  0  0  0  0  0
    6.1030   42.6801   73.5096 C   0  0  0  0  0  0  0  0  0  0  0  0
    5.6269   43.9682   73.7297 C   0  0  0  0  0  0  0  0  0  0  0  0
    5.9000   44.9628   72.7967 C   0  0  0  0  0  0  0  0  0  0  0  0
    6.6425   44.6735   71.6528 C   0  0  0  0  0  0  0  0  0  0  0  0
   11.3512   41.7608   69.8441 C   0  0  0  0  0  0  0  0  0  0  0  0
  1  3  1  0  0  0  0
  2  1  1  1  0  0  0
  2  6  1  0  0  0  0
  2 34  1  0  0  0  0
  3  4  2  0  0  0  0
  3 28  1  0  0  0  0
  5 13  1  0  0  0  0
  6  7  1  0  0  0  0
  7  8  1  0  0  0  0
  8  9  1  0  0  0  0
  8 10  1  0  0  0  0
 11 13  2  0  0  0  0
 11 24  1  0  0  0  0
 12 34  1  0  0  0  0
 13 15  1  0  0  0  0
 14 34  1  0  0  0  0
 15 16  1  0  0  0  0
 16 17  1  0  0  0  0
 16 18  2  0  0  0  0
 17 20  1  0  0  0  0
 17 24  2  0  0  0  0
 19 21  1  0  0  0  0
 19 20  1  0  0  0  0
 20 22  1  0  0  0  0
 22 23  1  0  0  0  0
 22 26  1  6  0  0  0
 23 25  1  0  0  0  0
 24 25  1  0  0  0  0
 26 27  1  0  0  0  0
 27 31  1  0  0  0  0
 28 29  2  0  0  0  0
 28 33  1  0  0  0  0
 29 30  1  0  0  0  0
 30 31  2  0  0  0  0
 31 32  1  0  0  0  0
 32 33  2  0  0  0  0
M  END
>  <CHROM.1>
101.05593791,178.26724920,-46.72084395,65.26086281,-53.16466983,120.29749093
-58.85507022,162.84296927,-75.21068230,-80.42630139,6.73170727,42.43407546
73.18224362,0.46339553,0.80350460,-0.47196949

>  <Name>
ligand

>  <RI>
0

>  <Rbt.Current_Directory>
/home/itssahil/PROJECTS/Mol_Feturizer/New_Systems/rnas/3SUH

>  <Rbt.Executable>
rbdock ($Id: //depot/dev/client3/rdock/2013.1/src/exe/rbdock.cxx#4 $)

>  <Rbt.Library>
libRbt.so (2013.1, Build901 2013/11/27)

>  <Rbt.Parameter_File>
/export/apps/rDock/src/rDock_2013.1_src/data/scripts/dock_solv.prm

>  <Rbt.Receptor>
prm/pocket_docking_6.prm

>  <SCORE>
-11.98

>  <SCORE.INTER>
-7.96292

>  <SCORE.INTER.CONST>
1

>  <SCORE.INTER.POLAR>
0

>  <SCORE.INTER.ROT>
10

>  <SCORE.INTER.SOLV>
8.21731

>  <SCORE.INTER.VDW>
-18.3144

>  <SCORE.INTER.norm>
-0.234204

>  <SCORE.INTRA>
-4.01707

>  <SCORE.INTRA.DIHEDRAL>
-4.57972

>  <SCORE.INTRA.DIHEDRAL.0>
12.2703

>  <SCORE.INTRA.POLAR>
0

>  <SCORE.INTRA.POLAR.0>
0

>  <SCORE.INTRA.REPUL>
0

>  <SCORE.INTRA.REPUL.0>
0

>  <SCORE.INTRA.SOLV>
-0.152413

>  <SCORE.INTRA.SOLV.lig_0>
-64.3214

>  <SCORE.INTRA.VDW>
-1.651

>  <SCORE.INTRA.VDW.0>
-1.67301

>  <SCORE.INTRA.norm>
-0.118149

>  <SCORE.RESTR>
0

>  <SCORE.RESTR.CAVITY>
0

>  <SCORE.RESTR.norm>
0

>  <SCORE.SYSTEM>
0

>  <SCORE.SYSTEM.CONST>
0

>  <SCORE.SYSTEM.DIHEDRAL>
0

>  <SCORE.SYSTEM.SOLV>
0

>  <SCORE.SYSTEM.norm>
0

>  <SCORE.heavy>
34

>  <SCORE.norm>
-0.352353

>  <RMSD>
10.596

$$$$
ligand
 OpenBabel11021811483D
libRbt.so/2013.1/901 2013/11/27
 34 36  0  0  0  0  0  0  0  0999 V2000
    9.4258   42.9413   69.7387 N   0  0  0  0  0  0  0  0  0  0  0  0
   10.3767   42.5975   68.6559 C   0  0  1  0  0  0  0  0  0  0  0  0
    8.1037   42.7402   69.6632 C   0  0  0  0  0  0  0  0  0  0  0  0
    7.5299   42.2495   68.6869 O   0  0  0  0  0  0  0  0  0  0  0  0
    0.4509   41.1639   79.8627 N   0  0  0  0  0  0  0  0  0  0  0  0
   11.7908   43.0666   69.0372 C   0  0  0  0  0  0  0  0  0  0  0  0
   11.9036   44.5970   69.0146 C   0  0  0  0  0  0  0  0  0  0  0  0
   10.9799   45.2383   70.0614 C   0  0  0  0  0  0  0  0  0  0  0  0
    9.8686   45.6590   69.6627 O   0  0  0  0  0  0  0  0  0  0  0  0
   11.4047   45.2915   71.2385 O   0  0  0  0  0  0  0  0  0  0  0  0
    2.3810   42.1450   79.0436 N   0  0  0  0  0  0  0  0  0  0  0  0
   10.4756   40.3002   69.3345 O   0  0  0  0  0  0  0  0  0  0  0  0
    1.4809   41.1466   79.0205 C   0  0  0  0  0  0  0  0  0  0  0  0
   10.3191   40.7458   67.1515 O   0  0  0  0  0  0  0  0  0  0  0  0
    1.6141   40.0843   78.1174 N   0  0  0  0  0  0  0  0  0  0  0  0
    2.6901   40.0794   77.2400 C   0  0  0  0  0  0  0  0  0  0  0  0
    3.5837   41.1419   77.2682 C   0  0  0  0  0  0  0  0  0  0  0  0
    2.8227   39.1638   76.4318 O   0  0  0  0  0  0  0  0  0  0  0  0
    5.2983   39.9910   76.1557 C   0  0  0  0  0  0  0  0  0  0  0  0
    4.7126   41.1461   76.4565 N   0  0  0  0  0  0  0  0  0  0  0  0
    5.8776   39.8467   75.0815 O   0  0  0  0  0  0  0  0  0  0  0  0
    5.3528   42.4205   76.1125 C   0  0  2  0  0  0  0  0  0  0  0  0
    5.5595   43.2288   77.3959 C   0  0  0  0  0  0  0  0  0  0  0  0
    3.4266   42.1563   78.2031 C   0  0  0  0  0  0  0  0  0  0  0  0
    4.3531   43.2033   78.2593 N   0  0  0  0  0  0  0  0  0  0  0  0
    4.4845   43.2080   75.1253 C   0  0  0  0  0  0  0  0  0  0  0  0
    5.3172   44.1707   74.3937 N   0  0  0  0  0  0  0  0  0  0  0  0
    7.3226   43.1276   70.9320 C   0  0  0  0  0  0  0  0  0  0  0  0
    7.0021   42.1659   71.8871 C   0  0  0  0  0  0  0  0  0  0  0  0
    6.3440   42.5278   73.0608 C   0  0  0  0  0  0  0  0  0  0  0  0
    5.9593   43.8476   73.2716 C   0  0  0  0  0  0  0  0  0  0  0  0
    6.2707   44.8077   72.3148 C   0  0  0  0  0  0  0  0  0  0  0  0
    6.9606   44.4528   71.1564 C   0  0  0  0  0  0  0  0  0  0  0  0
   10.3907   41.0839   68.3582 C   0  0  0  0  0  0  0  0  0  0  0  0
  1  3  1  0  0  0  0
  2  1  1  1  0  0  0
  2  6  1  0  0  0  0
  2 34  1  0  0  0  0
  3  4  2  0  0  0  0
  3 28  1  0  0  0  0
  5 13  1  0  0  0  0
  6  7  1  0  0  0  0
  7  8  1  0  0  0  0
  8  9  1  0  0  0  0
  8 10  1  0  0  0  0
 11 13  2  0  0  0  0
 11 24  1  0  0  0  0
 12 34  1  0  0  0  0
 13 15  1  0  0  0  0
 14 34  1  0  0  0  0
 15 16  1  0  0  0  0
 16 17  1  0  0  0  0
 16 18  2  0  0  0  0
 17 20  1  0  0  0  0
 17 24  2  0  0  0  0
 19 21  1  0  0  0  0
 19 20  1  0  0  0  0
 20 22  1  0  0  0  0
 22 23  1  0  0  0  0
 22 26  1  6  0  0  0
 23 25  1  0  0  0  0
 24 25  1  0  0  0  0
 26 27  1  0  0  0  0
 27 31  1  0  0  0  0
 28 29  2  0  0  0  0
 28 33  1  0  0  0  0
 29 30  1  0  0  0  0
 30 31  2  0  0  0  0
 31 32  1  0  0  0  0
 32 33  2  0  0  0  0
M  END
>  <CHROM.1>
175.48080088,-70.08641549,-47.62612801,63.26603150,-97.54662642,149.05899345
-157.70937782,87.48400266,-27.72515618,-95.89696426,6.59208720,42.37416825
73.39639608,0.17898334,-0.87029611,-2.69902532

>  <Name>
ligand

>  <RI>
0

>  <Rbt.Current_Directory>
/home/itssahil/PROJECTS/Mol_Feturizer/New_Systems/rnas/3SUH

>  <Rbt.Executable>
rbdock ($Id: //depot/dev/client3/rdock/2013.1/src/exe/rbdock.cxx#4 $)

>  <Rbt.Library>
libRbt.so (2013.1, Build901 2013/11/27)

>  <Rbt.Parameter_File>
/export/apps/rDock/src/rDock_2013.1_src/data/scripts/dock_solv.prm

>  <Rbt.Receptor>
prm/pocket_docking_4.prm

>  <SCORE>
-7.96687

>  <SCORE.INTER>
-4.13465

>  <SCORE.INTER.CONST>
1

>  <SCORE.INTER.POLAR>
0

>  <SCORE.INTER.ROT>
10

>  <SCORE.INTER.SOLV>
9.53235

>  <SCORE.INTER.VDW>
-16.2006

>  <SCORE.INTER.norm>
-0.121607

>  <SCORE.INTRA>
-3.83221

>  <SCORE.INTRA.DIHEDRAL>
-3.62459

>  <SCORE.INTRA.DIHEDRAL.0>
12.2703

>  <SCORE.INTRA.POLAR>
0

>  <SCORE.INTRA.POLAR.0>
0

>  <SCORE.INTRA.REPUL>
0

>  <SCORE.INTRA.REPUL.0>
0

>  <SCORE.INTRA.SOLV>
-0.520313

>  <SCORE.INTRA.SOLV.lig_0>
-64.3214

>  <SCORE.INTRA.VDW>
-1.75976

>  <SCORE.INTRA.VDW.0>
-1.67301

>  <SCORE.INTRA.norm>
-0.112712

>  <SCORE.RESTR>
0

>  <SCORE.RESTR.CAVITY>
0

>  <SCORE.RESTR.norm>
0

>  <SCORE.SYSTEM>
0

>  <SCORE.SYSTEM.CONST>
0

>  <SCORE.SYSTEM.DIHEDRAL>
0

>  <SCORE.SYSTEM.SOLV>
0

>  <SCORE.SYSTEM.norm>
0

>  <SCORE.heavy>
34

>  <SCORE.norm>
-0.23432

>  <RMSD>
10.613

$$$$
ligand
 OpenBabel11021811483D
libRbt.so/2013.1/901 2013/11/27
 34 36  0  0  0  0  0  0  0  0999 V2000
    9.9332   43.0108   69.2081 N   0  0  0  0  0  0  0  0  0  0  0  0
   10.6125   43.6598   68.0626 C   0  0  1  0  0  0  0  0  0  0  0  0
    8.7206   42.4465   69.1350 C   0  0  0  0  0  0  0  0  0  0  0  0
    8.0340   42.4048   68.1104 O   0  0  0  0  0  0  0  0  0  0  0  0
    7.0071   44.2043   80.4323 N   0  0  0  0  0  0  0  0  0  0  0  0
   11.9208   44.3146   68.5368 C   0  0  0  0  0  0  0  0  0  0  0  0
   11.6650   45.3599   69.6310 C   0  0  0  0  0  0  0  0  0  0  0  0
   12.9728   46.0345   70.0725 C   0  0  0  0  0  0  0  0  0  0  0  0
   13.2017   47.1841   69.6286 O   0  0  0  0  0  0  0  0  0  0  0  0
   13.7141   45.3863   70.8466 O   0  0  0  0  0  0  0  0  0  0  0  0
    7.1614   42.3403   79.0686 N   0  0  0  0  0  0  0  0  0  0  0  0
   10.5742   41.4642   67.1004 O   0  0  0  0  0  0  0  0  0  0  0  0
    6.4383   43.3477   79.5879 C   0  0  0  0  0  0  0  0  0  0  0  0
   11.4748   43.1211   65.9035 O   0  0  0  0  0  0  0  0  0  0  0  0
    5.0886   43.5078   79.2497 N   0  0  0  0  0  0  0  0  0  0  0  0
    4.5071   42.6108   78.3638 C   0  0  0  0  0  0  0  0  0  0  0  0
    5.2903   41.6007   77.8209 C   0  0  0  0  0  0  0  0  0  0  0  0
    3.3277   42.7365   78.0441 O   0  0  0  0  0  0  0  0  0  0  0  0
    3.4739   40.2639   77.1760 C   0  0  0  0  0  0  0  0  0  0  0  0
    4.7348   40.6394   76.9838 N   0  0  0  0  0  0  0  0  0  0  0  0
    3.1801   39.5209   78.1097 O   0  0  0  0  0  0  0  0  0  0  0  0
    5.5947   39.9156   76.0410 C   0  0  2  0  0  0  0  0  0  0  0  0
    6.8176   39.3887   76.7963 C   0  0  0  0  0  0  0  0  0  0  0  0
    6.6156   41.4645   78.2111 C   0  0  0  0  0  0  0  0  0  0  0  0
    7.3908   40.4193   77.6967 N   0  0  0  0  0  0  0  0  0  0  0  0
    6.0351   40.8381   74.8992 C   0  0  0  0  0  0  0  0  0  0  0  0
    6.8674   40.0879   73.9507 N   0  0  0  0  0  0  0  0  0  0  0  0
    8.2400   41.7878   70.4408 C   0  0  0  0  0  0  0  0  0  0  0  0
    8.5321   42.3654   71.6741 C   0  0  0  0  0  0  0  0  0  0  0  0
    8.0492   41.7984   72.8518 C   0  0  0  0  0  0  0  0  0  0  0  0
    7.3071   40.6228   72.8121 C   0  0  0  0  0  0  0  0  0  0  0  0
    7.0221   40.0397   71.5821 C   0  0  0  0  0  0  0  0  0  0  0  0
    7.4746   40.6258   70.4008 C   0  0  0  0  0  0  0  0  0  0  0  0
   10.9104   42.6605   66.9257 C   0  0  0  0  0  0  0  0  0  0  0  0
  1  3  1  0  0  0  0
  2  1  1  1  0  0  0
  2  6  1  0  0  0  0
  2 34  1  0  0  0  0
  3  4  2  0  0  0  0
  3 28  1  0  0  0  0
  5 13  1  0  0  0  0
  6  7  1  0  0  0  0
  7  8  1  0  0  0  0
  8  9  1  0  0  0  0
  8 10  1  0  0  0  0
 11 13  2  0  0  0  0
 11 24  1  0  0  0  0
 12 34  1  0  0  0  0
 13 15  1  0  0  0  0
 14 34  1  0  0  0  0
 15 16  1  0  0  0  0
 16 17  1  0  0  0  0
 16 18  2  0  0  0  0
 17 20  1  0  0  0  0
 17 24  2  0  0  0  0
 19 21  1  0  0  0  0
 19 20  1  0  0  0  0
 20 22  1  0  0  0  0
 22 23  1  0  0  0  0
 22 26  1  6  0  0  0
 23 25  1  0  0  0  0
 24 25  1  0  0  0  0
 26 27  1  0  0  0  0
 27 31  1  0  0  0  0
 28 29  2  0  0  0  0
 28 33  1  0  0  0  0
 29 30  1  0  0  0  0
 30 31  2  0  0  0  0
 31 32  1  0  0  0  0
 32 33  2  0  0  0  0
M  END
>  <CHROM.1>
174.56599446,-58.75710882,-0.85231813,-178.52266800,102.28645803,-75.29287967
-178.65687391,175.09289349,56.17441682,37.09244890,7.97627271,42.30644527
73.34777424,0.77755915,-0.76549039,-1.95180643

>  <Name>
ligand

>  <RI>
0

>  <Rbt.Current_Directory>
/home/itssahil/PROJECTS/Mol_Feturizer/New_Systems/rnas/3SUH

>  <Rbt.Executable>
rbdock ($Id: //depot/dev/client3/rdock/2013.1/src/exe/rbdock.cxx#4 $)

>  <Rbt.Library>
libRbt.so (2013.1, Build901 2013/11/27)

>  <Rbt.Parameter_File>
/export/apps/rDock/src/rDock_2013.1_src/data/scripts/dock_solv.prm

>  <Rbt.Receptor>
prm/pocket_docking_6.prm

>  <SCORE>
-11.089

>  <SCORE.INTER>
-6.87727

>  <SCORE.INTER.CONST>
1

>  <SCORE.INTER.POLAR>
0

>  <SCORE.INTER.ROT>
10

>  <SCORE.INTER.SOLV>
7.72842

>  <SCORE.INTER.VDW>
-17.4276

>  <SCORE.INTER.norm>
-0.202273

>  <SCORE.INTRA>
-4.21171

>  <SCORE.INTRA.DIHEDRAL>
-6.11256

>  <SCORE.INTRA.DIHEDRAL.0>
12.2703

>  <SCORE.INTRA.POLAR>
0

>  <SCORE.INTRA.POLAR.0>
0

>  <SCORE.INTRA.REPUL>
0

>  <SCORE.INTRA.REPUL.0>
0

>  <SCORE.INTRA.SOLV>
-0.669529

>  <SCORE.INTRA.SOLV.lig_0>
-64.3214

>  <SCORE.INTRA.VDW>
-0.820668

>  <SCORE.INTRA.VDW.0>
-1.67301

>  <SCORE.INTRA.norm>
-0.123874

>  <SCORE.RESTR>
0

>  <SCORE.RESTR.CAVITY>
0

>  <SCORE.RESTR.norm>
0

>  <SCORE.SYSTEM>
0

>  <SCORE.SYSTEM.CONST>
0

>  <SCORE.SYSTEM.DIHEDRAL>
0

>  <SCORE.SYSTEM.SOLV>
0

>  <SCORE.SYSTEM.norm>
0

>  <SCORE.heavy>
34

>  <SCORE.norm>
-0.326146

>  <RMSD>
10.634

$$$$
ligand
 OpenBabel11021811483D
libRbt.so/2013.1/901 2013/11/27
 34 36  0  0  0  0  0  0  0  0999 V2000
    9.6216   42.4131   69.0621 N   0  0  0  0  0  0  0  0  0  0  0  0
   10.0592   43.3652   68.0148 C   0  0  1  0  0  0  0  0  0  0  0  0
    8.7323   42.7116   70.0181 C   0  0  0  0  0  0  0  0  0  0  0  0
    8.1801   43.8091   70.1357 O   0  0  0  0  0  0  0  0  0  0  0  0
    5.0837   36.8835   80.9245 N   0  0  0  0  0  0  0  0  0  0  0  0
   11.1252   44.3144   68.5873 C   0  0  0  0  0  0  0  0  0  0  0  0
   12.4430   43.5798   68.8689 C   0  0  0  0  0  0  0  0  0  0  0  0
   12.2807   42.5637   70.0097 C   0  0  0  0  0  0  0  0  0  0  0  0
   12.1600   41.3580   69.6890 O   0  0  0  0  0  0  0  0  0  0  0  0
   12.2836   43.0150   71.1780 O   0  0  0  0  0  0  0  0  0  0  0  0
    4.8856   37.1775   78.6370 N   0  0  0  0  0  0  0  0  0  0  0  0
   10.6558   41.3871   66.7986 O   0  0  0  0  0  0  0  0  0  0  0  0
    5.2307   37.6505   79.8472 C   0  0  0  0  0  0  0  0  0  0  0  0
   10.9979   43.3658   65.8207 O   0  0  0  0  0  0  0  0  0  0  0  0
    5.7454   38.9454   79.9888 N   0  0  0  0  0  0  0  0  0  0  0  0
    5.8990   39.7347   78.8570 C   0  0  0  0  0  0  0  0  0  0  0  0
    5.5629   39.2044   77.6184 C   0  0  0  0  0  0  0  0  0  0  0  0
    6.3578   40.8701   78.9545 O   0  0  0  0  0  0  0  0  0  0  0  0
    5.3932   41.2852   76.5491 C   0  0  0  0  0  0  0  0  0  0  0  0
    5.6351   39.9804   76.4669 N   0  0  0  0  0  0  0  0  0  0  0  0
    4.2387   41.7066   76.5484 O   0  0  0  0  0  0  0  0  0  0  0  0
    5.7767   39.3274   75.1609 C   0  0  2  0  0  0  0  0  0  0  0  0
    4.7251   38.2207   75.0483 C   0  0  0  0  0  0  0  0  0  0  0  0
    5.0273   37.9264   77.5329 C   0  0  0  0  0  0  0  0  0  0  0  0
    4.6480   37.4104   76.2888 N   0  0  0  0  0  0  0  0  0  0  0  0
    7.1830   38.7387   75.0048 C   0  0  0  0  0  0  0  0  0  0  0  0
    7.4588   38.4873   73.5850 N   0  0  0  0  0  0  0  0  0  0  0  0
    8.3932   41.5462   70.9651 C   0  0  0  0  0  0  0  0  0  0  0  0
    9.3173   41.1121   71.9124 C   0  0  0  0  0  0  0  0  0  0  0  0
    8.9885   40.0944   72.8056 C   0  0  0  0  0  0  0  0  0  0  0  0
    7.7483   39.4691   72.7317 C   0  0  0  0  0  0  0  0  0  0  0  0
    6.8275   39.8952   71.7804 C   0  0  0  0  0  0  0  0  0  0  0  0
    7.1426   40.9374   70.9097 C   0  0  0  0  0  0  0  0  0  0  0  0
   10.6173   42.6410   66.7722 C   0  0  0  0  0  0  0  0  0  0  0  0
  1  3  1  0  0  0  0
  2  1  1  1  0  0  0
  2  6  1  0  0  0  0
  2 34  1  0  0  0  0
  3  4  2  0  0  0  0
  3 28  1  0  0  0  0
  5 13  1  0  0  0  0
  6  7  1  0  0  0  0
  7  8  1  0  0  0  0
  8  9  1  0  0  0  0
  8 10  1  0  0  0  0
 11 13  2  0  0  0  0
 11 24  1  0  0  0  0
 12 34  1  0  0  0  0
 13 15  1  0  0  0  0
 14 34  1  0  0  0  0
 15 16  1  0  0  0  0
 16 17  1  0  0  0  0
 16 18  2  0  0  0  0
 17 20  1  0  0  0  0
 17 24  2  0  0  0  0
 19 21  1  0  0  0  0
 19 20  1  0  0  0  0
 20 22  1  0  0  0  0
 22 23  1  0  0  0  0
 22 26  1  1  0  0  0
 23 25  1  0  0  0  0
 24 25  1  0  0  0  0
 26 27  1  0  0  0  0
 27 31  1  0  0  0  0
 28 29  2  0  0  0  0
 28 33  1  0  0  0  0
 29 30  1  0  0  0  0
 30 31  2  0  0  0  0
 31 32  1  0  0  0  0
 32 33  2  0  0  0  0
M  END
>  <CHROM.1>
80.31007087,69.37756210,-1.11609964,-67.02494746,101.50965292,-82.05503888
-161.71556048,75.59056511,72.37125909,72.43816945,7.87938466,40.67772862
73.27832343,0.90349920,-0.73025812,-1.65713606

>  <Name>
ligand

>  <RI>
0

>  <Rbt.Current_Directory>
/home/itssahil/PROJECTS/Mol_Feturizer/New_Systems/rnas/3SUH

>  <Rbt.Executable>
rbdock ($Id: //depot/dev/client3/rdock/2013.1/src/exe/rbdock.cxx#4 $)

>  <Rbt.Library>
libRbt.so (2013.1, Build901 2013/11/27)

>  <Rbt.Parameter_File>
/export/apps/rDock/src/rDock_2013.1_src/data/scripts/dock_solv.prm

>  <Rbt.Receptor>
prm/pocket_docking_4.prm

>  <SCORE>
-8.14448

>  <SCORE.INTER>
-3.63283

>  <SCORE.INTER.CONST>
1

>  <SCORE.INTER.POLAR>
0

>  <SCORE.INTER.ROT>
10

>  <SCORE.INTER.SOLV>
5.74867

>  <SCORE.INTER.VDW>
-14.6048

>  <SCORE.INTER.norm>
-0.106848

>  <SCORE.INTRA>
-4.51165

>  <SCORE.INTRA.DIHEDRAL>
-3.95394

>  <SCORE.INTRA.DIHEDRAL.0>
12.2703

>  <SCORE.INTRA.POLAR>
0

>  <SCORE.INTRA.POLAR.0>
0

>  <SCORE.INTRA.REPUL>
0

>  <SCORE.INTRA.REPUL.0>
0

>  <SCORE.INTRA.SOLV>
-0.576457

>  <SCORE.INTRA.SOLV.lig_0>
-64.3214

>  <SCORE.INTRA.VDW>
-2.24645

>  <SCORE.INTRA.VDW.0>
-1.67301

>  <SCORE.INTRA.norm>
-0.132696

>  <SCORE.RESTR>
0

>  <SCORE.RESTR.CAVITY>
0

>  <SCORE.RESTR.norm>
0

>  <SCORE.SYSTEM>
0

>  <SCORE.SYSTEM.CONST>
0

>  <SCORE.SYSTEM.DIHEDRAL>
0

>  <SCORE.SYSTEM.SOLV>
0

>  <SCORE.SYSTEM.norm>
0

>  <SCORE.heavy>
34

>  <SCORE.norm>
-0.239544

>  <RMSD>
10.635

$$$$
ligand
 OpenBabel11021811483D
libRbt.so/2013.1/901 2013/11/27
 34 36  0  0  0  0  0  0  0  0999 V2000
    8.9494   41.8679   70.2066 N   0  0  0  0  0  0  0  0  0  0  0  0
    9.7383   40.9273   69.3773 C   0  0  1  0  0  0  0  0  0  0  0  0
    7.8617   42.5164   69.7703 C   0  0  0  0  0  0  0  0  0  0  0  0
    7.3961   42.4058   68.6327 O   0  0  0  0  0  0  0  0  0  0  0  0
    2.7197   42.1773   79.4120 N   0  0  0  0  0  0  0  0  0  0  0  0
   10.8440   41.6929   68.6314 C   0  0  0  0  0  0  0  0  0  0  0  0
   10.2628   42.6114   67.5479 C   0  0  0  0  0  0  0  0  0  0  0  0
   11.3687   43.4188   66.8512 C   0  0  0  0  0  0  0  0  0  0  0  0
   12.1306   44.0945   67.5820 O   0  0  0  0  0  0  0  0  0  0  0  0
   11.4296   43.3404   65.6026 O   0  0  0  0  0  0  0  0  0  0  0  0
    2.1984   43.7425   77.7883 N   0  0  0  0  0  0  0  0  0  0  0  0
    9.5887   38.9361   70.7042 O   0  0  0  0  0  0  0  0  0  0  0  0
    3.0836   43.1997   78.6422 C   0  0  0  0  0  0  0  0  0  0  0  0
   11.6097   39.8249   70.3662 O   0  0  0  0  0  0  0  0  0  0  0  0
    4.3892   43.6987   78.7319 N   0  0  0  0  0  0  0  0  0  0  0  0
    4.7590   44.7627   77.9203 C   0  0  0  0  0  0  0  0  0  0  0  0
    3.8302   45.2792   77.0265 C   0  0  0  0  0  0  0  0  0  0  0  0
    5.9014   45.2111   77.9736 O   0  0  0  0  0  0  0  0  0  0  0  0
    4.9530   47.3167   76.7263 C   0  0  0  0  0  0  0  0  0  0  0  0
    4.1337   46.3875   76.2435 N   0  0  0  0  0  0  0  0  0  0  0  0
    4.5190   48.2261   77.4299 O   0  0  0  0  0  0  0  0  0  0  0  0
    3.3991   46.6149   74.9942 C   0  0  2  0  0  0  0  0  0  0  0  0
    1.8993   46.4998   75.2781 C   0  0  0  0  0  0  0  0  0  0  0  0
    2.5386   44.7709   76.9966 C   0  0  0  0  0  0  0  0  0  0  0  0
    1.5915   45.3222   76.1266 N   0  0  0  0  0  0  0  0  0  0  0  0
    3.8166   45.5920   73.9322 C   0  0  0  0  0  0  0  0  0  0  0  0
    5.2406   45.7601   73.6170 N   0  0  0  0  0  0  0  0  0  0  0  0
    7.1762   43.4018   70.8267 C   0  0  0  0  0  0  0  0  0  0  0  0
    6.8379   44.7206   70.5332 C   0  0  0  0  0  0  0  0  0  0  0  0
    6.1675   45.5035   71.4710 C   0  0  0  0  0  0  0  0  0  0  0  0
    5.8684   44.9903   72.7286 C   0  0  0  0  0  0  0  0  0  0  0  0
    6.2134   43.6763   73.0266 C   0  0  0  0  0  0  0  0  0  0  0  0
    6.8523   42.8810   72.0764 C   0  0  0  0  0  0  0  0  0  0  0  0
   10.3632   39.7971   70.2212 C   0  0  0  0  0  0  0  0  0  0  0  0
  1  3  1  0  0  0  0
  2  1  1  1  0  0  0
  2  6  1  0  0  0  0
  2 34  1  0  0  0  0
  3  4  2  0  0  0  0
  3 28  1  0  0  0  0
  5 13  1  0  0  0  0
  6  7  1  0  0  0  0
  7  8  1  0  0  0  0
  8  9  1  0  0  0  0
  8 10  1  0  0  0  0
 11 13  2  0  0  0  0
 11 24  1  0  0  0  0
 12 34  1  0  0  0  0
 13 15  1  0  0  0  0
 14 34  1  0  0  0  0
 15 16  1  0  0  0  0
 16 17  1  0  0  0  0
 16 18  2  0  0  0  0
 17 20  1  0  0  0  0
 17 24  2  0  0  0  0
 19 21  1  0  0  0  0
 19 20  1  0  0  0  0
 20 22  1  0  0  0  0
 22 23  1  0  0  0  0
 22 26  1  6  0  0  0
 23 25  1  0  0  0  0
 24 25  1  0  0  0  0
 26 27  1  0  0  0  0
 27 31  1  0  0  0  0
 28 29  2  0  0  0  0
 28 33  1  0  0  0  0
 29 30  1  0  0  0  0
 30 31  2  0  0  0  0
 31 32  1  0  0  0  0
 32 33  2  0  0  0  0
M  END
>  <CHROM.1>
89.73284804,-69.18620479,69.93231606,177.44810844,-54.26311899,-85.67147834
-62.81836673,179.49821680,104.37801922,130.89724087,6.53863039,43.84237950
73.04323788,-0.24015374,-0.91281551,2.49109480

>  <Name>
ligand

>  <RI>
0

>  <Rbt.Current_Directory>
/home/itssahil/PROJECTS/Mol_Feturizer/New_Systems/rnas/3SUH

>  <Rbt.Executable>
rbdock ($Id: //depot/dev/client3/rdock/2013.1/src/exe/rbdock.cxx#4 $)

>  <Rbt.Library>
libRbt.so (2013.1, Build901 2013/11/27)

>  <Rbt.Parameter_File>
/export/apps/rDock/src/rDock_2013.1_src/data/scripts/dock_solv.prm

>  <Rbt.Receptor>
prm/pocket_docking_7.prm

>  <SCORE>
-10.8751

>  <SCORE.INTER>
-7.66532

>  <SCORE.INTER.CONST>
1

>  <SCORE.INTER.POLAR>
0

>  <SCORE.INTER.ROT>
10

>  <SCORE.INTER.SOLV>
7.36839

>  <SCORE.INTER.VDW>
-17.833

>  <SCORE.INTER.norm>
-0.225451

>  <SCORE.INTRA>
-3.20976

>  <SCORE.INTRA.DIHEDRAL>
-5.19681

>  <SCORE.INTRA.DIHEDRAL.0>
12.2703

>  <SCORE.INTRA.POLAR>
0

>  <SCORE.INTRA.POLAR.0>
0

>  <SCORE.INTRA.REPUL>
0

>  <SCORE.INTRA.REPUL.0>
0

>  <SCORE.INTRA.SOLV>
-0.380593

>  <SCORE.INTRA.SOLV.lig_0>
-64.3214

>  <SCORE.INTRA.VDW>
-0.421058

>  <SCORE.INTRA.VDW.0>
-1.67301

>  <SCORE.INTRA.norm>
-0.0944047

>  <SCORE.RESTR>
0

>  <SCORE.RESTR.CAVITY>
0

>  <SCORE.RESTR.norm>
0

>  <SCORE.SYSTEM>
0

>  <SCORE.SYSTEM.CONST>
0

>  <SCORE.SYSTEM.DIHEDRAL>
0

>  <SCORE.SYSTEM.SOLV>
0

>  <SCORE.SYSTEM.norm>
0

>  <SCORE.heavy>
34

>  <SCORE.norm>
-0.319855

>  <RMSD>
10.642

$$$$
ligand
 OpenBabel11021811483D
libRbt.so/2013.1/901 2013/11/27
 34 36  0  0  0  0  0  0  0  0999 V2000
    8.9116   41.3309   70.4511 N   0  0  0  0  0  0  0  0  0  0  0  0
    9.7940   40.7287   69.4246 C   0  0  1  0  0  0  0  0  0  0  0  0
    7.9436   40.6608   71.0898 C   0  0  0  0  0  0  0  0  0  0  0  0
    7.6769   39.4715   70.8956 O   0  0  0  0  0  0  0  0  0  0  0  0
    3.8140   40.9471   81.6359 N   0  0  0  0  0  0  0  0  0  0  0  0
   10.2679   41.8147   68.4442 C   0  0  0  0  0  0  0  0  0  0  0  0
    9.0853   42.5073   67.7535 C   0  0  0  0  0  0  0  0  0  0  0  0
    8.3267   43.4188   68.7302 C   0  0  0  0  0  0  0  0  0  0  0  0
    8.9012   44.4719   69.0934 O   0  0  0  0  0  0  0  0  0  0  0  0
    7.1873   43.0434   69.0903 O   0  0  0  0  0  0  0  0  0  0  0  0
    2.8497   41.9487   79.7851 N   0  0  0  0  0  0  0  0  0  0  0  0
   10.9001   39.6043   71.2302 O   0  0  0  0  0  0  0  0  0  0  0  0
    3.8790   41.8290   80.6416 C   0  0  0  0  0  0  0  0  0  0  0  0
   12.0388   39.9237   69.3354 O   0  0  0  0  0  0  0  0  0  0  0  0
    5.0234   42.6238   80.5000 N   0  0  0  0  0  0  0  0  0  0  0  0
    5.0821   43.5371   79.4559 C   0  0  0  0  0  0  0  0  0  0  0  0
    4.0153   43.6129   78.5701 C   0  0  0  0  0  0  0  0  0  0  0  0
    6.0794   44.2382   79.3049 O   0  0  0  0  0  0  0  0  0  0  0  0
    4.5851   45.7361   77.7519 C   0  0  0  0  0  0  0  0  0  0  0  0
    4.0000   44.5592   77.5514 N   0  0  0  0  0  0  0  0  0  0  0  0
    5.3816   46.1846   76.9304 O   0  0  0  0  0  0  0  0  0  0  0  0
    3.1767   44.3273   76.3595 C   0  0  2  0  0  0  0  0  0  0  0  0
    1.7662   43.9339   76.8055 C   0  0  0  0  0  0  0  0  0  0  0  0
    2.8894   42.8258   78.7707 C   0  0  0  0  0  0  0  0  0  0  0  0
    1.7974   42.9356   77.9027 N   0  0  0  0  0  0  0  0  0  0  0  0
    3.7860   43.2193   75.4936 C   0  0  0  0  0  0  0  0  0  0  0  0
    5.0747   43.6677   74.9520 N   0  0  0  0  0  0  0  0  0  0  0  0
    7.1899   41.4807   72.1526 C   0  0  0  0  0  0  0  0  0  0  0  0
    6.8880   42.8218   71.9291 C   0  0  0  0  0  0  0  0  0  0  0  0
    6.1573   43.5475   72.8678 C   0  0  0  0  0  0  0  0  0  0  0  0
    5.7595   42.9523   74.0602 C   0  0  0  0  0  0  0  0  0  0  0  0
    6.0678   41.6156   74.2890 C   0  0  0  0  0  0  0  0  0  0  0  0
    6.7680   40.8789   73.3348 C   0  0  0  0  0  0  0  0  0  0  0  0
   11.0137   40.0235   70.0529 C   0  0  0  0  0  0  0  0  0  0  0  0
  1  3  1  0  0  0  0
  2  1  1  1  0  0  0
  2  6  1  0  0  0  0
  2 34  1  0  0  0  0
  3  4  2  0  0  0  0
  3 28  1  0  0  0  0
  5 13  1  0  0  0  0
  6  7  1  0  0  0  0
  7  8  1  0  0  0  0
  8  9  1  0  0  0  0
  8 10  1  0  0  0  0
 11 13  2  0  0  0  0
 11 24  1  0  0  0  0
 12 34  1  0  0  0  0
 13 15  1  0  0  0  0
 14 34  1  0  0  0  0
 15 16  1  0  0  0  0
 16 17  1  0  0  0  0
 16 18  2  0  0  0  0
 17 20  1  0  0  0  0
 17 24  2  0  0  0  0
 19 21  1  0  0  0  0
 19 20  1  0  0  0  0
 20 22  1  0  0  0  0
 22 23  1  0  0  0  0
 22 26  1  1  0  0  0
 23 25  1  0  0  0  0
 24 25  1  0  0  0  0
 26 27  1  0  0  0  0
 27 31  1  0  0  0  0
 28 29  2  0  0  0  0
 28 33  1  0  0  0  0
 29 30  1  0  0  0  0
 30 31  2  0  0  0  0
 31 32  1  0  0  0  0
 32 33  2  0  0  0  0
M  END
>  <CHROM.1>
152.25916417,-58.66157662,25.50291477,71.72614707,71.02159136,130.00199256
-65.97921551,-173.31620189,126.29154684,38.42263928,6.35569581,42.55497425
74.25751221,-0.68819034,-0.84774895,2.11085002

>  <Name>
ligand

>  <RI>
0

>  <Rbt.Current_Directory>
/home/itssahil/PROJECTS/Mol_Feturizer/New_Systems/rnas/3SUH

>  <Rbt.Executable>
rbdock ($Id: //depot/dev/client3/rdock/2013.1/src/exe/rbdock.cxx#4 $)

>  <Rbt.Library>
libRbt.so (2013.1, Build901 2013/11/27)

>  <Rbt.Parameter_File>
/export/apps/rDock/src/rDock_2013.1_src/data/scripts/dock_solv.prm

>  <Rbt.Receptor>
prm/pocket_docking_4.prm

>  <SCORE>
-9.58049

>  <SCORE.INTER>
-5.96709

>  <SCORE.INTER.CONST>
1

>  <SCORE.INTER.POLAR>
0

>  <SCORE.INTER.ROT>
10

>  <SCORE.INTER.SOLV>
7.25292

>  <SCORE.INTER.VDW>
-16.6624

>  <SCORE.INTER.norm>
-0.175503

>  <SCORE.INTRA>
-3.6134

>  <SCORE.INTRA.DIHEDRAL>
-4.74638

>  <SCORE.INTRA.DIHEDRAL.0>
12.2703

>  <SCORE.INTRA.POLAR>
0

>  <SCORE.INTRA.POLAR.0>
0

>  <SCORE.INTRA.REPUL>
0

>  <SCORE.INTRA.REPUL.0>
0

>  <SCORE.INTRA.SOLV>
0.591263

>  <SCORE.INTRA.SOLV.lig_0>
-64.3214

>  <SCORE.INTRA.VDW>
-1.53584

>  <SCORE.INTRA.VDW.0>
-1.67301

>  <SCORE.INTRA.norm>
-0.106276

>  <SCORE.RESTR>
0

>  <SCORE.RESTR.CAVITY>
0

>  <SCORE.RESTR.norm>
0

>  <SCORE.SYSTEM>
0

>  <SCORE.SYSTEM.CONST>
0

>  <SCORE.SYSTEM.DIHEDRAL>
0

>  <SCORE.SYSTEM.SOLV>
0

>  <SCORE.SYSTEM.norm>
0

>  <SCORE.heavy>
34

>  <SCORE.norm>
-0.281779

>  <RMSD>
10.657

$$$$
ligand
 OpenBabel11021811483D
libRbt.so/2013.1/901 2013/11/27
 34 36  0  0  0  0  0  0  0  0999 V2000
    9.2079   42.6015   70.0966 N   0  0  0  0  0  0  0  0  0  0  0  0
   10.1013   42.5380   68.9165 C   0  0  1  0  0  0  0  0  0  0  0  0
    7.9309   43.0024   70.0456 C   0  0  0  0  0  0  0  0  0  0  0  0
    7.3566   43.3644   69.0149 O   0  0  0  0  0  0  0  0  0  0  0  0
    5.7711   39.9320   82.3882 N   0  0  0  0  0  0  0  0  0  0  0  0
   11.5539   42.3251   69.3748 C   0  0  0  0  0  0  0  0  0  0  0  0
   12.2436   43.6563   69.7029 C   0  0  0  0  0  0  0  0  0  0  0  0
   11.5261   44.3871   70.8481 C   0  0  0  0  0  0  0  0  0  0  0  0
   10.9819   45.4828   70.5755 O   0  0  0  0  0  0  0  0  0  0  0  0
   11.5354   43.8324   71.9710 O   0  0  0  0  0  0  0  0  0  0  0  0
    6.0964   39.6630   80.1122 N   0  0  0  0  0  0  0  0  0  0  0  0
   10.4441   41.1924   66.9621 O   0  0  0  0  0  0  0  0  0  0  0  0
    5.3424   40.0929   81.1389 C   0  0  0  0  0  0  0  0  0  0  0  0
    8.6246   40.8061   68.1988 O   0  0  0  0  0  0  0  0  0  0  0  0
    4.1066   40.7106   80.9092 N   0  0  0  0  0  0  0  0  0  0  0  0
    3.6718   40.8775   79.6012 C   0  0  0  0  0  0  0  0  0  0  0  0
    4.4893   40.4512   78.5628 C   0  0  0  0  0  0  0  0  0  0  0  0
    2.5961   41.4256   79.3740 O   0  0  0  0  0  0  0  0  0  0  0  0
    2.7723   40.3975   76.9655 C   0  0  0  0  0  0  0  0  0  0  0  0
    4.0657   40.5352   77.2411 N   0  0  0  0  0  0  0  0  0  0  0  0
    2.1290   39.4650   77.4420 O   0  0  0  0  0  0  0  0  0  0  0  0
    5.0597   40.5725   76.1628 C   0  0  2  0  0  0  0  0  0  0  0  0
    6.0617   39.4354   76.3786 C   0  0  0  0  0  0  0  0  0  0  0  0
    5.6918   39.8162   78.8422 C   0  0  0  0  0  0  0  0  0  0  0  0
    6.4934   39.3476   77.7954 N   0  0  0  0  0  0  0  0  0  0  0  0
    5.7859   41.9219   76.1487 C   0  0  0  0  0  0  0  0  0  0  0  0
    5.2709   42.7488   75.0504 N   0  0  0  0  0  0  0  0  0  0  0  0
    7.1836   42.9357   71.3898 C   0  0  0  0  0  0  0  0  0  0  0  0
    6.9602   41.7115   72.0154 C   0  0  0  0  0  0  0  0  0  0  0  0
    6.3330   41.6575   73.2585 C   0  0  0  0  0  0  0  0  0  0  0  0
    5.8822   42.8232   73.8686 C   0  0  0  0  0  0  0  0  0  0  0  0
    6.0965   44.0458   73.2412 C   0  0  0  0  0  0  0  0  0  0  0  0
    6.7556   44.1039   72.0141 C   0  0  0  0  0  0  0  0  0  0  0  0
    9.6913   41.4155   67.9410 C   0  0  0  0  0  0  0  0  0  0  0  0
  1  3  1  0  0  0  0
  2  1  1  1  0  0  0
  2  6  1  0  0  0  0
  2 34  1  0  0  0  0
  3  4  2  0  0  0  0
  3 28  1  0  0  0  0
  5 13  1  0  0  0  0
  6  7  1  0  0  0  0
  7  8  1  0  0  0  0
  8  9  1  0  0  0  0
  8 10  1  0  0  0  0
 11 13  2  0  0  0  0
 11 24  1  0  0  0  0
 12 34  1  0  0  0  0
 13 15  1  0  0  0  0
 14 34  1  0  0  0  0
 15 16  1  0  0  0  0
 16 17  1  0  0  0  0
 16 18  2  0  0  0  0
 17 20  1  0  0  0  0
 17 24  2  0  0  0  0
 19 21  1  0  0  0  0
 19 20  1  0  0  0  0
 20 22  1  0  0  0  0
 22 23  1  0  0  0  0
 22 26  1  1  0  0  0
 23 25  1  0  0  0  0
 24 25  1  0  0  0  0
 26 27  1  0  0  0  0
 27 31  1  0  0  0  0
 28 29  2  0  0  0  0
 28 33  1  0  0  0  0
 29 30  1  0  0  0  0
 30 31  2  0  0  0  0
 31 32  1  0  0  0  0
 32 33  2  0  0  0  0
M  END
>  <CHROM.1>
168.17955671,-86.00404519,-174.01482083,61.15595601,-115.06322992,-48.15928143
-103.68138211,-96.84528479,45.11613307,-64.34833543,6.96639027,41.73853009
74.16920642,1.04713839,-0.27578738,-1.47135166

>  <Name>
ligand

>  <RI>
0

>  <Rbt.Current_Directory>
/home/itssahil/PROJECTS/Mol_Feturizer/New_Systems/rnas/3SUH

>  <Rbt.Executable>
rbdock ($Id: //depot/dev/client3/rdock/2013.1/src/exe/rbdock.cxx#4 $)

>  <Rbt.Library>
libRbt.so (2013.1, Build901 2013/11/27)

>  <Rbt.Parameter_File>
/export/apps/rDock/src/rDock_2013.1_src/data/scripts/dock_solv.prm

>  <Rbt.Receptor>
prm/pocket_docking_2.prm

>  <SCORE>
-2.6973

>  <SCORE.INTER>
-2.38751

>  <SCORE.INTER.CONST>
1

>  <SCORE.INTER.POLAR>
0

>  <SCORE.INTER.ROT>
10

>  <SCORE.INTER.SOLV>
7.73649

>  <SCORE.INTER.VDW>
-14.4372

>  <SCORE.INTER.norm>
-0.0702208

>  <SCORE.INTRA>
-1.0993

>  <SCORE.INTRA.DIHEDRAL>
1.85423

>  <SCORE.INTRA.DIHEDRAL.0>
12.2703

>  <SCORE.INTRA.POLAR>
0

>  <SCORE.INTRA.POLAR.0>
0

>  <SCORE.INTRA.REPUL>
0

>  <SCORE.INTRA.REPUL.0>
0

>  <SCORE.INTRA.SOLV>
-0.612865

>  <SCORE.INTRA.SOLV.lig_0>
-64.3214

>  <SCORE.INTRA.VDW>
-1.71998

>  <SCORE.INTRA.VDW.0>
-1.67301

>  <SCORE.INTRA.norm>
-0.0323323

>  <SCORE.RESTR>
0.789503

>  <SCORE.RESTR.CAVITY>
0.789503

>  <SCORE.RESTR.norm>
0.0232207

>  <SCORE.SYSTEM>
0

>  <SCORE.SYSTEM.CONST>
0

>  <SCORE.SYSTEM.DIHEDRAL>
0

>  <SCORE.SYSTEM.SOLV>
0

>  <SCORE.SYSTEM.norm>
0

>  <SCORE.heavy>
34

>  <SCORE.norm>
-0.0793325

>  <RMSD>
10.661

$$$$
ligand
 OpenBabel11021811483D
libRbt.so/2013.1/901 2013/11/27
 34 36  0  0  0  0  0  0  0  0999 V2000
    9.8941   41.8717   69.9492 N   0  0  0  0  0  0  0  0  0  0  0  0
   10.3641   43.1651   69.4006 C   0  0  1  0  0  0  0  0  0  0  0  0
    8.6173   41.6121   70.2598 C   0  0  0  0  0  0  0  0  0  0  0  0
    7.6919   42.4178   70.1265 O   0  0  0  0  0  0  0  0  0  0  0  0
    1.6039   38.4154   75.4687 N   0  0  0  0  0  0  0  0  0  0  0  0
    9.8483   43.3381   67.9621 C   0  0  0  0  0  0  0  0  0  0  0  0
   10.7609   42.6372   66.9466 C   0  0  0  0  0  0  0  0  0  0  0  0
   12.0287   43.4617   66.6762 C   0  0  0  0  0  0  0  0  0  0  0  0
   12.6841   43.8469   67.6727 O   0  0  0  0  0  0  0  0  0  0  0  0
   12.3162   43.6865   65.4780 O   0  0  0  0  0  0  0  0  0  0  0  0
    3.3649   36.9133   75.5017 N   0  0  0  0  0  0  0  0  0  0  0  0
    8.7566   44.8127   70.0707 O   0  0  0  0  0  0  0  0  0  0  0  0
    2.4525   37.6245   74.8168 C   0  0  0  0  0  0  0  0  0  0  0  0
   10.7362   44.7936   71.1049 O   0  0  0  0  0  0  0  0  0  0  0  0
    2.3837   37.5433   73.4203 N   0  0  0  0  0  0  0  0  0  0  0  0
    3.2774   36.7186   72.7505 C   0  0  0  0  0  0  0  0  0  0  0  0
    4.2281   36.0225   73.4853 C   0  0  0  0  0  0  0  0  0  0  0  0
    3.2434   36.6385   71.5251 O   0  0  0  0  0  0  0  0  0  0  0  0
    4.6832   34.4608   71.7953 C   0  0  0  0  0  0  0  0  0  0  0  0
    5.0982   35.1329   72.8648 N   0  0  0  0  0  0  0  0  0  0  0  0
    5.3907   34.3848   70.7933 O   0  0  0  0  0  0  0  0  0  0  0  0
    6.3748   34.8013   73.5069 C   0  0  2  0  0  0  0  0  0  0  0  0
    6.1078   34.4266   74.9669 C   0  0  0  0  0  0  0  0  0  0  0  0
    4.2362   36.1116   74.8707 C   0  0  0  0  0  0  0  0  0  0  0  0
    5.1665   35.3749   75.6121 N   0  0  0  0  0  0  0  0  0  0  0  0
    7.3375   35.9914   73.4337 C   0  0  0  0  0  0  0  0  0  0  0  0
    7.6171   36.3153   72.0293 N   0  0  0  0  0  0  0  0  0  0  0  0
    8.3584   40.1813   70.7654 C   0  0  0  0  0  0  0  0  0  0  0  0
    7.1060   39.8198   71.2560 C   0  0  0  0  0  0  0  0  0  0  0  0
    6.8572   38.5101   71.6614 C   0  0  0  0  0  0  0  0  0  0  0  0
    7.8710   37.5587   71.6228 C   0  0  0  0  0  0  0  0  0  0  0  0
    9.1248   37.9202   71.1415 C   0  0  0  0  0  0  0  0  0  0  0  0
    9.3645   39.2214   70.7023 C   0  0  0  0  0  0  0  0  0  0  0  0
    9.9101   44.3589   70.2657 C   0  0  0  0  0  0  0  0  0  0  0  0
  1  3  1  0  0  0  0
  2  1  1  1  0  0  0
  2  6  1  0  0  0  0
  2 34  1  0  0  0  0
  3  4  2  0  0  0  0
  3 28  1  0  0  0  0
  5 13  1  0  0  0  0
  6  7  1  0  0  0  0
  7  8  1  0  0  0  0
  8  9  1  0  0  0  0
  8 10  1  0  0  0  0
 11 13  2  0  0  0  0
 11 24  1  0  0  0  0
 12 34  1  0  0  0  0
 13 15  1  0  0  0  0
 14 34  1  0  0  0  0
 15 16  1  0  0  0  0
 16 17  1  0  0  0  0
 16 18  2  0  0  0  0
 17 20  1  0  0  0  0
 17 24  2  0  0  0  0
 19 21  1  0  0  0  0
 19 20  1  0  0  0  0
 20 22  1  0  0  0  0
 22 23  1  0  0  0  0
 22 26  1  1  0  0  0
 23 25  1  0  0  0  0
 24 25  1  0  0  0  0
 26 27  1  0  0  0  0
 27 31  1  0  0  0  0
 28 29  2  0  0  0  0
 28 33  1  0  0  0  0
 29 30  1  0  0  0  0
 30 31  2  0  0  0  0
 31 32  1  0  0  0  0
 32 33  2  0  0  0  0
M  END
>  <CHROM.1>
-69.81812238,-84.12607546,-83.57923142,-77.67419735,51.09905530,133.34012528
-61.50903024,148.53476295,-67.94063904,173.18461079,7.24246754,39.19040026
71.40436954,0.73516750,0.68270119,-0.01171639

>  <Name>
ligand

>  <RI>
0

>  <Rbt.Current_Directory>
/home/itssahil/PROJECTS/Mol_Feturizer/New_Systems/rnas/3SUH

>  <Rbt.Executable>
rbdock ($Id: //depot/dev/client3/rdock/2013.1/src/exe/rbdock.cxx#4 $)

>  <Rbt.Library>
libRbt.so (2013.1, Build901 2013/11/27)

>  <Rbt.Parameter_File>
/export/apps/rDock/src/rDock_2013.1_src/data/scripts/dock_solv.prm

>  <Rbt.Receptor>
prm/pocket_docking_8.prm

>  <SCORE>
-12.1976

>  <SCORE.INTER>
-10.2415

>  <SCORE.INTER.CONST>
1

>  <SCORE.INTER.POLAR>
0

>  <SCORE.INTER.ROT>
10

>  <SCORE.INTER.SOLV>
8.45688

>  <SCORE.INTER.VDW>
-19.9133

>  <SCORE.INTER.norm>
-0.301221

>  <SCORE.INTRA>
-1.95609

>  <SCORE.INTRA.DIHEDRAL>
-2.00811

>  <SCORE.INTRA.DIHEDRAL.0>
12.2703

>  <SCORE.INTRA.POLAR>
0

>  <SCORE.INTRA.POLAR.0>
0

>  <SCORE.INTRA.REPUL>
0

>  <SCORE.INTRA.REPUL.0>
0

>  <SCORE.INTRA.SOLV>
0.543395

>  <SCORE.INTRA.SOLV.lig_0>
-64.3214

>  <SCORE.INTRA.VDW>
-1.22373

>  <SCORE.INTRA.VDW.0>
-1.67301

>  <SCORE.INTRA.norm>
-0.057532

>  <SCORE.RESTR>
0

>  <SCORE.RESTR.CAVITY>
0

>  <SCORE.RESTR.norm>
0

>  <SCORE.SYSTEM>
0

>  <SCORE.SYSTEM.CONST>
0

>  <SCORE.SYSTEM.DIHEDRAL>
0

>  <SCORE.SYSTEM.SOLV>
0

>  <SCORE.SYSTEM.norm>
0

>  <SCORE.heavy>
34

>  <SCORE.norm>
-0.358753

>  <RMSD>
10.667

$$$$
ligand
 OpenBabel11021811483D
libRbt.so/2013.1/901 2013/11/27
 34 36  0  0  0  0  0  0  0  0999 V2000
    9.5451   41.5170   70.0274 N   0  0  0  0  0  0  0  0  0  0  0  0
   10.4043   40.8463   69.0240 C   0  0  1  0  0  0  0  0  0  0  0  0
    8.2106   41.5895   69.9387 C   0  0  0  0  0  0  0  0  0  0  0  0
    7.5483   41.1095   69.0145 O   0  0  0  0  0  0  0  0  0  0  0  0
   -0.0657   40.1080   75.8511 N   0  0  0  0  0  0  0  0  0  0  0  0
   10.1864   41.4854   67.6423 C   0  0  0  0  0  0  0  0  0  0  0  0
   10.3611   43.0094   67.6909 C   0  0  0  0  0  0  0  0  0  0  0  0
   11.6929   43.4372   67.0558 C   0  0  0  0  0  0  0  0  0  0  0  0
   12.5814   43.8701   67.8267 O   0  0  0  0  0  0  0  0  0  0  0  0
   11.7943   43.3195   65.8130 O   0  0  0  0  0  0  0  0  0  0  0  0
    0.6454   42.2893   75.5437 N   0  0  0  0  0  0  0  0  0  0  0  0
   12.3322   42.0034   69.8557 O   0  0  0  0  0  0  0  0  0  0  0  0
    0.8717   41.0419   75.9910 C   0  0  0  0  0  0  0  0  0  0  0  0
   12.5747   39.8745   69.2249 O   0  0  0  0  0  0  0  0  0  0  0  0
    2.0866   40.7115   76.6046 N   0  0  0  0  0  0  0  0  0  0  0  0
    3.0592   41.6929   76.7407 C   0  0  0  0  0  0  0  0  0  0  0  0
    2.8058   42.9628   76.2391 C   0  0  0  0  0  0  0  0  0  0  0  0
    4.1367   41.4248   77.2663 O   0  0  0  0  0  0  0  0  0  0  0  0
    4.4709   44.0165   77.5117 C   0  0  0  0  0  0  0  0  0  0  0  0
    3.7217   43.9943   76.4135 N   0  0  0  0  0  0  0  0  0  0  0  0
    5.6821   44.2101   77.4364 O   0  0  0  0  0  0  0  0  0  0  0  0
    3.7084   45.1379   75.4947 C   0  0  2  0  0  0  0  0  0  0  0  0
    2.2722   45.6534   75.3723 C   0  0  0  0  0  0  0  0  0  0  0  0
    1.5739   43.2499   75.6669 C   0  0  0  0  0  0  0  0  0  0  0  0
    1.3043   44.5418   75.2021 N   0  0  0  0  0  0  0  0  0  0  0  0
    4.2420   44.7266   74.1181 C   0  0  0  0  0  0  0  0  0  0  0  0
    5.5985   44.1827   74.2562 N   0  0  0  0  0  0  0  0  0  0  0  0
    7.5261   42.2905   71.1261 C   0  0  0  0  0  0  0  0  0  0  0  0
    7.4238   43.6790   71.1649 C   0  0  0  0  0  0  0  0  0  0  0  0
    6.7551   44.3091   72.2126 C   0  0  0  0  0  0  0  0  0  0  0  0
    6.2208   43.5602   73.2557 C   0  0  0  0  0  0  0  0  0  0  0  0
    6.3299   42.1740   73.2230 C   0  0  0  0  0  0  0  0  0  0  0  0
    6.9676   41.5406   72.1573 C   0  0  0  0  0  0  0  0  0  0  0  0
   11.8981   40.9167   69.4027 C   0  0  0  0  0  0  0  0  0  0  0  0
  1  3  1  0  0  0  0
  2  1  1  1  0  0  0
  2  6  1  0  0  0  0
  2 34  1  0  0  0  0
  3  4  2  0  0  0  0
  3 28  1  0  0  0  0
  5 13  1  0  0  0  0
  6  7  1  0  0  0  0
  7  8  1  0  0  0  0
  8  9  1  0  0  0  0
  8 10  1  0  0  0  0
 11 13  2  0  0  0  0
 11 24  1  0  0  0  0
 12 34  1  0  0  0  0
 13 15  1  0  0  0  0
 14 34  1  0  0  0  0
 15 16  1  0  0  0  0
 16 17  1  0  0  0  0
 16 18  2  0  0  0  0
 17 20  1  0  0  0  0
 17 24  2  0  0  0  0
 19 21  1  0  0  0  0
 19 20  1  0  0  0  0
 20 22  1  0  0  0  0
 22 23  1  0  0  0  0
 22 26  1  6  0  0  0
 23 25  1  0  0  0  0
 24 25  1  0  0  0  0
 26 27  1  0  0  0  0
 27 31  1  0  0  0  0
 28 29  2  0  0  0  0
 28 33  1  0  0  0  0
 29 30  1  0  0  0  0
 30 31  2  0  0  0  0
 31 32  1  0  0  0  0
 32 33  2  0  0  0  0
M  END
>  <CHROM.1>
58.20462366,52.76087301,-42.12735026,105.46025240,-109.57040327,132.79356870
-57.49247746,169.39882466,76.07620413,83.66420609,6.46506218,42.65703554
72.63892058,0.26485993,-0.69906819,-2.84256398

>  <Name>
ligand

>  <RI>
0

>  <Rbt.Current_Directory>
/home/itssahil/PROJECTS/Mol_Feturizer/New_Systems/rnas/3SUH

>  <Rbt.Executable>
rbdock ($Id: //depot/dev/client3/rdock/2013.1/src/exe/rbdock.cxx#4 $)

>  <Rbt.Library>
libRbt.so (2013.1, Build901 2013/11/27)

>  <Rbt.Parameter_File>
/export/apps/rDock/src/rDock_2013.1_src/data/scripts/dock_solv.prm

>  <Rbt.Receptor>
prm/pocket_docking_8.prm

>  <SCORE>
-13.8466

>  <SCORE.INTER>
-12.0781

>  <SCORE.INTER.CONST>
1

>  <SCORE.INTER.POLAR>
0

>  <SCORE.INTER.ROT>
10

>  <SCORE.INTER.SOLV>
10.4588

>  <SCORE.INTER.VDW>
-21.805

>  <SCORE.INTER.norm>
-0.355237

>  <SCORE.INTRA>
-1.76854

>  <SCORE.INTRA.DIHEDRAL>
-0.315134

>  <SCORE.INTRA.DIHEDRAL.0>
12.2703

>  <SCORE.INTRA.POLAR>
0

>  <SCORE.INTRA.POLAR.0>
0

>  <SCORE.INTRA.REPUL>
0

>  <SCORE.INTRA.REPUL.0>
0

>  <SCORE.INTRA.SOLV>
0.405996

>  <SCORE.INTRA.SOLV.lig_0>
-64.3214

>  <SCORE.INTRA.VDW>
-1.81397

>  <SCORE.INTRA.VDW.0>
-1.67301

>  <SCORE.INTRA.norm>
-0.0520159

>  <SCORE.RESTR>
0

>  <SCORE.RESTR.CAVITY>
0

>  <SCORE.RESTR.norm>
0

>  <SCORE.SYSTEM>
0

>  <SCORE.SYSTEM.CONST>
0

>  <SCORE.SYSTEM.DIHEDRAL>
0

>  <SCORE.SYSTEM.SOLV>
0

>  <SCORE.SYSTEM.norm>
0

>  <SCORE.heavy>
34

>  <SCORE.norm>
-0.407253

>  <RMSD>
10.668

$$$$
ligand
 OpenBabel11021811483D
libRbt.so/2013.1/901 2013/11/27
 34 36  0  0  0  0  0  0  0  0999 V2000
    8.6333   42.3621   69.6557 N   0  0  0  0  0  0  0  0  0  0  0  0
    9.0890   43.3393   68.6397 C   0  0  1  0  0  0  0  0  0  0  0  0
    8.2195   41.1216   69.3657 C   0  0  0  0  0  0  0  0  0  0  0  0
    8.1694   40.6546   68.2244 O   0  0  0  0  0  0  0  0  0  0  0  0
    1.6624   40.9100   77.9347 N   0  0  0  0  0  0  0  0  0  0  0  0
    9.2884   44.7162   69.2952 C   0  0  0  0  0  0  0  0  0  0  0  0
    7.9482   45.3616   69.6728 C   0  0  0  0  0  0  0  0  0  0  0  0
    8.1454   46.7998   70.1755 C   0  0  0  0  0  0  0  0  0  0  0  0
    8.0394   47.7205   69.3316 O   0  0  0  0  0  0  0  0  0  0  0  0
    8.3953   46.9473   71.3940 O   0  0  0  0  0  0  0  0  0  0  0  0
    3.7551   39.9232   78.0075 N   0  0  0  0  0  0  0  0  0  0  0  0
   10.4533   42.9718   66.7028 O   0  0  0  0  0  0  0  0  0  0  0  0
    2.5216   40.0021   77.4788 C   0  0  0  0  0  0  0  0  0  0  0  0
   11.3131   42.4765   68.7039 O   0  0  0  0  0  0  0  0  0  0  0  0
    2.1279   39.1373   76.4497 N   0  0  0  0  0  0  0  0  0  0  0  0
    3.0345   38.1973   75.9785 C   0  0  0  0  0  0  0  0  0  0  0  0
    4.3109   38.1637   76.5244 C   0  0  0  0  0  0  0  0  0  0  0  0
    2.7159   37.4346   75.0697 O   0  0  0  0  0  0  0  0  0  0  0  0
    4.7895   35.9912   75.7806 C   0  0  0  0  0  0  0  0  0  0  0  0
    5.2289   37.1957   76.1325 N   0  0  0  0  0  0  0  0  0  0  0  0
    4.4587   35.1735   76.6363 O   0  0  0  0  0  0  0  0  0  0  0  0
    6.6642   37.4473   76.3027 C   0  0  2  0  0  0  0  0  0  0  0  0
    6.9115   37.9346   77.7327 C   0  0  0  0  0  0  0  0  0  0  0  0
    4.6437   39.0210   77.5644 C   0  0  0  0  0  0  0  0  0  0  0  0
    5.9161   38.9555   78.1430 N   0  0  0  0  0  0  0  0  0  0  0  0
    7.1484   38.4958   75.2953 C   0  0  0  0  0  0  0  0  0  0  0  0
    6.9211   38.0101   73.9287 N   0  0  0  0  0  0  0  0  0  0  0  0
    7.8429   40.2684   70.5905 C   0  0  0  0  0  0  0  0  0  0  0  0
    8.4196   39.0156   70.7847 C   0  0  0  0  0  0  0  0  0  0  0  0
    8.1199   38.2686   71.9222 C   0  0  0  0  0  0  0  0  0  0  0  0
    7.2059   38.7466   72.8552 C   0  0  0  0  0  0  0  0  0  0  0  0
    6.6223   39.9936   72.6584 C   0  0  0  0  0  0  0  0  0  0  0  0
    6.9486   40.7573   71.5386 C   0  0  0  0  0  0  0  0  0  0  0  0
   10.3966   42.8927   67.9539 C   0  0  0  0  0  0  0  0  0  0  0  0
  1  3  1  0  0  0  0
  2  1  1  1  0  0  0
  2  6  1  0  0  0  0
  2 34  1  0  0  0  0
  3  4  2  0  0  0  0
  3 28  1  0  0  0  0
  5 13  1  0  0  0  0
  6  7  1  0  0  0  0
  7  8  1  0  0  0  0
  8  9  1  0  0  0  0
  8 10  1  0  0  0  0
 11 13  2  0  0  0  0
 11 24  1  0  0  0  0
 12 34  1  0  0  0  0
 13 15  1  0  0  0  0
 14 34  1  0  0  0  0
 15 16  1  0  0  0  0
 16 17  1  0  0  0  0
 16 18  2  0  0  0  0
 17 20  1  0  0  0  0
 17 24  2  0  0  0  0
 19 21  1  0  0  0  0
 19 20  1  0  0  0  0
 20 22  1  0  0  0  0
 22 23  1  0  0  0  0
 22 26  1  6  0  0  0
 23 25  1  0  0  0  0
 24 25  1  0  0  0  0
 26 27  1  0  0  0  0
 27 31  1  0  0  0  0
 28 29  2  0  0  0  0
 28 33  1  0  0  0  0
 29 30  1  0  0  0  0
 30 31  2  0  0  0  0
 31 32  1  0  0  0  0
 32 33  2  0  0  0  0
M  END
>  <CHROM.1>
171.61971948,-71.03023639,133.50074817,-173.41812368,93.57737594,-77.88145793
-60.51595775,177.47599646,120.54312904,-126.27577699,6.67391546,40.53910980
73.02701754,-0.75187420,-0.91464762,2.92669432

>  <Name>
ligand

>  <RI>
0

>  <Rbt.Current_Directory>
/home/itssahil/PROJECTS/Mol_Feturizer/New_Systems/rnas/3SUH

>  <Rbt.Executable>
rbdock ($Id: //depot/dev/client3/rdock/2013.1/src/exe/rbdock.cxx#4 $)

>  <Rbt.Library>
libRbt.so (2013.1, Build901 2013/11/27)

>  <Rbt.Parameter_File>
/export/apps/rDock/src/rDock_2013.1_src/data/scripts/dock_solv.prm

>  <Rbt.Receptor>
prm/pocket_docking_8.prm

>  <SCORE>
-11.16

>  <SCORE.INTER>
-6.22273

>  <SCORE.INTER.CONST>
1

>  <SCORE.INTER.POLAR>
0

>  <SCORE.INTER.ROT>
10

>  <SCORE.INTER.SOLV>
6.2945

>  <SCORE.INTER.VDW>
-16.5133

>  <SCORE.INTER.norm>
-0.183022

>  <SCORE.INTRA>
-4.93731

>  <SCORE.INTRA.DIHEDRAL>
-5.34482

>  <SCORE.INTRA.DIHEDRAL.0>
12.2703

>  <SCORE.INTRA.POLAR>
0

>  <SCORE.INTRA.POLAR.0>
0

>  <SCORE.INTRA.REPUL>
0

>  <SCORE.INTRA.REPUL.0>
0

>  <SCORE.INTRA.SOLV>
-0.526977

>  <SCORE.INTRA.SOLV.lig_0>
-64.3214

>  <SCORE.INTRA.VDW>
-2.00141

>  <SCORE.INTRA.VDW.0>
-1.67301

>  <SCORE.INTRA.norm>
-0.145215

>  <SCORE.RESTR>
0

>  <SCORE.RESTR.CAVITY>
0

>  <SCORE.RESTR.norm>
0

>  <SCORE.SYSTEM>
0

>  <SCORE.SYSTEM.CONST>
0

>  <SCORE.SYSTEM.DIHEDRAL>
0

>  <SCORE.SYSTEM.SOLV>
0

>  <SCORE.SYSTEM.norm>
0

>  <SCORE.heavy>
34

>  <SCORE.norm>
-0.328236

>  <RMSD>
10.676

$$$$
ligand
 OpenBabel11021811483D
libRbt.so/2013.1/901 2013/11/27
 34 36  0  0  0  0  0  0  0  0999 V2000
   10.5215   42.8840   70.1195 N   0  0  0  0  0  0  0  0  0  0  0  0
   11.6168   43.1829   69.1677 C   0  0  1  0  0  0  0  0  0  0  0  0
   10.1337   41.6443   70.4461 C   0  0  0  0  0  0  0  0  0  0  0  0
   10.6413   40.6149   69.9922 O   0  0  0  0  0  0  0  0  0  0  0  0
    0.5783   40.5217   78.6801 N   0  0  0  0  0  0  0  0  0  0  0  0
   11.0314   43.4745   67.7758 C   0  0  0  0  0  0  0  0  0  0  0  0
   10.1864   42.3012   67.2613 C   0  0  0  0  0  0  0  0  0  0  0  0
    8.8468   42.2109   68.0080 C   0  0  0  0  0  0  0  0  0  0  0  0
    8.3446   41.0708   68.1463 O   0  0  0  0  0  0  0  0  0  0  0  0
    8.3554   43.2842   68.4265 O   0  0  0  0  0  0  0  0  0  0  0  0
    2.2038   42.0449   78.0509 N   0  0  0  0  0  0  0  0  0  0  0  0
   13.0795   44.2657   70.7285 O   0  0  0  0  0  0  0  0  0  0  0  0
    1.8238   40.7773   78.2878 C   0  0  0  0  0  0  0  0  0  0  0  0
   12.5087   45.3773   68.8772 O   0  0  0  0  0  0  0  0  0  0  0  0
    2.7258   39.7181   78.1259 N   0  0  0  0  0  0  0  0  0  0  0  0
    4.0213   39.9964   77.7114 C   0  0  0  0  0  0  0  0  0  0  0  0
    4.3721   41.3132   77.4444 C   0  0  0  0  0  0  0  0  0  0  0  0
    4.8276   39.0833   77.5525 O   0  0  0  0  0  0  0  0  0  0  0  0
    6.6828   40.9394   77.5960 C   0  0  0  0  0  0  0  0  0  0  0  0
    5.6755   41.6470   77.0936 N   0  0  0  0  0  0  0  0  0  0  0  0
    6.7267   40.6832   78.7972 O   0  0  0  0  0  0  0  0  0  0  0  0
    5.9304   42.8826   76.3450 C   0  0  2  0  0  0  0  0  0  0  0  0
    5.2044   44.0371   77.0403 C   0  0  0  0  0  0  0  0  0  0  0  0
    3.4515   42.3320   77.6498 C   0  0  0  0  0  0  0  0  0  0  0  0
    3.8205   43.6624   77.4226 N   0  0  0  0  0  0  0  0  0  0  0  0
    5.4418   42.7447   74.8990 C   0  0  0  0  0  0  0  0  0  0  0  0
    5.9817   41.5130   74.3103 N   0  0  0  0  0  0  0  0  0  0  0  0
    9.0093   41.5796   71.4955 C   0  0  0  0  0  0  0  0  0  0  0  0
    9.2797   41.8287   72.8389 C   0  0  0  0  0  0  0  0  0  0  0  0
    8.2513   41.8246   73.7791 C   0  0  0  0  0  0  0  0  0  0  0  0
    6.9486   41.5270   73.3934 C   0  0  0  0  0  0  0  0  0  0  0  0
    6.6782   41.2693   72.0537 C   0  0  0  0  0  0  0  0  0  0  0  0
    7.7005   41.3082   71.1066 C   0  0  0  0  0  0  0  0  0  0  0  0
   12.4773   44.3757   69.6331 C   0  0  0  0  0  0  0  0  0  0  0  0
  1  3  1  0  0  0  0
  2  1  1  1  0  0  0
  2  6  1  0  0  0  0
  2 34  1  0  0  0  0
  3  4  2  0  0  0  0
  3 28  1  0  0  0  0
  5 13  1  0  0  0  0
  6  7  1  0  0  0  0
  7  8  1  0  0  0  0
  8  9  1  0  0  0  0
  8 10  1  0  0  0  0
 11 13  2  0  0  0  0
 11 24  1  0  0  0  0
 12 34  1  0  0  0  0
 13 15  1  0  0  0  0
 14 34  1  0  0  0  0
 15 16  1  0  0  0  0
 16 17  1  0  0  0  0
 16 18  2  0  0  0  0
 17 20  1  0  0  0  0
 17 24  2  0  0  0  0
 19 21  1  0  0  0  0
 19 20  1  0  0  0  0
 20 22  1  0  0  0  0
 22 23  1  0  0  0  0
 22 26  1  6  0  0  0
 23 25  1  0  0  0  0
 24 25  1  0  0  0  0
 26 27  1  0  0  0  0
 27 31  1  0  0  0  0
 28 29  2  0  0  0  0
 28 33  1  0  0  0  0
 29 30  1  0  0  0  0
 30 31  2  0  0  0  0
 31 32  1  0  0  0  0
 32 33  2  0  0  0  0
M  END
>  <CHROM.1>
97.16526503,-57.47783933,61.09616477,73.07294319,-149.37392217,-47.30693070
-50.91835134,-107.33270356,73.56230370,-75.33899029,7.26515913,42.01227847
73.49660643,-0.79034305,0.49508750,1.33040432

>  <Name>
ligand

>  <RI>
0

>  <Rbt.Current_Directory>
/home/itssahil/PROJECTS/Mol_Feturizer/New_Systems/rnas/3SUH

>  <Rbt.Executable>
rbdock ($Id: //depot/dev/client3/rdock/2013.1/src/exe/rbdock.cxx#4 $)

>  <Rbt.Library>
libRbt.so (2013.1, Build901 2013/11/27)

>  <Rbt.Parameter_File>
/export/apps/rDock/src/rDock_2013.1_src/data/scripts/dock_solv.prm

>  <Rbt.Receptor>
prm/pocket_docking_2.prm

>  <SCORE>
-3.48636

>  <SCORE.INTER>
-3.31809

>  <SCORE.INTER.CONST>
1

>  <SCORE.INTER.POLAR>
0

>  <SCORE.INTER.ROT>
10

>  <SCORE.INTER.SOLV>
6.13653

>  <SCORE.INTER.VDW>
-14.5242

>  <SCORE.INTER.norm>
-0.0975908

>  <SCORE.INTRA>
-1.57383

>  <SCORE.INTRA.DIHEDRAL>
-2.91437

>  <SCORE.INTRA.DIHEDRAL.0>
12.2703

>  <SCORE.INTRA.POLAR>
0

>  <SCORE.INTRA.POLAR.0>
0

>  <SCORE.INTRA.REPUL>
0

>  <SCORE.INTRA.REPUL.0>
0

>  <SCORE.INTRA.SOLV>
0.929428

>  <SCORE.INTRA.SOLV.lig_0>
-64.3214

>  <SCORE.INTRA.VDW>
-0.581359

>  <SCORE.INTRA.VDW.0>
-1.67301

>  <SCORE.INTRA.norm>
-0.0462892

>  <SCORE.RESTR>
1.40556

>  <SCORE.RESTR.CAVITY>
1.40556

>  <SCORE.RESTR.norm>
0.0413401

>  <SCORE.SYSTEM>
0

>  <SCORE.SYSTEM.CONST>
0

>  <SCORE.SYSTEM.DIHEDRAL>
0

>  <SCORE.SYSTEM.SOLV>
0

>  <SCORE.SYSTEM.norm>
0

>  <SCORE.heavy>
34

>  <SCORE.norm>
-0.10254

>  <RMSD>
10.698

$$$$
ligand
 OpenBabel11021811483D
libRbt.so/2013.1/901 2013/11/27
 34 36  0  0  0  0  0  0  0  0999 V2000
    8.1025   42.3199   69.7672 N   0  0  0  0  0  0  0  0  0  0  0  0
    8.4235   43.3474   68.7493 C   0  0  1  0  0  0  0  0  0  0  0  0
    8.1313   41.0015   69.5322 C   0  0  0  0  0  0  0  0  0  0  0  0
    8.4254   40.4954   68.4456 O   0  0  0  0  0  0  0  0  0  0  0  0
    4.2175   36.4906   81.1488 N   0  0  0  0  0  0  0  0  0  0  0  0
    8.1479   44.7487   69.3201 C   0  0  0  0  0  0  0  0  0  0  0  0
    8.9530   45.0052   70.6012 C   0  0  0  0  0  0  0  0  0  0  0  0
    8.7032   46.4217   71.1409 C   0  0  0  0  0  0  0  0  0  0  0  0
    7.7906   46.5582   71.9891 O   0  0  0  0  0  0  0  0  0  0  0  0
    9.4327   47.3371   70.6951 O   0  0  0  0  0  0  0  0  0  0  0  0
    4.1451   36.7394   78.8485 N   0  0  0  0  0  0  0  0  0  0  0  0
   10.0973   43.1733   67.0418 O   0  0  0  0  0  0  0  0  0  0  0  0
    4.4066   37.2426   80.0675 C   0  0  0  0  0  0  0  0  0  0  0  0
   10.7712   43.2637   69.1694 O   0  0  0  0  0  0  0  0  0  0  0  0
    4.8777   38.5534   80.2142 N   0  0  0  0  0  0  0  0  0  0  0  0
    5.0759   39.3270   79.0785 C   0  0  0  0  0  0  0  0  0  0  0  0
    4.8267   38.7662   77.8327 C   0  0  0  0  0  0  0  0  0  0  0  0
    5.4981   40.4761   79.1808 O   0  0  0  0  0  0  0  0  0  0  0  0
    4.6645   40.8228   76.7164 C   0  0  0  0  0  0  0  0  0  0  0  0
    4.9452   39.5239   76.6729 N   0  0  0  0  0  0  0  0  0  0  0  0
    3.4984   41.2073   76.7691 O   0  0  0  0  0  0  0  0  0  0  0  0
    5.1798   38.8526   75.3898 C   0  0  2  0  0  0  0  0  0  0  0  0
    4.1662   37.7156   75.2375 C   0  0  0  0  0  0  0  0  0  0  0  0
    4.3310   37.4727   77.7405 C   0  0  0  0  0  0  0  0  0  0  0  0
    4.0385   36.9250   76.4866 N   0  0  0  0  0  0  0  0  0  0  0  0
    6.6079   38.3002   75.3263 C   0  0  0  0  0  0  0  0  0  0  0  0
    6.8610   37.7364   73.9946 N   0  0  0  0  0  0  0  0  0  0  0  0
    7.8108   40.1248   70.7563 C   0  0  0  0  0  0  0  0  0  0  0  0
    6.8979   40.5555   71.7159 C   0  0  0  0  0  0  0  0  0  0  0  0
    6.5672   39.7370   72.7940 C   0  0  0  0  0  0  0  0  0  0  0  0
    7.1795   38.4978   72.9483 C   0  0  0  0  0  0  0  0  0  0  0  0
    8.0980   38.0698   71.9958 C   0  0  0  0  0  0  0  0  0  0  0  0
    8.4030   38.8730   70.8977 C   0  0  0  0  0  0  0  0  0  0  0  0
    9.8890   43.2546   68.2765 C   0  0  0  0  0  0  0  0  0  0  0  0
  1  3  1  0  0  0  0
  2  1  1  1  0  0  0
  2  6  1  0  0  0  0
  2 34  1  0  0  0  0
  3  4  2  0  0  0  0
  3 28  1  0  0  0  0
  5 13  1  0  0  0  0
  6  7  1  0  0  0  0
  7  8  1  0  0  0  0
  8  9  1  0  0  0  0
  8 10  1  0  0  0  0
 11 13  2  0  0  0  0
 11 24  1  0  0  0  0
 12 34  1  0  0  0  0
 13 15  1  0  0  0  0
 14 34  1  0  0  0  0
 15 16  1  0  0  0  0
 16 17  1  0  0  0  0
 16 18  2  0  0  0  0
 17 20  1  0  0  0  0
 17 24  2  0  0  0  0
 19 21  1  0  0  0  0
 19 20  1  0  0  0  0
 20 22  1  0  0  0  0
 22 23  1  0  0  0  0
 22 26  1  1  0  0  0
 23 25  1  0  0  0  0
 24 25  1  0  0  0  0
 26 27  1  0  0  0  0
 27 31  1  0  0  0  0
 28 29  2  0  0  0  0
 28 33  1  0  0  0  0
 29 30  1  0  0  0  0
 30 31  2  0  0  0  0
 31 32  1  0  0  0  0
 32 33  2  0  0  0  0
M  END
>  <CHROM.1>
174.16103812,57.62967356,126.91427741,178.31952988,92.47867018,-75.11495429
-175.11395106,80.57376129,-38.11197693,33.74147148,6.76407517,40.66911784
73.68935532,-0.25260702,-1.15943430,-2.85620549

>  <Name>
ligand

>  <RI>
0

>  <Rbt.Current_Directory>
/home/itssahil/PROJECTS/Mol_Feturizer/New_Systems/rnas/3SUH

>  <Rbt.Executable>
rbdock ($Id: //depot/dev/client3/rdock/2013.1/src/exe/rbdock.cxx#4 $)

>  <Rbt.Library>
libRbt.so (2013.1, Build901 2013/11/27)

>  <Rbt.Parameter_File>
/export/apps/rDock/src/rDock_2013.1_src/data/scripts/dock_solv.prm

>  <Rbt.Receptor>
prm/pocket_docking_5.prm

>  <SCORE>
-7.50294

>  <SCORE.INTER>
-3.69937

>  <SCORE.INTER.CONST>
1

>  <SCORE.INTER.POLAR>
0

>  <SCORE.INTER.ROT>
10

>  <SCORE.INTER.SOLV>
7.3802

>  <SCORE.INTER.VDW>
-15.193

>  <SCORE.INTER.norm>
-0.108805

>  <SCORE.INTRA>
-3.80357

>  <SCORE.INTRA.DIHEDRAL>
-5.71593

>  <SCORE.INTRA.DIHEDRAL.0>
12.2703

>  <SCORE.INTRA.POLAR>
0

>  <SCORE.INTRA.POLAR.0>
0

>  <SCORE.INTRA.REPUL>
0

>  <SCORE.INTRA.REPUL.0>
0

>  <SCORE.INTRA.SOLV>
-0.788813

>  <SCORE.INTRA.SOLV.lig_0>
-64.3214

>  <SCORE.INTRA.VDW>
-0.551193

>  <SCORE.INTRA.VDW.0>
-1.67301

>  <SCORE.INTRA.norm>
-0.11187

>  <SCORE.RESTR>
0

>  <SCORE.RESTR.CAVITY>
0

>  <SCORE.RESTR.norm>
0

>  <SCORE.SYSTEM>
0

>  <SCORE.SYSTEM.CONST>
0

>  <SCORE.SYSTEM.DIHEDRAL>
0

>  <SCORE.SYSTEM.SOLV>
0

>  <SCORE.SYSTEM.norm>
0

>  <SCORE.heavy>
34

>  <SCORE.norm>
-0.220675

>  <RMSD>
10.705

$$$$
ligand
 OpenBabel11021811483D
libRbt.so/2013.1/901 2013/11/27
 34 36  0  0  0  0  0  0  0  0999 V2000
    9.5077   43.4560   71.4134 N   0  0  0  0  0  0  0  0  0  0  0  0
   10.4953   43.1158   70.3627 C   0  0  1  0  0  0  0  0  0  0  0  0
    8.1998   43.1807   71.3261 C   0  0  0  0  0  0  0  0  0  0  0  0
    7.6709   42.6165   70.3642 O   0  0  0  0  0  0  0  0  0  0  0  0
    6.4093   38.5554   80.7561 N   0  0  0  0  0  0  0  0  0  0  0  0
   10.3500   44.0863   69.1785 C   0  0  0  0  0  0  0  0  0  0  0  0
    9.9296   43.3545   67.8967 C   0  0  0  0  0  0  0  0  0  0  0  0
   11.0387   42.4119   67.4051 C   0  0  0  0  0  0  0  0  0  0  0  0
   11.8711   42.8816   66.5942 O   0  0  0  0  0  0  0  0  0  0  0  0
   11.0311   41.2423   67.8532 O   0  0  0  0  0  0  0  0  0  0  0  0
    6.2065   39.6534   78.7284 N   0  0  0  0  0  0  0  0  0  0  0  0
   12.3555   44.2364   71.3783 O   0  0  0  0  0  0  0  0  0  0  0  0
    5.6815   39.2768   79.9073 C   0  0  0  0  0  0  0  0  0  0  0  0
   12.6060   42.0928   70.8028 O   0  0  0  0  0  0  0  0  0  0  0  0
    4.3731   39.6358   80.2549 N   0  0  0  0  0  0  0  0  0  0  0  0
    3.6249   40.3929   79.3635 C   0  0  0  0  0  0  0  0  0  0  0  0
    4.2082   40.7925   78.1683 C   0  0  0  0  0  0  0  0  0  0  0  0
    2.4786   40.7287   79.6502 O   0  0  0  0  0  0  0  0  0  0  0  0
    2.1731   41.2532   77.0967 C   0  0  0  0  0  0  0  0  0  0  0  0
    3.4755   41.4924   77.2162 N   0  0  0  0  0  0  0  0  0  0  0  0
    1.4161   42.1220   76.6696 O   0  0  0  0  0  0  0  0  0  0  0  0
    4.1753   42.3268   76.2332 C   0  0  2  0  0  0  0  0  0  0  0  0
    5.3042   41.5051   75.6059 C   0  0  0  0  0  0  0  0  0  0  0  0
    5.4979   40.3851   77.8552 C   0  0  0  0  0  0  0  0  0  0  0  0
    6.0678   40.7517   76.6310 N   0  0  0  0  0  0  0  0  0  0  0  0
    4.7441   43.5824   76.9030 C   0  0  0  0  0  0  0  0  0  0  0  0
    5.1092   44.5673   75.8773 N   0  0  0  0  0  0  0  0  0  0  0  0
    7.3761   43.5819   72.5632 C   0  0  0  0  0  0  0  0  0  0  0  0
    6.1051   44.1330   72.4189 C   0  0  0  0  0  0  0  0  0  0  0  0
    5.3385   44.4440   73.5402 C   0  0  0  0  0  0  0  0  0  0  0  0
    5.8523   44.2491   74.8179 C   0  0  0  0  0  0  0  0  0  0  0  0
    7.1248   43.7072   74.9637 C   0  0  0  0  0  0  0  0  0  0  0  0
    7.8785   43.3626   73.8427 C   0  0  0  0  0  0  0  0  0  0  0  0
   11.9425   43.1543   70.8956 C   0  0  0  0  0  0  0  0  0  0  0  0
  1  3  1  0  0  0  0
  2  1  1  1  0  0  0
  2  6  1  0  0  0  0
  2 34  1  0  0  0  0
  3  4  2  0  0  0  0
  3 28  1  0  0  0  0
  5 13  1  0  0  0  0
  6  7  1  0  0  0  0
  7  8  1  0  0  0  0
  8  9  1  0  0  0  0
  8 10  1  0  0  0  0
 11 13  2  0  0  0  0
 11 24  1  0  0  0  0
 12 34  1  0  0  0  0
 13 15  1  0  0  0  0
 14 34  1  0  0  0  0
 15 16  1  0  0  0  0
 16 17  1  0  0  0  0
 16 18  2  0  0  0  0
 17 20  1  0  0  0  0
 17 24  2  0  0  0  0
 19 21  1  0  0  0  0
 19 20  1  0  0  0  0
 20 22  1  0  0  0  0
 22 23  1  0  0  0  0
 22 26  1  1  0  0  0
 23 25  1  0  0  0  0
 24 25  1  0  0  0  0
 26 27  1  0  0  0  0
 27 31  1  0  0  0  0
 28 29  2  0  0  0  0
 28 33  1  0  0  0  0
 29 30  1  0  0  0  0
 30 31  2  0  0  0  0
 31 32  1  0  0  0  0
 32 33  2  0  0  0  0
M  END
>  <CHROM.1>
75.07536070,-116.81783775,-58.85623768,-66.73954976,-90.99708951,153.12439020
-164.62502315,-49.61292125,121.21419248,140.57216430,7.03674281,42.22713216
74.17620611,0.89151504,0.40989209,-1.02508681

>  <Name>
ligand

>  <RI>
0

>  <Rbt.Current_Directory>
/home/itssahil/PROJECTS/Mol_Feturizer/New_Systems/rnas/3SUH

>  <Rbt.Executable>
rbdock ($Id: //depot/dev/client3/rdock/2013.1/src/exe/rbdock.cxx#4 $)

>  <Rbt.Library>
libRbt.so (2013.1, Build901 2013/11/27)

>  <Rbt.Parameter_File>
/export/apps/rDock/src/rDock_2013.1_src/data/scripts/dock_solv.prm

>  <Rbt.Receptor>
prm/pocket_docking_2.prm

>  <SCORE>
3.37701

>  <SCORE.INTER>
3.21091

>  <SCORE.INTER.CONST>
1

>  <SCORE.INTER.POLAR>
0

>  <SCORE.INTER.ROT>
10

>  <SCORE.INTER.SOLV>
5.01576

>  <SCORE.INTER.VDW>
-9.79798

>  <SCORE.INTER.norm>
0.0944386

>  <SCORE.INTRA>
-0.670654

>  <SCORE.INTRA.DIHEDRAL>
0.823433

>  <SCORE.INTRA.DIHEDRAL.0>
12.2703

>  <SCORE.INTRA.POLAR>
0

>  <SCORE.INTRA.POLAR.0>
0

>  <SCORE.INTRA.REPUL>
0

>  <SCORE.INTRA.REPUL.0>
0

>  <SCORE.INTRA.SOLV>
-0.707389

>  <SCORE.INTRA.SOLV.lig_0>
-64.3214

>  <SCORE.INTRA.VDW>
-0.728676

>  <SCORE.INTRA.VDW.0>
-1.67301

>  <SCORE.INTRA.norm>
-0.0197251

>  <SCORE.RESTR>
0.836754

>  <SCORE.RESTR.CAVITY>
0.836754

>  <SCORE.RESTR.norm>
0.0246104

>  <SCORE.SYSTEM>
0

>  <SCORE.SYSTEM.CONST>
0

>  <SCORE.SYSTEM.DIHEDRAL>
0

>  <SCORE.SYSTEM.SOLV>
0

>  <SCORE.SYSTEM.norm>
0

>  <SCORE.heavy>
34

>  <SCORE.norm>
0.0993239

>  <RMSD>
10.721

$$$$
ligand
 OpenBabel11021811483D
libRbt.so/2013.1/901 2013/11/27
 34 36  0  0  0  0  0  0  0  0999 V2000
    9.0950   42.4401   69.3069 N   0  0  0  0  0  0  0  0  0  0  0  0
    9.6244   43.3414   68.2571 C   0  0  1  0  0  0  0  0  0  0  0  0
    8.2121   41.4601   69.0741 C   0  0  0  0  0  0  0  0  0  0  0  0
    7.7401   41.1991   67.9640 O   0  0  0  0  0  0  0  0  0  0  0  0
    0.4481   39.7423   76.4377 N   0  0  0  0  0  0  0  0  0  0  0  0
   10.5155   44.4189   68.8975 C   0  0  0  0  0  0  0  0  0  0  0  0
    9.7638   45.2021   69.9823 C   0  0  0  0  0  0  0  0  0  0  0  0
    8.4860   45.8438   69.4206 C   0  0  0  0  0  0  0  0  0  0  0  0
    8.5552   47.0454   69.0708 O   0  0  0  0  0  0  0  0  0  0  0  0
    7.4680   45.1174   69.3510 O   0  0  0  0  0  0  0  0  0  0  0  0
    2.6853   39.4554   76.9580 N   0  0  0  0  0  0  0  0  0  0  0  0
   10.5686   41.3365   67.3426 O   0  0  0  0  0  0  0  0  0  0  0  0
    1.6058   39.1201   76.2302 C   0  0  0  0  0  0  0  0  0  0  0  0
   10.8745   43.2468   66.2264 O   0  0  0  0  0  0  0  0  0  0  0  0
    1.6847   38.1205   75.2525 N   0  0  0  0  0  0  0  0  0  0  0  0
    2.8991   37.4816   75.0414 C   0  0  0  0  0  0  0  0  0  0  0  0
    4.0024   37.8740   75.7879 C   0  0  0  0  0  0  0  0  0  0  0  0
    2.9958   36.6086   74.1825 O   0  0  0  0  0  0  0  0  0  0  0  0
    5.2291   35.9176   75.3757 C   0  0  0  0  0  0  0  0  0  0  0  0
    5.2208   37.2165   75.6595 N   0  0  0  0  0  0  0  0  0  0  0  0
    5.1367   35.0826   76.2727 O   0  0  0  0  0  0  0  0  0  0  0  0
    6.4599   37.9079   76.0320 C   0  0  2  0  0  0  0  0  0  0  0  0
    6.2791   38.5263   77.4207 C   0  0  0  0  0  0  0  0  0  0  0  0
    3.8666   38.8485   76.7674 C   0  0  0  0  0  0  0  0  0  0  0  0
    4.9692   39.2111   77.5488 N   0  0  0  0  0  0  0  0  0  0  0  0
    6.7955   38.9971   75.0075 C   0  0  0  0  0  0  0  0  0  0  0  0
    6.9545   38.3936   73.6787 N   0  0  0  0  0  0  0  0  0  0  0  0
    7.8463   40.6193   70.3106 C   0  0  0  0  0  0  0  0  0  0  0  0
    8.4123   39.3615   70.5039 C   0  0  0  0  0  0  0  0  0  0  0  0
    8.1231   38.6254   71.6512 C   0  0  0  0  0  0  0  0  0  0  0  0
    7.2298   39.1197   72.5958 C   0  0  0  0  0  0  0  0  0  0  0  0
    6.6568   40.3717   72.4000 C   0  0  0  0  0  0  0  0  0  0  0  0
    6.9730   41.1243   71.2698 C   0  0  0  0  0  0  0  0  0  0  0  0
   10.4230   42.5727   67.1841 C   0  0  0  0  0  0  0  0  0  0  0  0
  1  3  1  0  0  0  0
  2  1  1  1  0  0  0
  2  6  1  0  0  0  0
  2 34  1  0  0  0  0
  3  4  2  0  0  0  0
  3 28  1  0  0  0  0
  5 13  1  0  0  0  0
  6  7  1  0  0  0  0
  7  8  1  0  0  0  0
  8  9  1  0  0  0  0
  8 10  1  0  0  0  0
 11 13  2  0  0  0  0
 11 24  1  0  0  0  0
 12 34  1  0  0  0  0
 13 15  1  0  0  0  0
 14 34  1  0  0  0  0
 15 16  1  0  0  0  0
 16 17  1  0  0  0  0
 16 18  2  0  0  0  0
 17 20  1  0  0  0  0
 17 24  2  0  0  0  0
 19 21  1  0  0  0  0
 19 20  1  0  0  0  0
 20 22  1  0  0  0  0
 22 23  1  0  0  0  0
 22 26  1  6  0  0  0
 23 25  1  0  0  0  0
 24 25  1  0  0  0  0
 26 27  1  0  0  0  0
 27 31  1  0  0  0  0
 28 29  2  0  0  0  0
 28 33  1  0  0  0  0
 29 30  1  0  0  0  0
 30 31  2  0  0  0  0
 31 32  1  0  0  0  0
 32 33  2  0  0  0  0
M  END
>  <CHROM.1>
175.06256122,-55.95360304,-2.49462039,-56.77189441,-96.89841220,-85.49320682
-59.32169937,178.94591642,140.47876493,-101.56615153,6.61126622,40.36026097
72.43013297,-0.79022898,-0.77026072,2.82014496

>  <Name>
ligand

>  <RI>
0

>  <Rbt.Current_Directory>
/home/itssahil/PROJECTS/Mol_Feturizer/New_Systems/rnas/3SUH

>  <Rbt.Executable>
rbdock ($Id: //depot/dev/client3/rdock/2013.1/src/exe/rbdock.cxx#4 $)

>  <Rbt.Library>
libRbt.so (2013.1, Build901 2013/11/27)

>  <Rbt.Parameter_File>
/export/apps/rDock/src/rDock_2013.1_src/data/scripts/dock_solv.prm

>  <Rbt.Receptor>
prm/pocket_docking_8.prm

>  <SCORE>
-13.6857

>  <SCORE.INTER>
-9.0683

>  <SCORE.INTER.CONST>
1

>  <SCORE.INTER.POLAR>
0

>  <SCORE.INTER.ROT>
10

>  <SCORE.INTER.SOLV>
8.19864

>  <SCORE.INTER.VDW>
-19.0451

>  <SCORE.INTER.norm>
-0.266715

>  <SCORE.INTRA>
-4.61744

>  <SCORE.INTRA.DIHEDRAL>
-6.0762

>  <SCORE.INTRA.DIHEDRAL.0>
12.2703

>  <SCORE.INTRA.POLAR>
0

>  <SCORE.INTRA.POLAR.0>
0

>  <SCORE.INTRA.REPUL>
0

>  <SCORE.INTRA.REPUL.0>
0

>  <SCORE.INTRA.SOLV>
-0.164506

>  <SCORE.INTRA.SOLV.lig_0>
-64.3214

>  <SCORE.INTRA.VDW>
-1.49709

>  <SCORE.INTRA.VDW.0>
-1.67301

>  <SCORE.INTRA.norm>
-0.135807

>  <SCORE.RESTR>
0

>  <SCORE.RESTR.CAVITY>
0

>  <SCORE.RESTR.norm>
0

>  <SCORE.SYSTEM>
0

>  <SCORE.SYSTEM.CONST>
0

>  <SCORE.SYSTEM.DIHEDRAL>
0

>  <SCORE.SYSTEM.SOLV>
0

>  <SCORE.SYSTEM.norm>
0

>  <SCORE.heavy>
34

>  <SCORE.norm>
-0.402522

>  <RMSD>
10.721

$$$$
ligand
 OpenBabel11021811483D
libRbt.so/2013.1/901 2013/11/27
 34 36  0  0  0  0  0  0  0  0999 V2000
    8.4769   42.5182   69.6165 N   0  0  0  0  0  0  0  0  0  0  0  0
    9.1115   42.3005   68.2957 C   0  0  1  0  0  0  0  0  0  0  0  0
    7.7362   43.5918   69.9213 C   0  0  0  0  0  0  0  0  0  0  0  0
    7.5007   44.5182   69.1405 O   0  0  0  0  0  0  0  0  0  0  0  0
    2.5408   36.9104   77.6839 N   0  0  0  0  0  0  0  0  0  0  0  0
   10.1917   43.3685   68.0553 C   0  0  0  0  0  0  0  0  0  0  0  0
   11.3658   43.2141   69.0314 C   0  0  0  0  0  0  0  0  0  0  0  0
   12.4775   44.2307   68.7295 C   0  0  0  0  0  0  0  0  0  0  0  0
   12.9816   44.2034   67.5823 O   0  0  0  0  0  0  0  0  0  0  0  0
   12.7971   45.0149   69.6524 O   0  0  0  0  0  0  0  0  0  0  0  0
    2.6698   39.1895   77.3003 N   0  0  0  0  0  0  0  0  0  0  0  0
    9.5235   40.0854   69.1149 O   0  0  0  0  0  0  0  0  0  0  0  0
    3.1726   38.0698   77.8487 C   0  0  0  0  0  0  0  0  0  0  0  0
   10.4091   40.6601   67.1466 O   0  0  0  0  0  0  0  0  0  0  0  0
    4.3578   38.1082   78.5939 N   0  0  0  0  0  0  0  0  0  0  0  0
    5.0110   39.3227   78.7550 C   0  0  0  0  0  0  0  0  0  0  0  0
    4.4821   40.4546   78.1487 C   0  0  0  0  0  0  0  0  0  0  0  0
    6.0575   39.3801   79.3958 O   0  0  0  0  0  0  0  0  0  0  0  0
    5.6558   41.9718   79.4988 C   0  0  0  0  0  0  0  0  0  0  0  0
    5.0634   41.7033   78.3391 N   0  0  0  0  0  0  0  0  0  0  0  0
    4.9982   42.0350   80.5350 O   0  0  0  0  0  0  0  0  0  0  0  0
    4.8434   42.7634   77.3492 C   0  0  2  0  0  0  0  0  0  0  0  0
    3.3435   42.8611   77.0590 C   0  0  0  0  0  0  0  0  0  0  0  0
    3.2877   40.3715   77.4458 C   0  0  0  0  0  0  0  0  0  0  0  0
    2.7334   41.5215   76.8731 N   0  0  0  0  0  0  0  0  0  0  0  0
    5.6133   42.4611   76.0590 C   0  0  0  0  0  0  0  0  0  0  0  0
    5.4292   43.5611   75.1044 N   0  0  0  0  0  0  0  0  0  0  0  0
    7.1359   43.5755   71.3387 C   0  0  0  0  0  0  0  0  0  0  0  0
    6.9839   44.7592   72.0567 C   0  0  0  0  0  0  0  0  0  0  0  0
    6.3894   44.7498   73.3169 C   0  0  0  0  0  0  0  0  0  0  0  0
    5.9815   43.5508   73.8917 C   0  0  0  0  0  0  0  0  0  0  0  0
    6.1406   42.3666   73.1799 C   0  0  0  0  0  0  0  0  0  0  0  0
    6.7028   42.3794   71.9041 C   0  0  0  0  0  0  0  0  0  0  0  0
    9.7325   40.8933   68.1778 C   0  0  0  0  0  0  0  0  0  0  0  0
  1  3  1  0  0  0  0
  2  1  1  1  0  0  0
  2  6  1  0  0  0  0
  2 34  1  0  0  0  0
  3  4  2  0  0  0  0
  3 28  1  0  0  0  0
  5 13  1  0  0  0  0
  6  7  1  0  0  0  0
  7  8  1  0  0  0  0
  8  9  1  0  0  0  0
  8 10  1  0  0  0  0
 11 13  2  0  0  0  0
 11 24  1  0  0  0  0
 12 34  1  0  0  0  0
 13 15  1  0  0  0  0
 14 34  1  0  0  0  0
 15 16  1  0  0  0  0
 16 17  1  0  0  0  0
 16 18  2  0  0  0  0
 17 20  1  0  0  0  0
 17 24  2  0  0  0  0
 19 21  1  0  0  0  0
 19 20  1  0  0  0  0
 20 22  1  0  0  0  0
 22 23  1  0  0  0  0
 22 26  1  6  0  0  0
 23 25  1  0  0  0  0
 24 25  1  0  0  0  0
 26 27  1  0  0  0  0
 27 31  1  0  0  0  0
 28 29  2  0  0  0  0
 28 33  1  0  0  0  0
 29 30  1  0  0  0  0
 30 31  2  0  0  0  0
 31 32  1  0  0  0  0
 32 33  2  0  0  0  0
M  END
>  <CHROM.1>
65.72676087,66.48847132,6.70226772,176.57671561,-58.16161936,-65.74483389
-177.48119229,-179.36807744,-146.71299561,145.74343477,6.87569442,41.95563688
73.67130299,0.11908955,-1.00706005,-2.71595150

>  <Name>
ligand

>  <RI>
0

>  <Rbt.Current_Directory>
/home/itssahil/PROJECTS/Mol_Feturizer/New_Systems/rnas/3SUH

>  <Rbt.Executable>
rbdock ($Id: //depot/dev/client3/rdock/2013.1/src/exe/rbdock.cxx#4 $)

>  <Rbt.Library>
libRbt.so (2013.1, Build901 2013/11/27)

>  <Rbt.Parameter_File>
/export/apps/rDock/src/rDock_2013.1_src/data/scripts/dock_solv.prm

>  <Rbt.Receptor>
prm/pocket_docking_5.prm

>  <SCORE>
-8.77154

>  <SCORE.INTER>
-5.77374

>  <SCORE.INTER.CONST>
1

>  <SCORE.INTER.POLAR>
0

>  <SCORE.INTER.ROT>
10

>  <SCORE.INTER.SOLV>
8.42399

>  <SCORE.INTER.VDW>
-16.9238

>  <SCORE.INTER.norm>
-0.169816

>  <SCORE.INTRA>
-2.9978

>  <SCORE.INTRA.DIHEDRAL>
-5.8331

>  <SCORE.INTRA.DIHEDRAL.0>
12.2703

>  <SCORE.INTRA.POLAR>
0

>  <SCORE.INTRA.POLAR.0>
0

>  <SCORE.INTRA.REPUL>
0

>  <SCORE.INTRA.REPUL.0>
0

>  <SCORE.INTRA.SOLV>
-0.688861

>  <SCORE.INTRA.SOLV.lig_0>
-64.3214

>  <SCORE.INTRA.VDW>
0.263181

>  <SCORE.INTRA.VDW.0>
-1.67301

>  <SCORE.INTRA.norm>
-0.0881706

>  <SCORE.RESTR>
0

>  <SCORE.RESTR.CAVITY>
0

>  <SCORE.RESTR.norm>
0

>  <SCORE.SYSTEM>
0

>  <SCORE.SYSTEM.CONST>
0

>  <SCORE.SYSTEM.DIHEDRAL>
0

>  <SCORE.SYSTEM.SOLV>
0

>  <SCORE.SYSTEM.norm>
0

>  <SCORE.heavy>
34

>  <SCORE.norm>
-0.257986

>  <RMSD>
10.726

$$$$
ligand
 OpenBabel11021811483D
libRbt.so/2013.1/901 2013/11/27
 34 36  0  0  0  0  0  0  0  0999 V2000
    8.4699   42.9426   70.8421 N   0  0  0  0  0  0  0  0  0  0  0  0
    9.2751   42.8424   69.6025 C   0  0  1  0  0  0  0  0  0  0  0  0
    7.2466   43.4853   70.8960 C   0  0  0  0  0  0  0  0  0  0  0  0
    6.6546   43.9629   69.9241 O   0  0  0  0  0  0  0  0  0  0  0  0
    8.7881   38.8796   81.2149 N   0  0  0  0  0  0  0  0  0  0  0  0
   10.6875   42.3356   69.9393 C   0  0  0  0  0  0  0  0  0  0  0  0
   11.5390   42.1544   68.6754 C   0  0  0  0  0  0  0  0  0  0  0  0
   11.7471   43.4918   67.9484 C   0  0  0  0  0  0  0  0  0  0  0  0
   12.5375   44.3111   68.4728 O   0  0  0  0  0  0  0  0  0  0  0  0
   11.1127   43.6644   66.8824 O   0  0  0  0  0  0  0  0  0  0  0  0
    7.4898   39.2524   79.3350 N   0  0  0  0  0  0  0  0  0  0  0  0
    8.1631   40.8154   68.9680 O   0  0  0  0  0  0  0  0  0  0  0  0
    7.7105   39.4190   80.6507 C   0  0  0  0  0  0  0  0  0  0  0  0
    8.5958   42.3203   67.3751 O   0  0  0  0  0  0  0  0  0  0  0  0
    6.8172   40.1564   81.4380 N   0  0  0  0  0  0  0  0  0  0  0  0
    5.6989   40.7188   80.8374 C   0  0  0  0  0  0  0  0  0  0  0  0
    5.5175   40.5547   79.4705 C   0  0  0  0  0  0  0  0  0  0  0  0
    4.9063   41.3784   81.5051 O   0  0  0  0  0  0  0  0  0  0  0  0
    3.2301   41.0733   79.5086 C   0  0  0  0  0  0  0  0  0  0  0  0
    4.3783   41.0411   78.8388 N   0  0  0  0  0  0  0  0  0  0  0  0
    2.1990   41.4561   78.9604 O   0  0  0  0  0  0  0  0  0  0  0  0
    4.4116   41.3200   77.3989 C   0  0  2  0  0  0  0  0  0  0  0  0
    5.0003   40.1055   76.6766 C   0  0  0  0  0  0  0  0  0  0  0  0
    6.4145   39.7887   78.7383 C   0  0  0  0  0  0  0  0  0  0  0  0
    6.2059   39.5877   77.3694 N   0  0  0  0  0  0  0  0  0  0  0  0
    5.2563   42.5663   77.1130 C   0  0  0  0  0  0  0  0  0  0  0  0
    4.6995   43.2873   75.9618 N   0  0  0  0  0  0  0  0  0  0  0  0
    6.5816   43.4312   72.2834 C   0  0  0  0  0  0  0  0  0  0  0  0
    6.0957   44.5916   72.8810 C   0  0  0  0  0  0  0  0  0  0  0  0
    5.4444   44.5331   74.1115 C   0  0  0  0  0  0  0  0  0  0  0  0
    5.3120   43.3199   74.7787 C   0  0  0  0  0  0  0  0  0  0  0  0
    5.8045   42.1614   74.1874 C   0  0  0  0  0  0  0  0  0  0  0  0
    6.4247   42.2138   72.9399 C   0  0  0  0  0  0  0  0  0  0  0  0
    8.6201   41.9112   68.5616 C   0  0  0  0  0  0  0  0  0  0  0  0
  1  3  1  0  0  0  0
  2  1  1  1  0  0  0
  2  6  1  0  0  0  0
  2 34  1  0  0  0  0
  3  4  2  0  0  0  0
  3 28  1  0  0  0  0
  5 13  1  0  0  0  0
  6  7  1  0  0  0  0
  7  8  1  0  0  0  0
  8  9  1  0  0  0  0
  8 10  1  0  0  0  0
 11 13  2  0  0  0  0
 11 24  1  0  0  0  0
 12 34  1  0  0  0  0
 13 15  1  0  0  0  0
 14 34  1  0  0  0  0
 15 16  1  0  0  0  0
 16 17  1  0  0  0  0
 16 18  2  0  0  0  0
 17 20  1  0  0  0  0
 17 24  2  0  0  0  0
 19 21  1  0  0  0  0
 19 20  1  0  0  0  0
 20 22  1  0  0  0  0
 22 23  1  0  0  0  0
 22 26  1  1  0  0  0
 23 25  1  0  0  0  0
 24 25  1  0  0  0  0
 26 27  1  0  0  0  0
 27 31  1  0  0  0  0
 28 29  2  0  0  0  0
 28 33  1  0  0  0  0
 29 30  1  0  0  0  0
 30 31  2  0  0  0  0
 31 32  1  0  0  0  0
 32 33  2  0  0  0  0
M  END
>  <CHROM.1>
172.72532789,177.38490540,-44.76804784,62.55832683,73.39235935,-177.55397461
-146.62795028,-108.99081230,-133.41646524,126.14400956,7.06463432,41.91214294
74.46048336,1.17534525,0.35867592,-1.20628657

>  <Name>
ligand

>  <RI>
0

>  <Rbt.Current_Directory>
/home/itssahil/PROJECTS/Mol_Feturizer/New_Systems/rnas/3SUH

>  <Rbt.Executable>
rbdock ($Id: //depot/dev/client3/rdock/2013.1/src/exe/rbdock.cxx#4 $)

>  <Rbt.Library>
libRbt.so (2013.1, Build901 2013/11/27)

>  <Rbt.Parameter_File>
/export/apps/rDock/src/rDock_2013.1_src/data/scripts/dock_solv.prm

>  <Rbt.Receptor>
prm/pocket_docking_2.prm

>  <SCORE>
-6.87461

>  <SCORE.INTER>
-4.4877

>  <SCORE.INTER.CONST>
1

>  <SCORE.INTER.POLAR>
0

>  <SCORE.INTER.ROT>
10

>  <SCORE.INTER.SOLV>
6.01485

>  <SCORE.INTER.VDW>
-15.2634

>  <SCORE.INTER.norm>
-0.131991

>  <SCORE.INTRA>
-2.62908

>  <SCORE.INTRA.DIHEDRAL>
-1.60363

>  <SCORE.INTRA.DIHEDRAL.0>
12.2703

>  <SCORE.INTRA.POLAR>
0

>  <SCORE.INTRA.POLAR.0>
0

>  <SCORE.INTRA.REPUL>
0

>  <SCORE.INTRA.REPUL.0>
0

>  <SCORE.INTRA.SOLV>
-1.3819

>  <SCORE.INTRA.SOLV.lig_0>
-64.3214

>  <SCORE.INTRA.VDW>
-1.13631

>  <SCORE.INTRA.VDW.0>
-1.67301

>  <SCORE.INTRA.norm>
-0.0773258

>  <SCORE.RESTR>
0.242161

>  <SCORE.RESTR.CAVITY>
0.242161

>  <SCORE.RESTR.norm>
0.00712239

>  <SCORE.SYSTEM>
0

>  <SCORE.SYSTEM.CONST>
0

>  <SCORE.SYSTEM.DIHEDRAL>
0

>  <SCORE.SYSTEM.SOLV>
0

>  <SCORE.SYSTEM.norm>
0

>  <SCORE.heavy>
34

>  <SCORE.norm>
-0.202195

>  <RMSD>
10.733

$$$$
ligand
 OpenBabel11021811483D
libRbt.so/2013.1/901 2013/11/27
 34 36  0  0  0  0  0  0  0  0999 V2000
    8.4405   42.3170   69.6988 N   0  0  0  0  0  0  0  0  0  0  0  0
    8.8462   43.3138   68.6807 C   0  0  1  0  0  0  0  0  0  0  0  0
    8.1969   41.0284   69.4267 C   0  0  0  0  0  0  0  0  0  0  0  0
    8.2806   40.5277   68.3017 O   0  0  0  0  0  0  0  0  0  0  0  0
    5.3564   36.2954   81.3096 N   0  0  0  0  0  0  0  0  0  0  0  0
    8.9694   44.7017   69.3317 C   0  0  0  0  0  0  0  0  0  0  0  0
    7.6005   45.2494   69.7577 C   0  0  0  0  0  0  0  0  0  0  0  0
    7.7118   46.6982   70.2566 C   0  0  0  0  0  0  0  0  0  0  0  0
    7.6025   47.6078   69.4013 O   0  0  0  0  0  0  0  0  0  0  0  0
    7.9012   46.8643   71.4835 O   0  0  0  0  0  0  0  0  0  0  0  0
    4.9079   36.8270   79.1018 N   0  0  0  0  0  0  0  0  0  0  0  0
   11.1373   42.6103   68.7409 O   0  0  0  0  0  0  0  0  0  0  0  0
    5.4916   37.1226   80.2762 C   0  0  0  0  0  0  0  0  0  0  0  0
   10.2048   42.9853   66.7463 O   0  0  0  0  0  0  0  0  0  0  0  0
    6.2435   38.2947   80.4263 N   0  0  0  0  0  0  0  0  0  0  0  0
    6.3817   39.1478   79.3397 C   0  0  0  0  0  0  0  0  0  0  0  0
    5.7928   38.7970   78.1320 C   0  0  0  0  0  0  0  0  0  0  0  0
    7.0448   40.1767   79.4438 O   0  0  0  0  0  0  0  0  0  0  0  0
    5.8549   40.9663   77.2416 C   0  0  0  0  0  0  0  0  0  0  0  0
    5.8467   39.6525   77.0372 N   0  0  0  0  0  0  0  0  0  0  0  0
    4.8154   41.5608   77.5177 O   0  0  0  0  0  0  0  0  0  0  0  0
    5.6924   39.1077   75.6839 C   0  0  2  0  0  0  0  0  0  0  0  0
    4.4546   38.2074   75.6548 C   0  0  0  0  0  0  0  0  0  0  0  0
    5.0311   37.6399   78.0416 C   0  0  0  0  0  0  0  0  0  0  0  0
    4.4018   37.3109   76.8359 N   0  0  0  0  0  0  0  0  0  0  0  0
    6.9370   38.3091   75.2816 C   0  0  0  0  0  0  0  0  0  0  0  0
    6.7937   37.8334   73.9001 N   0  0  0  0  0  0  0  0  0  0  0  0
    7.8405   40.1700   70.6538 C   0  0  0  0  0  0  0  0  0  0  0  0
    6.9348   40.6352   71.6041 C   0  0  0  0  0  0  0  0  0  0  0  0
    6.5711   39.8344   72.6849 C   0  0  0  0  0  0  0  0  0  0  0  0
    7.1433   38.5777   72.8514 C   0  0  0  0  0  0  0  0  0  0  0  0
    8.0547   38.1152   71.9082 C   0  0  0  0  0  0  0  0  0  0  0  0
    8.3923   38.9013   70.8074 C   0  0  0  0  0  0  0  0  0  0  0  0
   10.1781   42.9357   68.0003 C   0  0  0  0  0  0  0  0  0  0  0  0
  1  3  1  0  0  0  0
  2  1  1  1  0  0  0
  2  6  1  0  0  0  0
  2 34  1  0  0  0  0
  3  4  2  0  0  0  0
  3 28  1  0  0  0  0
  5 13  1  0  0  0  0
  6  7  1  0  0  0  0
  7  8  1  0  0  0  0
  8  9  1  0  0  0  0
  8 10  1  0  0  0  0
 11 13  2  0  0  0  0
 11 24  1  0  0  0  0
 12 34  1  0  0  0  0
 13 15  1  0  0  0  0
 14 34  1  0  0  0  0
 15 16  1  0  0  0  0
 16 17  1  0  0  0  0
 16 18  2  0  0  0  0
 17 20  1  0  0  0  0
 17 24  2  0  0  0  0
 19 21  1  0  0  0  0
 19 20  1  0  0  0  0
 20 22  1  0  0  0  0
 22 23  1  0  0  0  0
 22 26  1  1  0  0  0
 23 25  1  0  0  0  0
 24 25  1  0  0  0  0
 26 27  1  0  0  0  0
 27 31  1  0  0  0  0
 28 29  2  0  0  0  0
 28 33  1  0  0  0  0
 29 30  1  0  0  0  0
 30 31  2  0  0  0  0
 31 32  1  0  0  0  0
 32 33  2  0  0  0  0
M  END
>  <CHROM.1>
177.10931203,-68.59008189,-48.51737441,-173.43323582,88.76151597,-77.78791048
-176.99058726,86.31275806,-56.91171921,45.02437513,7.11396138,40.70878747
73.65544608,-0.52913614,-1.24061477,3.11527748

>  <Name>
ligand

>  <RI>
0

>  <Rbt.Current_Directory>
/home/itssahil/PROJECTS/Mol_Feturizer/New_Systems/rnas/3SUH

>  <Rbt.Executable>
rbdock ($Id: //depot/dev/client3/rdock/2013.1/src/exe/rbdock.cxx#4 $)

>  <Rbt.Library>
libRbt.so (2013.1, Build901 2013/11/27)

>  <Rbt.Parameter_File>
/export/apps/rDock/src/rDock_2013.1_src/data/scripts/dock_solv.prm

>  <Rbt.Receptor>
prm/pocket_docking_5.prm

>  <SCORE>
-10.6181

>  <SCORE.INTER>
-6.0234

>  <SCORE.INTER.CONST>
1

>  <SCORE.INTER.POLAR>
0

>  <SCORE.INTER.ROT>
10

>  <SCORE.INTER.SOLV>
6.37117

>  <SCORE.INTER.VDW>
-16.406

>  <SCORE.INTER.norm>
-0.177159

>  <SCORE.INTRA>
-4.59473

>  <SCORE.INTRA.DIHEDRAL>
-5.17774

>  <SCORE.INTRA.DIHEDRAL.0>
12.2703

>  <SCORE.INTRA.POLAR>
0

>  <SCORE.INTRA.POLAR.0>
0

>  <SCORE.INTRA.REPUL>
0

>  <SCORE.INTRA.REPUL.0>
0

>  <SCORE.INTRA.SOLV>
-0.763963

>  <SCORE.INTRA.SOLV.lig_0>
-64.3214

>  <SCORE.INTRA.VDW>
-1.62388

>  <SCORE.INTRA.VDW.0>
-1.67301

>  <SCORE.INTRA.norm>
-0.135139

>  <SCORE.RESTR>
0

>  <SCORE.RESTR.CAVITY>
0

>  <SCORE.RESTR.norm>
0

>  <SCORE.SYSTEM>
0

>  <SCORE.SYSTEM.CONST>
0

>  <SCORE.SYSTEM.DIHEDRAL>
0

>  <SCORE.SYSTEM.SOLV>
0

>  <SCORE.SYSTEM.norm>
0

>  <SCORE.heavy>
34

>  <SCORE.norm>
-0.312298

>  <RMSD>
10.734

$$$$
ligand
 OpenBabel11021811483D
libRbt.so/2013.1/901 2013/11/27
 34 36  0  0  0  0  0  0  0  0999 V2000
   10.2174   42.9732   68.8925 N   0  0  0  0  0  0  0  0  0  0  0  0
   11.0563   43.7182   67.9250 C   0  0  1  0  0  0  0  0  0  0  0  0
    9.0114   42.4683   68.6014 C   0  0  0  0  0  0  0  0  0  0  0  0
    8.4638   42.5675   67.4998 O   0  0  0  0  0  0  0  0  0  0  0  0
    0.4632   38.6947   76.5414 N   0  0  0  0  0  0  0  0  0  0  0  0
   12.4595   43.9383   68.5148 C   0  0  0  0  0  0  0  0  0  0  0  0
   12.3943   44.6178   69.8894 C   0  0  0  0  0  0  0  0  0  0  0  0
   11.7101   45.9904   69.7996 C   0  0  0  0  0  0  0  0  0  0  0  0
   10.4755   46.0293   70.0125 O   0  0  0  0  0  0  0  0  0  0  0  0
   12.4376   46.9715   69.5223 O   0  0  0  0  0  0  0  0  0  0  0  0
    2.7235   39.1654   76.7088 N   0  0  0  0  0  0  0  0  0  0  0  0
   11.5558   43.6503   65.5812 O   0  0  0  0  0  0  0  0  0  0  0  0
    1.7127   38.4936   76.1306 C   0  0  0  0  0  0  0  0  0  0  0  0
   10.8546   41.7699   66.5617 O   0  0  0  0  0  0  0  0  0  0  0  0
    1.9591   37.5811   75.0970 N   0  0  0  0  0  0  0  0  0  0  0  0
    3.2663   37.3830   74.6733 C   0  0  0  0  0  0  0  0  0  0  0  0
    4.2835   38.1166   75.2697 C   0  0  0  0  0  0  0  0  0  0  0  0
    3.5066   36.5956   73.7615 O   0  0  0  0  0  0  0  0  0  0  0  0
    6.0018   36.6808   74.5710 C   0  0  0  0  0  0  0  0  0  0  0  0
    5.6136   37.9019   74.9260 N   0  0  0  0  0  0  0  0  0  0  0  0
    6.3782   35.8750   75.4192 O   0  0  0  0  0  0  0  0  0  0  0  0
    6.6002   38.9642   75.1500 C   0  0  2  0  0  0  0  0  0  0  0  0
    6.4487   39.4814   76.5828 C   0  0  0  0  0  0  0  0  0  0  0  0
    3.9925   38.9863   76.3120 C   0  0  0  0  0  0  0  0  0  0  0  0
    5.0243   39.6914   76.9413 N   0  0  0  0  0  0  0  0  0  0  0  0
    6.3943   40.1075   74.1504 C   0  0  0  0  0  0  0  0  0  0  0  0
    6.4771   39.5869   72.7802 N   0  0  0  0  0  0  0  0  0  0  0  0
    8.3482   41.6881   69.7509 C   0  0  0  0  0  0  0  0  0  0  0  0
    7.5081   42.3356   70.6535 C   0  0  0  0  0  0  0  0  0  0  0  0
    6.8648   41.6177   71.6597 C   0  0  0  0  0  0  0  0  0  0  0  0
    7.0899   40.2526   71.8019 C   0  0  0  0  0  0  0  0  0  0  0  0
    7.9355   39.6060   70.9068 C   0  0  0  0  0  0  0  0  0  0  0  0
    8.5518   40.3169   69.8780 C   0  0  0  0  0  0  0  0  0  0  0  0
   11.1672   42.9855   66.5720 C   0  0  0  0  0  0  0  0  0  0  0  0
  1  3  1  0  0  0  0
  2  1  1  1  0  0  0
  2  6  1  0  0  0  0
  2 34  1  0  0  0  0
  3  4  2  0  0  0  0
  3 28  1  0  0  0  0
  5 13  1  0  0  0  0
  6  7  1  0  0  0  0
  7  8  1  0  0  0  0
  8  9  1  0  0  0  0
  8 10  1  0  0  0  0
 11 13  2  0  0  0  0
 11 24  1  0  0  0  0
 12 34  1  0  0  0  0
 13 15  1  0  0  0  0
 14 34  1  0  0  0  0
 15 16  1  0  0  0  0
 16 17  1  0  0  0  0
 16 18  2  0  0  0  0
 17 20  1  0  0  0  0
 17 24  2  0  0  0  0
 19 21  1  0  0  0  0
 19 20  1  0  0  0  0
 20 22  1  0  0  0  0
 22 23  1  0  0  0  0
 22 26  1  6  0  0  0
 23 25  1  0  0  0  0
 24 25  1  0  0  0  0
 26 27  1  0  0  0  0
 27 31  1  0  0  0  0
 28 29  2  0  0  0  0
 28 33  1  0  0  0  0
 29 30  1  0  0  0  0
 30 31  2  0  0  0  0
 31 32  1  0  0  0  0
 32 33  2  0  0  0  0
M  END
>  <CHROM.1>
-170.36955393,-54.28593195,162.54316365,-59.93738666,92.93471923,-88.20437076
-57.08400851,-140.01315731,-44.65884308,91.12297171,7.38554460,40.82024950
71.98339143,0.19500717,-0.90139124,-2.21484729

>  <Name>
ligand

>  <RI>
0

>  <Rbt.Current_Directory>
/home/itssahil/PROJECTS/Mol_Feturizer/New_Systems/rnas/3SUH

>  <Rbt.Executable>
rbdock ($Id: //depot/dev/client3/rdock/2013.1/src/exe/rbdock.cxx#4 $)

>  <Rbt.Library>
libRbt.so (2013.1, Build901 2013/11/27)

>  <Rbt.Parameter_File>
/export/apps/rDock/src/rDock_2013.1_src/data/scripts/dock_solv.prm

>  <Rbt.Receptor>
prm/pocket_docking_6.prm

>  <SCORE>
-16.2921

>  <SCORE.INTER>
-12.5014

>  <SCORE.INTER.CONST>
1

>  <SCORE.INTER.POLAR>
0

>  <SCORE.INTER.ROT>
10

>  <SCORE.INTER.SOLV>
11.0396

>  <SCORE.INTER.VDW>
-22.2808

>  <SCORE.INTER.norm>
-0.367688

>  <SCORE.INTRA>
-3.79073

>  <SCORE.INTRA.DIHEDRAL>
-4.93497

>  <SCORE.INTRA.DIHEDRAL.0>
12.2703

>  <SCORE.INTRA.POLAR>
0

>  <SCORE.INTRA.POLAR.0>
0

>  <SCORE.INTRA.REPUL>
0

>  <SCORE.INTRA.REPUL.0>
0

>  <SCORE.INTRA.SOLV>
-0.132878

>  <SCORE.INTRA.SOLV.lig_0>
-64.3214

>  <SCORE.INTRA.VDW>
-1.25681

>  <SCORE.INTRA.VDW.0>
-1.67301

>  <SCORE.INTRA.norm>
-0.111492

>  <SCORE.RESTR>
0

>  <SCORE.RESTR.CAVITY>
0

>  <SCORE.RESTR.norm>
0

>  <SCORE.SYSTEM>
0

>  <SCORE.SYSTEM.CONST>
0

>  <SCORE.SYSTEM.DIHEDRAL>
0

>  <SCORE.SYSTEM.SOLV>
0

>  <SCORE.SYSTEM.norm>
0

>  <SCORE.heavy>
34

>  <SCORE.norm>
-0.47918

>  <RMSD>
10.736

$$$$
ligand
 OpenBabel11021811483D
libRbt.so/2013.1/901 2013/11/27
 34 36  0  0  0  0  0  0  0  0999 V2000
    8.3842   42.8491   70.6350 N   0  0  0  0  0  0  0  0  0  0  0  0
    9.0226   43.2624   69.3636 C   0  0  1  0  0  0  0  0  0  0  0  0
    7.1391   43.1910   70.9911 C   0  0  0  0  0  0  0  0  0  0  0  0
    6.3862   43.8873   70.3044 O   0  0  0  0  0  0  0  0  0  0  0  0
    3.5971   41.1505   83.0225 N   0  0  0  0  0  0  0  0  0  0  0  0
   10.5518   43.1620   69.4926 C   0  0  0  0  0  0  0  0  0  0  0  0
   10.9765   41.8548   70.1755 C   0  0  0  0  0  0  0  0  0  0  0  0
   10.3748   40.6340   69.4629 C   0  0  0  0  0  0  0  0  0  0  0  0
    9.5499   39.9445   70.1072 O   0  0  0  0  0  0  0  0  0  0  0  0
   10.7513   40.4185   68.2879 O   0  0  0  0  0  0  0  0  0  0  0  0
    2.9365   41.6894   80.8704 N   0  0  0  0  0  0  0  0  0  0  0  0
    9.0161   42.6722   67.0399 O   0  0  0  0  0  0  0  0  0  0  0  0
    3.8984   41.5940   81.8047 C   0  0  0  0  0  0  0  0  0  0  0  0
    7.7017   41.5113   68.4232 O   0  0  0  0  0  0  0  0  0  0  0  0
    5.2190   41.9568   81.5113 N   0  0  0  0  0  0  0  0  0  0  0  0
    5.5226   42.4136   80.2359 C   0  0  0  0  0  0  0  0  0  0  0  0
    4.5121   42.4696   79.2850 C   0  0  0  0  0  0  0  0  0  0  0  0
    6.6756   42.7281   79.9516 O   0  0  0  0  0  0  0  0  0  0  0  0
    5.6490   43.9575   77.8723 C   0  0  0  0  0  0  0  0  0  0  0  0
    4.7544   42.9845   78.0163 N   0  0  0  0  0  0  0  0  0  0  0  0
    6.6335   43.7980   77.1542 O   0  0  0  0  0  0  0  0  0  0  0  0
    3.8880   42.5944   76.8986 C   0  0  2  0  0  0  0  0  0  0  0  0
    2.4280   42.7678   77.3247 C   0  0  0  0  0  0  0  0  0  0  0  0
    3.2121   42.1287   79.6330 C   0  0  0  0  0  0  0  0  0  0  0  0
    2.1871   42.2281   78.6857 N   0  0  0  0  0  0  0  0  0  0  0  0
    4.1526   41.1393   76.4970 C   0  0  0  0  0  0  0  0  0  0  0  0
    5.5178   41.0119   75.9722 N   0  0  0  0  0  0  0  0  0  0  0  0
    6.6714   42.6015   72.3341 C   0  0  0  0  0  0  0  0  0  0  0  0
    6.7105   41.2270   72.5557 C   0  0  0  0  0  0  0  0  0  0  0  0
    6.3395   40.6997   73.7910 C   0  0  0  0  0  0  0  0  0  0  0  0
    5.8825   41.5372   74.8031 C   0  0  0  0  0  0  0  0  0  0  0  0
    5.8344   42.9092   74.5805 C   0  0  0  0  0  0  0  0  0  0  0  0
    6.2391   43.4409   73.3569 C   0  0  0  0  0  0  0  0  0  0  0  0
    8.5416   42.4096   68.1715 C   0  0  0  0  0  0  0  0  0  0  0  0
  1  3  1  0  0  0  0
  2  1  1  1  0  0  0
  2  6  1  0  0  0  0
  2 34  1  0  0  0  0
  3  4  2  0  0  0  0
  3 28  1  0  0  0  0
  5 13  1  0  0  0  0
  6  7  1  0  0  0  0
  7  8  1  0  0  0  0
  8  9  1  0  0  0  0
  8 10  1  0  0  0  0
 11 13  2  0  0  0  0
 11 24  1  0  0  0  0
 12 34  1  0  0  0  0
 13 15  1  0  0  0  0
 14 34  1  0  0  0  0
 15 16  1  0  0  0  0
 16 17  1  0  0  0  0
 16 18  2  0  0  0  0
 17 20  1  0  0  0  0
 17 24  2  0  0  0  0
 19 21  1  0  0  0  0
 19 20  1  0  0  0  0
 20 22  1  0  0  0  0
 22 23  1  0  0  0  0
 22 26  1  1  0  0  0
 23 25  1  0  0  0  0
 24 25  1  0  0  0  0
 26 27  1  0  0  0  0
 27 31  1  0  0  0  0
 28 29  2  0  0  0  0
 28 33  1  0  0  0  0
 29 30  1  0  0  0  0
 30 31  2  0  0  0  0
 31 32  1  0  0  0  0
 32 33  2  0  0  0  0
M  END
>  <CHROM.1>
159.16395817,44.44075231,179.92402958,53.97717810,-114.95322075,120.10687361
-65.08312733,-69.65068087,-118.88016622,-55.15302806,6.43871264,42.20161547
74.57777556,1.11846697,0.28964767,-1.44901519

>  <Name>
ligand

>  <RI>
0

>  <Rbt.Current_Directory>
/home/itssahil/PROJECTS/Mol_Feturizer/New_Systems/rnas/3SUH

>  <Rbt.Executable>
rbdock ($Id: //depot/dev/client3/rdock/2013.1/src/exe/rbdock.cxx#4 $)

>  <Rbt.Library>
libRbt.so (2013.1, Build901 2013/11/27)

>  <Rbt.Parameter_File>
/export/apps/rDock/src/rDock_2013.1_src/data/scripts/dock_solv.prm

>  <Rbt.Receptor>
prm/pocket_docking_5.prm

>  <SCORE>
-7.96616

>  <SCORE.INTER>
-3.85574

>  <SCORE.INTER.CONST>
1

>  <SCORE.INTER.POLAR>
0

>  <SCORE.INTER.ROT>
10

>  <SCORE.INTER.SOLV>
6.9733

>  <SCORE.INTER.VDW>
-15.1616

>  <SCORE.INTER.norm>
-0.113404

>  <SCORE.INTRA>
-4.11041

>  <SCORE.INTRA.DIHEDRAL>
-4.20898

>  <SCORE.INTRA.DIHEDRAL.0>
12.2703

>  <SCORE.INTRA.POLAR>
0

>  <SCORE.INTRA.POLAR.0>
0

>  <SCORE.INTRA.REPUL>
0

>  <SCORE.INTRA.REPUL.0>
0

>  <SCORE.INTRA.SOLV>
0.627619

>  <SCORE.INTRA.SOLV.lig_0>
-64.3214

>  <SCORE.INTRA.VDW>
-2.31973

>  <SCORE.INTRA.VDW.0>
-1.67301

>  <SCORE.INTRA.norm>
-0.120895

>  <SCORE.RESTR>
0

>  <SCORE.RESTR.CAVITY>
0

>  <SCORE.RESTR.norm>
0

>  <SCORE.SYSTEM>
0

>  <SCORE.SYSTEM.CONST>
0

>  <SCORE.SYSTEM.DIHEDRAL>
0

>  <SCORE.SYSTEM.SOLV>
0

>  <SCORE.SYSTEM.norm>
0

>  <SCORE.heavy>
34

>  <SCORE.norm>
-0.234299

>  <RMSD>
10.745

$$$$
ligand
 OpenBabel11021811483D
libRbt.so/2013.1/901 2013/11/27
 34 36  0  0  0  0  0  0  0  0999 V2000
    8.9563   42.5639   70.1501 N   0  0  0  0  0  0  0  0  0  0  0  0
    9.7125   42.8063   68.8994 C   0  0  1  0  0  0  0  0  0  0  0  0
    7.7335   43.0549   70.3904 C   0  0  0  0  0  0  0  0  0  0  0  0
    7.1015   43.7632   69.6017 O   0  0  0  0  0  0  0  0  0  0  0  0
    8.0820   38.9989   81.5769 N   0  0  0  0  0  0  0  0  0  0  0  0
   11.0607   42.0686   68.9555 C   0  0  0  0  0  0  0  0  0  0  0  0
   12.1386   42.9134   69.6481 C   0  0  0  0  0  0  0  0  0  0  0  0
   12.4701   44.1712   68.8306 C   0  0  0  0  0  0  0  0  0  0  0  0
   12.5556   45.2540   69.4561 O   0  0  0  0  0  0  0  0  0  0  0  0
   12.6333   44.0217   67.5978 O   0  0  0  0  0  0  0  0  0  0  0  0
    6.5842   38.5669   79.8656 N   0  0  0  0  0  0  0  0  0  0  0  0
    7.9014   41.6543   67.8314 O   0  0  0  0  0  0  0  0  0  0  0  0
    7.1896   39.4370   80.6925 C   0  0  0  0  0  0  0  0  0  0  0  0
    9.3686   42.7341   66.5389 O   0  0  0  0  0  0  0  0  0  0  0  0
    6.8918   40.8044   80.6345 N   0  0  0  0  0  0  0  0  0  0  0  0
    5.9627   41.2507   79.7045 C   0  0  0  0  0  0  0  0  0  0  0  0
    5.3795   40.3302   78.8437 C   0  0  0  0  0  0  0  0  0  0  0  0
    5.6924   42.4466   79.6275 O   0  0  0  0  0  0  0  0  0  0  0  0
    3.5678   41.7075   78.2753 C   0  0  0  0  0  0  0  0  0  0  0  0
    4.3943   40.7202   77.9434 N   0  0  0  0  0  0  0  0  0  0  0  0
    2.5975   41.4920   78.9981 O   0  0  0  0  0  0  0  0  0  0  0  0
    4.1530   39.9162   76.7403 C   0  0  2  0  0  0  0  0  0  0  0  0
    4.0141   38.4479   77.1502 C   0  0  0  0  0  0  0  0  0  0  0  0
    5.6840   38.9807   78.9609 C   0  0  0  0  0  0  0  0  0  0  0  0
    5.0620   38.0494   78.1222 N   0  0  0  0  0  0  0  0  0  0  0  0
    5.3063   40.0808   75.7446 C   0  0  0  0  0  0  0  0  0  0  0  0
    5.3891   41.4810   75.3113 N   0  0  0  0  0  0  0  0  0  0  0  0
    7.1239   42.6268   71.7376 C   0  0  0  0  0  0  0  0  0  0  0  0
    6.5687   43.5729   72.5958 C   0  0  0  0  0  0  0  0  0  0  0  0
    5.9676   43.1777   73.7892 C   0  0  0  0  0  0  0  0  0  0  0  0
    5.9552   41.8369   74.1586 C   0  0  0  0  0  0  0  0  0  0  0  0
    6.5172   40.8917   73.3070 C   0  0  0  0  0  0  0  0  0  0  0  0
    7.0871   41.2822   72.0961 C   0  0  0  0  0  0  0  0  0  0  0  0
    8.9237   42.3593   67.6513 C   0  0  0  0  0  0  0  0  0  0  0  0
  1  3  1  0  0  0  0
  2  1  1  1  0  0  0
  2  6  1  0  0  0  0
  2 34  1  0  0  0  0
  3  4  2  0  0  0  0
  3 28  1  0  0  0  0
  5 13  1  0  0  0  0
  6  7  1  0  0  0  0
  7  8  1  0  0  0  0
  8  9  1  0  0  0  0
  8 10  1  0  0  0  0
 11 13  2  0  0  0  0
 11 24  1  0  0  0  0
 12 34  1  0  0  0  0
 13 15  1  0  0  0  0
 14 34  1  0  0  0  0
 15 16  1  0  0  0  0
 16 17  1  0  0  0  0
 16 18  2  0  0  0  0
 17 20  1  0  0  0  0
 17 24  2  0  0  0  0
 19 21  1  0  0  0  0
 19 20  1  0  0  0  0
 20 22  1  0  0  0  0
 22 23  1  0  0  0  0
 22 26  1  6  0  0  0
 23 25  1  0  0  0  0
 24 25  1  0  0  0  0
 26 27  1  0  0  0  0
 27 31  1  0  0  0  0
 28 29  2  0  0  0  0
 28 33  1  0  0  0  0
 29 30  1  0  0  0  0
 30 31  2  0  0  0  0
 31 32  1  0  0  0  0
 32 33  2  0  0  0  0
M  END
>  <CHROM.1>
-178.79516925,-86.27243300,-12.41418726,-65.72658053,134.70638127,-80.99946508
-62.45564530,-156.59023719,178.19481839,130.82000246,7.26578368,41.60697891
74.08708433,1.14805617,-0.14623874,-1.34893647

>  <Name>
ligand

>  <RI>
0

>  <Rbt.Current_Directory>
/home/itssahil/PROJECTS/Mol_Feturizer/New_Systems/rnas/3SUH

>  <Rbt.Executable>
rbdock ($Id: //depot/dev/client3/rdock/2013.1/src/exe/rbdock.cxx#4 $)

>  <Rbt.Library>
libRbt.so (2013.1, Build901 2013/11/27)

>  <Rbt.Parameter_File>
/export/apps/rDock/src/rDock_2013.1_src/data/scripts/dock_solv.prm

>  <Rbt.Receptor>
prm/pocket_docking_3.prm

>  <SCORE>
-9.70465

>  <SCORE.INTER>
-7.03473

>  <SCORE.INTER.CONST>
1

>  <SCORE.INTER.POLAR>
0

>  <SCORE.INTER.ROT>
10

>  <SCORE.INTER.SOLV>
7.49406

>  <SCORE.INTER.VDW>
-17.4545

>  <SCORE.INTER.norm>
-0.206904

>  <SCORE.INTRA>
-2.66993

>  <SCORE.INTRA.DIHEDRAL>
-3.24775

>  <SCORE.INTRA.DIHEDRAL.0>
12.2703

>  <SCORE.INTRA.POLAR>
0

>  <SCORE.INTRA.POLAR.0>
0

>  <SCORE.INTRA.REPUL>
0

>  <SCORE.INTRA.REPUL.0>
0

>  <SCORE.INTRA.SOLV>
-0.475379

>  <SCORE.INTRA.SOLV.lig_0>
-64.3214

>  <SCORE.INTRA.VDW>
-0.808364

>  <SCORE.INTRA.VDW.0>
-1.67301

>  <SCORE.INTRA.norm>
-0.0785273

>  <SCORE.RESTR>
0

>  <SCORE.RESTR.CAVITY>
0

>  <SCORE.RESTR.norm>
0

>  <SCORE.SYSTEM>
0

>  <SCORE.SYSTEM.CONST>
0

>  <SCORE.SYSTEM.DIHEDRAL>
0

>  <SCORE.SYSTEM.SOLV>
0

>  <SCORE.SYSTEM.norm>
0

>  <SCORE.heavy>
34

>  <SCORE.norm>
-0.285431

>  <RMSD>
10.749

$$$$
ligand
 OpenBabel11021811483D
libRbt.so/2013.1/901 2013/11/27
 34 36  0  0  0  0  0  0  0  0999 V2000
   10.4481   42.8113   68.7600 N   0  0  0  0  0  0  0  0  0  0  0  0
   11.1602   43.7559   67.8680 C   0  0  1  0  0  0  0  0  0  0  0  0
    9.2347   42.3080   68.4985 C   0  0  0  0  0  0  0  0  0  0  0  0
    8.5743   42.5740   67.4904 O   0  0  0  0  0  0  0  0  0  0  0  0
    1.8479   39.5049   77.7303 N   0  0  0  0  0  0  0  0  0  0  0  0
   12.4787   44.1980   68.5248 C   0  0  0  0  0  0  0  0  0  0  0  0
   12.2337   45.1823   69.6765 C   0  0  0  0  0  0  0  0  0  0  0  0
   11.3718   44.5465   70.7779 C   0  0  0  0  0  0  0  0  0  0  0  0
   10.1339   44.7321   70.7143 O   0  0  0  0  0  0  0  0  0  0  0  0
   11.9700   43.8863   71.6583 O   0  0  0  0  0  0  0  0  0  0  0  0
    3.7712   38.6644   76.7541 N   0  0  0  0  0  0  0  0  0  0  0  0
   12.0495   43.8499   65.6435 O   0  0  0  0  0  0  0  0  0  0  0  0
    2.4418   38.8633   76.7273 C   0  0  0  0  0  0  0  0  0  0  0  0
   11.0508   41.9622   66.2976 O   0  0  0  0  0  0  0  0  0  0  0  0
    1.6712   38.4021   75.6526 N   0  0  0  0  0  0  0  0  0  0  0  0
    2.3024   37.7384   74.6093 C   0  0  0  0  0  0  0  0  0  0  0  0
    3.6811   37.5779   74.6527 C   0  0  0  0  0  0  0  0  0  0  0  0
    1.6493   37.3335   73.6508 O   0  0  0  0  0  0  0  0  0  0  0  0
    3.7298   35.8391   73.0790 C   0  0  0  0  0  0  0  0  0  0  0  0
    4.3471   36.8604   73.6652 N   0  0  0  0  0  0  0  0  0  0  0  0
    3.3126   34.8959   73.7474 O   0  0  0  0  0  0  0  0  0  0  0  0
    5.7734   37.1077   73.4274 C   0  0  2  0  0  0  0  0  0  0  0  0
    6.5096   37.0666   74.7689 C   0  0  0  0  0  0  0  0  0  0  0  0
    4.3975   38.0251   75.7546 C   0  0  0  0  0  0  0  0  0  0  0  0
    5.7807   37.8230   75.8168 N   0  0  0  0  0  0  0  0  0  0  0  0
    5.9771   38.4690   72.7536 C   0  0  0  0  0  0  0  0  0  0  0  0
    7.3970   38.6521   72.4285 N   0  0  0  0  0  0  0  0  0  0  0  0
    8.7171   41.3052   69.5456 C   0  0  0  0  0  0  0  0  0  0  0  0
    9.4142   40.1271   69.8024 C   0  0  0  0  0  0  0  0  0  0  0  0
    8.9748   39.2472   70.7895 C   0  0  0  0  0  0  0  0  0  0  0  0
    7.8088   39.5138   71.4992 C   0  0  0  0  0  0  0  0  0  0  0  0
    7.1066   40.6855   71.2378 C   0  0  0  0  0  0  0  0  0  0  0  0
    7.5649   41.5838   70.2752 C   0  0  0  0  0  0  0  0  0  0  0  0
   11.4473   43.1385   66.4837 C   0  0  0  0  0  0  0  0  0  0  0  0
  1  3  1  0  0  0  0
  2  1  1  1  0  0  0
  2  6  1  0  0  0  0
  2 34  1  0  0  0  0
  3  4  2  0  0  0  0
  3 28  1  0  0  0  0
  5 13  1  0  0  0  0
  6  7  1  0  0  0  0
  7  8  1  0  0  0  0
  8  9  1  0  0  0  0
  8 10  1  0  0  0  0
 11 13  2  0  0  0  0
 11 24  1  0  0  0  0
 12 34  1  0  0  0  0
 13 15  1  0  0  0  0
 14 34  1  0  0  0  0
 15 16  1  0  0  0  0
 16 17  1  0  0  0  0
 16 18  2  0  0  0  0
 17 20  1  0  0  0  0
 17 24  2  0  0  0  0
 19 21  1  0  0  0  0
 19 20  1  0  0  0  0
 20 22  1  0  0  0  0
 22 23  1  0  0  0  0
 22 26  1  1  0  0  0
 23 25  1  0  0  0  0
 24 25  1  0  0  0  0
 26 27  1  0  0  0  0
 27 31  1  0  0  0  0
 28 29  2  0  0  0  0
 28 33  1  0  0  0  0
 29 30  1  0  0  0  0
 30 31  2  0  0  0  0
 31 32  1  0  0  0  0
 32 33  2  0  0  0  0
M  END
>  <CHROM.1>
176.13380852,-73.79923356,-179.93112590,60.47929313,-93.40145018,-57.89398769
-175.57303062,158.81198059,-149.98034591,-60.69412387,7.27334841,40.26722913
71.74574767,0.19985698,-0.84358598,-2.15623082

>  <Name>
ligand

>  <RI>
0

>  <Rbt.Current_Directory>
/home/itssahil/PROJECTS/Mol_Feturizer/New_Systems/rnas/3SUH

>  <Rbt.Executable>
rbdock ($Id: //depot/dev/client3/rdock/2013.1/src/exe/rbdock.cxx#4 $)

>  <Rbt.Library>
libRbt.so (2013.1, Build901 2013/11/27)

>  <Rbt.Parameter_File>
/export/apps/rDock/src/rDock_2013.1_src/data/scripts/dock_solv.prm

>  <Rbt.Receptor>
prm/pocket_docking_7.prm

>  <SCORE>
-15.5354

>  <SCORE.INTER>
-11.9108

>  <SCORE.INTER.CONST>
1

>  <SCORE.INTER.POLAR>
0

>  <SCORE.INTER.ROT>
10

>  <SCORE.INTER.SOLV>
8.99346

>  <SCORE.INTER.VDW>
-21.205

>  <SCORE.INTER.norm>
-0.350318

>  <SCORE.INTRA>
-3.62869

>  <SCORE.INTRA.DIHEDRAL>
-4.76134

>  <SCORE.INTRA.DIHEDRAL.0>
12.2703

>  <SCORE.INTRA.POLAR>
0

>  <SCORE.INTRA.POLAR.0>
0

>  <SCORE.INTRA.REPUL>
0

>  <SCORE.INTRA.REPUL.0>
0

>  <SCORE.INTRA.SOLV>
-0.225207

>  <SCORE.INTRA.SOLV.lig_0>
-64.3214

>  <SCORE.INTRA.VDW>
-1.13541

>  <SCORE.INTRA.VDW.0>
-1.67301

>  <SCORE.INTRA.norm>
-0.106726

>  <SCORE.RESTR>
0.00412571

>  <SCORE.RESTR.CAVITY>
0.00412571

>  <SCORE.RESTR.norm>
0.000121344

>  <SCORE.SYSTEM>
0

>  <SCORE.SYSTEM.CONST>
0

>  <SCORE.SYSTEM.DIHEDRAL>
0

>  <SCORE.SYSTEM.SOLV>
0

>  <SCORE.SYSTEM.norm>
0

>  <SCORE.heavy>
34

>  <SCORE.norm>
-0.456923

>  <RMSD>
10.751

$$$$
ligand
 OpenBabel11021811483D
libRbt.so/2013.1/901 2013/11/27
 34 36  0  0  0  0  0  0  0  0999 V2000
   10.2989   42.1384   70.3751 N   0  0  0  0  0  0  0  0  0  0  0  0
   11.3459   41.7363   69.4072 C   0  0  1  0  0  0  0  0  0  0  0  0
    9.0139   41.7724   70.2800 C   0  0  0  0  0  0  0  0  0  0  0  0
    8.5580   41.0635   69.3785 O   0  0  0  0  0  0  0  0  0  0  0  0
   -0.9427   41.2017   75.1916 N   0  0  0  0  0  0  0  0  0  0  0  0
   12.2351   42.9452   69.0708 C   0  0  0  0  0  0  0  0  0  0  0  0
   11.4939   43.9659   68.1967 C   0  0  0  0  0  0  0  0  0  0  0  0
   11.2208   43.4025   66.7937 C   0  0  0  0  0  0  0  0  0  0  0  0
   12.1381   43.5086   65.9461 O   0  0  0  0  0  0  0  0  0  0  0  0
   10.1012   42.8755   66.6004 O   0  0  0  0  0  0  0  0  0  0  0  0
    0.3266   43.1342   75.0794 N   0  0  0  0  0  0  0  0  0  0  0  0
   12.6288   40.6646   71.1257 O   0  0  0  0  0  0  0  0  0  0  0  0
    0.1759   41.8607   75.4830 C   0  0  0  0  0  0  0  0  0  0  0  0
   12.4512   39.6368   69.1506 O   0  0  0  0  0  0  0  0  0  0  0  0
    1.1855   41.2162   76.2089 N   0  0  0  0  0  0  0  0  0  0  0  0
    2.3503   41.9122   76.5029 C   0  0  0  0  0  0  0  0  0  0  0  0
    2.4872   43.2156   76.0436 C   0  0  0  0  0  0  0  0  0  0  0  0
    3.2542   41.3651   77.1296 O   0  0  0  0  0  0  0  0  0  0  0  0
    4.1985   43.7784   77.5459 C   0  0  0  0  0  0  0  0  0  0  0  0
    3.6056   43.9737   76.3720 N   0  0  0  0  0  0  0  0  0  0  0  0
    3.8438   44.4128   78.5369 O   0  0  0  0  0  0  0  0  0  0  0  0
    3.9915   45.1028   75.5185 C   0  0  2  0  0  0  0  0  0  0  0  0
    2.7569   45.9718   75.2654 C   0  0  0  0  0  0  0  0  0  0  0  0
    1.4454   43.8216   75.3546 C   0  0  0  0  0  0  0  0  0  0  0  0
    1.5679   45.1496   74.9312 N   0  0  0  0  0  0  0  0  0  0  0  0
    4.5657   44.5995   74.1898 C   0  0  0  0  0  0  0  0  0  0  0  0
    5.6589   43.6549   74.4500 N   0  0  0  0  0  0  0  0  0  0  0  0
    8.1192   42.2678   71.4306 C   0  0  0  0  0  0  0  0  0  0  0  0
    8.3225   43.5250   71.9944 C   0  0  0  0  0  0  0  0  0  0  0  0
    7.4771   43.9945   72.9976 C   0  0  0  0  0  0  0  0  0  0  0  0
    6.4469   43.1937   73.4793 C   0  0  0  0  0  0  0  0  0  0  0  0
    6.2480   41.9343   72.9236 C   0  0  0  0  0  0  0  0  0  0  0  0
    7.0713   41.4780   71.8952 C   0  0  0  0  0  0  0  0  0  0  0  0
   12.2159   40.5809   69.9437 C   0  0  0  0  0  0  0  0  0  0  0  0
  1  3  1  0  0  0  0
  2  1  1  1  0  0  0
  2  6  1  0  0  0  0
  2 34  1  0  0  0  0
  3  4  2  0  0  0  0
  3 28  1  0  0  0  0
  5 13  1  0  0  0  0
  6  7  1  0  0  0  0
  7  8  1  0  0  0  0
  8  9  1  0  0  0  0
  8 10  1  0  0  0  0
 11 13  2  0  0  0  0
 11 24  1  0  0  0  0
 12 34  1  0  0  0  0
 13 15  1  0  0  0  0
 14 34  1  0  0  0  0
 15 16  1  0  0  0  0
 16 17  1  0  0  0  0
 16 18  2  0  0  0  0
 17 20  1  0  0  0  0
 17 24  2  0  0  0  0
 19 21  1  0  0  0  0
 19 20  1  0  0  0  0
 20 22  1  0  0  0  0
 22 23  1  0  0  0  0
 22 26  1  6  0  0  0
 23 25  1  0  0  0  0
 24 25  1  0  0  0  0
 26 27  1  0  0  0  0
 27 31  1  0  0  0  0
 28 29  2  0  0  0  0
 28 33  1  0  0  0  0
 29 30  1  0  0  0  0
 30 31  2  0  0  0  0
 31 32  1  0  0  0  0
 32 33  2  0  0  0  0
M  END
>  <CHROM.1>
136.35472069,-71.73781718,-45.64057492,-68.00569118,-84.65702503,-89.42938466
-53.84232238,-171.30176378,78.84878181,36.77867164,6.48349473,42.78194186
72.74405456,-0.44752582,-0.53421576,2.23725690

>  <Name>
ligand

>  <RI>
0

>  <Rbt.Current_Directory>
/home/itssahil/PROJECTS/Mol_Feturizer/New_Systems/rnas/3SUH

>  <Rbt.Executable>
rbdock ($Id: //depot/dev/client3/rdock/2013.1/src/exe/rbdock.cxx#4 $)

>  <Rbt.Library>
libRbt.so (2013.1, Build901 2013/11/27)

>  <Rbt.Parameter_File>
/export/apps/rDock/src/rDock_2013.1_src/data/scripts/dock_solv.prm

>  <Rbt.Receptor>
prm/pocket_docking_5.prm

>  <SCORE>
-12.6507

>  <SCORE.INTER>
-7.99749

>  <SCORE.INTER.CONST>
1

>  <SCORE.INTER.POLAR>
0

>  <SCORE.INTER.ROT>
10

>  <SCORE.INTER.SOLV>
7.33657

>  <SCORE.INTER.VDW>
-18.0438

>  <SCORE.INTER.norm>
-0.23522

>  <SCORE.INTRA>
-4.65318

>  <SCORE.INTRA.DIHEDRAL>
-4.2326

>  <SCORE.INTRA.DIHEDRAL.0>
12.2703

>  <SCORE.INTRA.POLAR>
0

>  <SCORE.INTRA.POLAR.0>
0

>  <SCORE.INTRA.REPUL>
0

>  <SCORE.INTRA.REPUL.0>
0

>  <SCORE.INTRA.SOLV>
-0.415174

>  <SCORE.INTRA.SOLV.lig_0>
-64.3214

>  <SCORE.INTRA.VDW>
-2.32929

>  <SCORE.INTRA.VDW.0>
-1.67301

>  <SCORE.INTRA.norm>
-0.136858

>  <SCORE.RESTR>
0

>  <SCORE.RESTR.CAVITY>
0

>  <SCORE.RESTR.norm>
0

>  <SCORE.SYSTEM>
0

>  <SCORE.SYSTEM.CONST>
0

>  <SCORE.SYSTEM.DIHEDRAL>
0

>  <SCORE.SYSTEM.SOLV>
0

>  <SCORE.SYSTEM.norm>
0

>  <SCORE.heavy>
34

>  <SCORE.norm>
-0.372078

>  <RMSD>
10.761

$$$$
ligand
 OpenBabel11021811483D
libRbt.so/2013.1/901 2013/11/27
 34 36  0  0  0  0  0  0  0  0999 V2000
    9.8490   43.2137   70.6342 N   0  0  0  0  0  0  0  0  0  0  0  0
   10.9377   43.0645   69.6405 C   0  0  1  0  0  0  0  0  0  0  0  0
    8.5486   43.2565   70.3163 C   0  0  0  0  0  0  0  0  0  0  0  0
    8.1116   43.1788   69.1647 O   0  0  0  0  0  0  0  0  0  0  0  0
    7.4823   39.6554   81.1086 N   0  0  0  0  0  0  0  0  0  0  0  0
   10.9946   44.3101   68.7404 C   0  0  0  0  0  0  0  0  0  0  0  0
   12.0668   44.1715   67.6511 C   0  0  0  0  0  0  0  0  0  0  0  0
   11.5559   43.3302   66.4716 C   0  0  0  0  0  0  0  0  0  0  0  0
   10.7485   42.4080   66.7338 O   0  0  0  0  0  0  0  0  0  0  0  0
   11.9823   43.6295   65.3325 O   0  0  0  0  0  0  0  0  0  0  0  0
    7.0997   39.9990   78.8516 N   0  0  0  0  0  0  0  0  0  0  0  0
   12.6998   41.6597   70.4588 O   0  0  0  0  0  0  0  0  0  0  0  0
    6.6532   39.9789   80.1196 C   0  0  0  0  0  0  0  0  0  0  0  0
   12.9330   43.8708   70.6719 O   0  0  0  0  0  0  0  0  0  0  0  0
    5.3210   40.2957   80.4138 N   0  0  0  0  0  0  0  0  0  0  0  0
    4.4662   40.6365   79.3742 C   0  0  0  0  0  0  0  0  0  0  0  0
    4.9674   40.6788   78.0798 C   0  0  0  0  0  0  0  0  0  0  0  0
    3.2960   40.9282   79.6082 O   0  0  0  0  0  0  0  0  0  0  0  0
    2.8653   40.5499   77.0469 C   0  0  0  0  0  0  0  0  0  0  0  0
    4.1331   40.9477   77.0004 N   0  0  0  0  0  0  0  0  0  0  0  0
    2.5765   39.4368   77.4806 O   0  0  0  0  0  0  0  0  0  0  0  0
    4.7043   41.4799   75.7584 C   0  0  2  0  0  0  0  0  0  0  0  0
    5.9056   40.6183   75.3611 C   0  0  0  0  0  0  0  0  0  0  0  0
    6.2876   40.3260   77.8350 C   0  0  0  0  0  0  0  0  0  0  0  0
    6.7787   40.3265   76.5248 N   0  0  0  0  0  0  0  0  0  0  0  0
    5.1383   42.9373   75.9486 C   0  0  0  0  0  0  0  0  0  0  0  0
    4.9606   43.6740   74.6913 N   0  0  0  0  0  0  0  0  0  0  0  0
    7.5970   43.3640   71.5216 C   0  0  0  0  0  0  0  0  0  0  0  0
    7.2484   44.6091   72.0393 C   0  0  0  0  0  0  0  0  0  0  0  0
    6.3436   44.7073   73.0945 C   0  0  0  0  0  0  0  0  0  0  0  0
    5.8124   43.5594   73.6729 C   0  0  0  0  0  0  0  0  0  0  0  0
    6.1663   42.3148   73.1629 C   0  0  0  0  0  0  0  0  0  0  0  0
    7.0439   42.2171   72.0841 C   0  0  0  0  0  0  0  0  0  0  0  0
   12.3080   42.8430   70.3135 C   0  0  0  0  0  0  0  0  0  0  0  0
  1  3  1  0  0  0  0
  2  1  1  1  0  0  0
  2  6  1  0  0  0  0
  2 34  1  0  0  0  0
  3  4  2  0  0  0  0
  3 28  1  0  0  0  0
  5 13  1  0  0  0  0
  6  7  1  0  0  0  0
  7  8  1  0  0  0  0
  8  9  1  0  0  0  0
  8 10  1  0  0  0  0
 11 13  2  0  0  0  0
 11 24  1  0  0  0  0
 12 34  1  0  0  0  0
 13 15  1  0  0  0  0
 14 34  1  0  0  0  0
 15 16  1  0  0  0  0
 16 17  1  0  0  0  0
 16 18  2  0  0  0  0
 17 20  1  0  0  0  0
 17 24  2  0  0  0  0
 19 21  1  0  0  0  0
 19 20  1  0  0  0  0
 20 22  1  0  0  0  0
 22 23  1  0  0  0  0
 22 26  1  1  0  0  0
 23 25  1  0  0  0  0
 24 25  1  0  0  0  0
 26 27  1  0  0  0  0
 27 31  1  0  0  0  0
 28 29  2  0  0  0  0
 28 33  1  0  0  0  0
 29 30  1  0  0  0  0
 30 31  2  0  0  0  0
 31 32  1  0  0  0  0
 32 33  2  0  0  0  0
M  END
>  <CHROM.1>
66.02407901,-177.31774591,95.10702940,80.71712116,-32.76799717,-42.46492999
-147.28999323,-77.27864510,-128.83608764,87.92919825,7.56952203,42.10514958
73.66682355,-1.02592102,-0.15862899,1.94003663

>  <Name>
ligand

>  <RI>
0

>  <Rbt.Current_Directory>
/home/itssahil/PROJECTS/Mol_Feturizer/New_Systems/rnas/3SUH

>  <Rbt.Executable>
rbdock ($Id: //depot/dev/client3/rdock/2013.1/src/exe/rbdock.cxx#4 $)

>  <Rbt.Library>
libRbt.so (2013.1, Build901 2013/11/27)

>  <Rbt.Parameter_File>
/export/apps/rDock/src/rDock_2013.1_src/data/scripts/dock_solv.prm

>  <Rbt.Receptor>
prm/pocket_docking_2.prm

>  <SCORE>
-4.02609

>  <SCORE.INTER>
-4.94697

>  <SCORE.INTER.CONST>
1

>  <SCORE.INTER.POLAR>
0

>  <SCORE.INTER.ROT>
10

>  <SCORE.INTER.SOLV>
8.29529

>  <SCORE.INTER.VDW>
-16.3297

>  <SCORE.INTER.norm>
-0.145499

>  <SCORE.INTRA>
0.493845

>  <SCORE.INTRA.DIHEDRAL>
-0.681842

>  <SCORE.INTRA.DIHEDRAL.0>
12.2703

>  <SCORE.INTRA.POLAR>
0

>  <SCORE.INTRA.POLAR.0>
0

>  <SCORE.INTRA.REPUL>
0

>  <SCORE.INTRA.REPUL.0>
0

>  <SCORE.INTRA.SOLV>
-1.14863

>  <SCORE.INTRA.SOLV.lig_0>
-64.3214

>  <SCORE.INTRA.VDW>
1.40908

>  <SCORE.INTRA.VDW.0>
-1.67301

>  <SCORE.INTRA.norm>
0.0145249

>  <SCORE.RESTR>
0.427039

>  <SCORE.RESTR.CAVITY>
0.427039

>  <SCORE.RESTR.norm>
0.01256

>  <SCORE.SYSTEM>
0

>  <SCORE.SYSTEM.CONST>
0

>  <SCORE.SYSTEM.DIHEDRAL>
0

>  <SCORE.SYSTEM.SOLV>
0

>  <SCORE.SYSTEM.norm>
0

>  <SCORE.heavy>
34

>  <SCORE.norm>
-0.118414

>  <RMSD>
10.816

$$$$
ligand
 OpenBabel11021811483D
libRbt.so/2013.1/901 2013/11/27
 34 36  0  0  0  0  0  0  0  0999 V2000
    9.6971   42.3171   69.6133 N   0  0  0  0  0  0  0  0  0  0  0  0
   10.5141   43.0794   68.6405 C   0  0  1  0  0  0  0  0  0  0  0  0
    8.3793   42.4899   69.7791 C   0  0  0  0  0  0  0  0  0  0  0  0
    7.6994   43.3012   69.1445 O   0  0  0  0  0  0  0  0  0  0  0  0
    4.6850   40.9946   80.4831 N   0  0  0  0  0  0  0  0  0  0  0  0
   11.9765   43.1274   69.1143 C   0  0  0  0  0  0  0  0  0  0  0  0
   12.6996   44.3753   68.5897 C   0  0  0  0  0  0  0  0  0  0  0  0
   12.3829   45.6059   69.4533 C   0  0  0  0  0  0  0  0  0  0  0  0
   11.1740   45.8915   69.6210 O   0  0  0  0  0  0  0  0  0  0  0  0
   13.3572   46.2327   69.9293 O   0  0  0  0  0  0  0  0  0  0  0  0
    5.5761   39.3624   79.1046 N   0  0  0  0  0  0  0  0  0  0  0  0
   10.5434   43.2553   66.2497 O   0  0  0  0  0  0  0  0  0  0  0  0
    4.6280   40.2802   79.3621 C   0  0  0  0  0  0  0  0  0  0  0  0
   10.2857   41.2282   67.1517 O   0  0  0  0  0  0  0  0  0  0  0  0
    3.5770   40.4948   78.4615 N   0  0  0  0  0  0  0  0  0  0  0  0
    3.5306   39.7469   77.2927 C   0  0  0  0  0  0  0  0  0  0  0  0
    4.5429   38.8300   77.0422 C   0  0  0  0  0  0  0  0  0  0  0  0
    2.6243   39.9242   76.4826 O   0  0  0  0  0  0  0  0  0  0  0  0
    3.3224   37.6144   75.4501 C   0  0  0  0  0  0  0  0  0  0  0  0
    4.5015   38.0110   75.9193 N   0  0  0  0  0  0  0  0  0  0  0  0
    2.8390   36.5415   75.8045 O   0  0  0  0  0  0  0  0  0  0  0  0
    5.7458   37.4383   75.3941 C   0  0  2  0  0  0  0  0  0  0  0  0
    6.5181   36.7974   76.5500 C   0  0  0  0  0  0  0  0  0  0  0  0
    5.5468   38.6310   77.9803 C   0  0  0  0  0  0  0  0  0  0  0  0
    6.5414   37.6750   77.7461 N   0  0  0  0  0  0  0  0  0  0  0  0
    6.5969   38.5243   74.7270 C   0  0  0  0  0  0  0  0  0  0  0  0
    5.9060   39.0308   73.5348 N   0  0  0  0  0  0  0  0  0  0  0  0
    7.7338   41.5480   70.8115 C   0  0  0  0  0  0  0  0  0  0  0  0
    7.0243   42.0634   71.8935 C   0  0  0  0  0  0  0  0  0  0  0  0
    6.3937   41.2095   72.7962 C   0  0  0  0  0  0  0  0  0  0  0  0
    6.5036   39.8305   72.6521 C   0  0  0  0  0  0  0  0  0  0  0  0
    7.2192   39.3140   71.5772 C   0  0  0  0  0  0  0  0  0  0  0  0
    7.8206   40.1677   70.6535 C   0  0  0  0  0  0  0  0  0  0  0  0
   10.4432   42.4714   67.2245 C   0  0  0  0  0  0  0  0  0  0  0  0
  1  3  1  0  0  0  0
  2  1  1  1  0  0  0
  2  6  1  0  0  0  0
  2 34  1  0  0  0  0
  3  4  2  0  0  0  0
  3 28  1  0  0  0  0
  5 13  1  0  0  0  0
  6  7  1  0  0  0  0
  7  8  1  0  0  0  0
  8  9  1  0  0  0  0
  8 10  1  0  0  0  0
 11 13  2  0  0  0  0
 11 24  1  0  0  0  0
 12 34  1  0  0  0  0
 13 15  1  0  0  0  0
 14 34  1  0  0  0  0
 15 16  1  0  0  0  0
 16 17  1  0  0  0  0
 16 18  2  0  0  0  0
 17 20  1  0  0  0  0
 17 24  2  0  0  0  0
 19 21  1  0  0  0  0
 19 20  1  0  0  0  0
 20 22  1  0  0  0  0
 22 23  1  0  0  0  0
 22 26  1  1  0  0  0
 23 25  1  0  0  0  0
 24 25  1  0  0  0  0
 26 27  1  0  0  0  0
 27 31  1  0  0  0  0
 28 29  2  0  0  0  0
 28 33  1  0  0  0  0
 29 30  1  0  0  0  0
 30 31  2  0  0  0  0
 31 32  1  0  0  0  0
 32 33  2  0  0  0  0
M  END
>  <CHROM.1>
154.44752208,-152.78354932,148.67973589,81.29908465,-54.62775697,-93.49338927
-65.83732619,-169.51079732,-92.56662068,123.61021313,7.35050362,40.84710510
73.06278023,0.55042177,-0.88388760,-1.95243250

>  <Name>
ligand

>  <RI>
0

>  <Rbt.Current_Directory>
/home/itssahil/PROJECTS/Mol_Feturizer/New_Systems/rnas/3SUH

>  <Rbt.Executable>
rbdock ($Id: //depot/dev/client3/rdock/2013.1/src/exe/rbdock.cxx#4 $)

>  <Rbt.Library>
libRbt.so (2013.1, Build901 2013/11/27)

>  <Rbt.Parameter_File>
/export/apps/rDock/src/rDock_2013.1_src/data/scripts/dock_solv.prm

>  <Rbt.Receptor>
prm/pocket_docking_6.prm

>  <SCORE>
-11.5458

>  <SCORE.INTER>
-8.30609

>  <SCORE.INTER.CONST>
1

>  <SCORE.INTER.POLAR>
0

>  <SCORE.INTER.ROT>
10

>  <SCORE.INTER.SOLV>
8.60496

>  <SCORE.INTER.VDW>
-18.6724

>  <SCORE.INTER.norm>
-0.244297

>  <SCORE.INTRA>
-3.23971

>  <SCORE.INTRA.DIHEDRAL>
-1.27227

>  <SCORE.INTRA.DIHEDRAL.0>
12.2703

>  <SCORE.INTRA.POLAR>
0

>  <SCORE.INTRA.POLAR.0>
0

>  <SCORE.INTRA.REPUL>
0

>  <SCORE.INTRA.REPUL.0>
0

>  <SCORE.INTRA.SOLV>
-0.914986

>  <SCORE.INTRA.SOLV.lig_0>
-64.3214

>  <SCORE.INTRA.VDW>
-2.14608

>  <SCORE.INTRA.VDW.0>
-1.67301

>  <SCORE.INTRA.norm>
-0.0952854

>  <SCORE.RESTR>
0

>  <SCORE.RESTR.CAVITY>
0

>  <SCORE.RESTR.norm>
0

>  <SCORE.SYSTEM>
0

>  <SCORE.SYSTEM.CONST>
0

>  <SCORE.SYSTEM.DIHEDRAL>
0

>  <SCORE.SYSTEM.SOLV>
0

>  <SCORE.SYSTEM.norm>
0

>  <SCORE.heavy>
34

>  <SCORE.norm>
-0.339582

>  <RMSD>
10.826

$$$$
ligand
 OpenBabel11021811483D
libRbt.so/2013.1/901 2013/11/27
 34 36  0  0  0  0  0  0  0  0999 V2000
    9.9875   43.0393   69.8696 N   0  0  0  0  0  0  0  0  0  0  0  0
   11.1315   42.8873   68.9406 C   0  0  1  0  0  0  0  0  0  0  0  0
   10.0938   42.9690   71.2029 C   0  0  0  0  0  0  0  0  0  0  0  0
   11.1518   42.7688   71.8062 O   0  0  0  0  0  0  0  0  0  0  0  0
    4.1786   41.0176   81.0259 N   0  0  0  0  0  0  0  0  0  0  0  0
   10.6367   42.3396   67.5914 C   0  0  0  0  0  0  0  0  0  0  0  0
   10.0339   40.9359   67.7384 C   0  0  0  0  0  0  0  0  0  0  0  0
    8.7184   40.9756   68.5310 C   0  0  0  0  0  0  0  0  0  0  0  0
    8.7091   40.4158   69.6525 O   0  0  0  0  0  0  0  0  0  0  0  0
    7.7513   41.5673   67.9988 O   0  0  0  0  0  0  0  0  0  0  0  0
    3.6305   41.6675   78.8729 N   0  0  0  0  0  0  0  0  0  0  0  0
   11.4653   45.2269   69.3442 O   0  0  0  0  0  0  0  0  0  0  0  0
    4.0675   41.9734   80.1069 C   0  0  0  0  0  0  0  0  0  0  0  0
   12.8510   44.1961   67.9278 O   0  0  0  0  0  0  0  0  0  0  0  0
    4.4090   43.2906   80.4387 N   0  0  0  0  0  0  0  0  0  0  0  0
    4.2937   44.2787   79.4702 C   0  0  0  0  0  0  0  0  0  0  0  0
    3.8698   43.9236   78.1964 C   0  0  0  0  0  0  0  0  0  0  0  0
    4.5969   45.4395   79.7342 O   0  0  0  0  0  0  0  0  0  0  0  0
    3.2639   46.1021   77.5725 C   0  0  0  0  0  0  0  0  0  0  0  0
    3.6739   44.8888   77.2150 N   0  0  0  0  0  0  0  0  0  0  0  0
    2.0937   46.2952   77.8944 O   0  0  0  0  0  0  0  0  0  0  0  0
    3.7264   44.5045   75.8002 C   0  0  2  0  0  0  0  0  0  0  0  0
    2.8358   43.2771   75.5910 C   0  0  0  0  0  0  0  0  0  0  0  0
    3.5130   42.6096   77.9249 C   0  0  0  0  0  0  0  0  0  0  0  0
    3.0439   42.2623   76.6533 N   0  0  0  0  0  0  0  0  0  0  0  0
    5.1670   44.1902   75.3825 C   0  0  0  0  0  0  0  0  0  0  0  0
    5.2172   43.9298   73.9385 N   0  0  0  0  0  0  0  0  0  0  0  0
    8.7780   43.2095   71.9649 C   0  0  0  0  0  0  0  0  0  0  0  0
    8.6531   44.2866   72.8390 C   0  0  0  0  0  0  0  0  0  0  0  0
    7.4439   44.5353   73.4853 C   0  0  0  0  0  0  0  0  0  0  0  0
    6.3603   43.6835   73.2993 C   0  0  0  0  0  0  0  0  0  0  0  0
    6.4860   42.6023   72.4336 C   0  0  0  0  0  0  0  0  0  0  0  0
    7.6844   42.3732   71.7591 C   0  0  0  0  0  0  0  0  0  0  0  0
   11.8789   44.2189   68.7216 C   0  0  0  0  0  0  0  0  0  0  0  0
  1  3  1  0  0  0  0
  2  1  1  1  0  0  0
  2  6  1  0  0  0  0
  2 34  1  0  0  0  0
  3  4  2  0  0  0  0
  3 28  1  0  0  0  0
  5 13  1  0  0  0  0
  6  7  1  0  0  0  0
  7  8  1  0  0  0  0
  8  9  1  0  0  0  0
  8 10  1  0  0  0  0
 11 13  2  0  0  0  0
 11 24  1  0  0  0  0
 12 34  1  0  0  0  0
 13 15  1  0  0  0  0
 14 34  1  0  0  0  0
 15 16  1  0  0  0  0
 16 17  1  0  0  0  0
 16 18  2  0  0  0  0
 17 20  1  0  0  0  0
 17 24  2  0  0  0  0
 19 21  1  0  0  0  0
 19 20  1  0  0  0  0
 20 22  1  0  0  0  0
 22 23  1  0  0  0  0
 22 26  1  1  0  0  0
 23 25  1  0  0  0  0
 24 25  1  0  0  0  0
 26 27  1  0  0  0  0
 27 31  1  0  0  0  0
 28 29  2  0  0  0  0
 28 33  1  0  0  0  0
 29 30  1  0  0  0  0
 30 31  2  0  0  0  0
 31 32  1  0  0  0  0
 32 33  2  0  0  0  0
M  END
>  <CHROM.1>
152.28388953,-63.23702297,1.12920333,68.35892858,-113.57847352,-75.47097065
-174.78024544,177.19028607,-49.77659997,-117.81441584,6.83579199,43.30622344
73.80303107,-0.58298637,0.81058226,0.63763344

>  <Name>
ligand

>  <RI>
0

>  <Rbt.Current_Directory>
/home/itssahil/PROJECTS/Mol_Feturizer/New_Systems/rnas/3SUH

>  <Rbt.Executable>
rbdock ($Id: //depot/dev/client3/rdock/2013.1/src/exe/rbdock.cxx#4 $)

>  <Rbt.Library>
libRbt.so (2013.1, Build901 2013/11/27)

>  <Rbt.Parameter_File>
/export/apps/rDock/src/rDock_2013.1_src/data/scripts/dock_solv.prm

>  <Rbt.Receptor>
prm/pocket_docking_5.prm

>  <SCORE>
-6.74653

>  <SCORE.INTER>
-2.19727

>  <SCORE.INTER.CONST>
1

>  <SCORE.INTER.POLAR>
0

>  <SCORE.INTER.ROT>
10

>  <SCORE.INTER.SOLV>
7.92451

>  <SCORE.INTER.VDW>
-14.373

>  <SCORE.INTER.norm>
-0.0646256

>  <SCORE.INTRA>
-4.54926

>  <SCORE.INTRA.DIHEDRAL>
-5.14567

>  <SCORE.INTRA.DIHEDRAL.0>
12.2703

>  <SCORE.INTRA.POLAR>
0

>  <SCORE.INTRA.POLAR.0>
0

>  <SCORE.INTRA.REPUL>
0

>  <SCORE.INTRA.REPUL.0>
0

>  <SCORE.INTRA.SOLV>
-0.344188

>  <SCORE.INTRA.SOLV.lig_0>
-64.3214

>  <SCORE.INTRA.VDW>
-1.80433

>  <SCORE.INTRA.VDW.0>
-1.67301

>  <SCORE.INTRA.norm>
-0.133802

>  <SCORE.RESTR>
0

>  <SCORE.RESTR.CAVITY>
0

>  <SCORE.RESTR.norm>
0

>  <SCORE.SYSTEM>
0

>  <SCORE.SYSTEM.CONST>
0

>  <SCORE.SYSTEM.DIHEDRAL>
0

>  <SCORE.SYSTEM.SOLV>
0

>  <SCORE.SYSTEM.norm>
0

>  <SCORE.heavy>
34

>  <SCORE.norm>
-0.198427

>  <RMSD>
10.831

$$$$
ligand
 OpenBabel11021811483D
libRbt.so/2013.1/901 2013/11/27
 34 36  0  0  0  0  0  0  0  0999 V2000
    9.7294   43.1811   69.5658 N   0  0  0  0  0  0  0  0  0  0  0  0
   10.5512   43.7244   68.4593 C   0  0  1  0  0  0  0  0  0  0  0  0
    8.4145   43.4000   69.6965 C   0  0  0  0  0  0  0  0  0  0  0  0
    7.7415   44.0774   68.9145 O   0  0  0  0  0  0  0  0  0  0  0  0
    0.6913   40.8918   79.1134 N   0  0  0  0  0  0  0  0  0  0  0  0
   12.0435   43.5299   68.7757 C   0  0  0  0  0  0  0  0  0  0  0  0
   12.4414   44.2363   70.0788 C   0  0  0  0  0  0  0  0  0  0  0  0
   12.3069   45.7611   69.9485 C   0  0  0  0  0  0  0  0  0  0  0  0
   11.1490   46.2391   69.9914 O   0  0  0  0  0  0  0  0  0  0  0  0
   13.3658   46.4159   69.8113 O   0  0  0  0  0  0  0  0  0  0  0  0
    2.9805   40.8807   78.7701 N   0  0  0  0  0  0  0  0  0  0  0  0
   10.9709   43.2993   66.1374 O   0  0  0  0  0  0  0  0  0  0  0  0
    1.7483   40.4690   78.4245 C   0  0  0  0  0  0  0  0  0  0  0  0
    9.1935   42.3286   67.0794 O   0  0  0  0  0  0  0  0  0  0  0  0
    1.5622   39.5974   77.3441 N   0  0  0  0  0  0  0  0  0  0  0  0
    2.6720   39.1668   76.6296 C   0  0  0  0  0  0  0  0  0  0  0  0
    3.9274   39.6363   76.9927 C   0  0  0  0  0  0  0  0  0  0  0  0
    2.5334   38.4102   75.6717 O   0  0  0  0  0  0  0  0  0  0  0  0
    5.1046   37.9317   75.8923 C   0  0  0  0  0  0  0  0  0  0  0  0
    5.0730   39.1795   76.3505 N   0  0  0  0  0  0  0  0  0  0  0  0
    5.4661   37.0094   76.6196 O   0  0  0  0  0  0  0  0  0  0  0  0
    6.2880   40.0015   76.3646 C   0  0  2  0  0  0  0  0  0  0  0  0
    6.5675   40.4407   77.8041 C   0  0  0  0  0  0  0  0  0  0  0  0
    4.0639   40.4747   78.0908 C   0  0  0  0  0  0  0  0  0  0  0  0
    5.3344   40.9112   78.4821 N   0  0  0  0  0  0  0  0  0  0  0  0
    6.1171   41.2275   75.4611 C   0  0  0  0  0  0  0  0  0  0  0  0
    5.9155   40.7941   74.0729 N   0  0  0  0  0  0  0  0  0  0  0  0
    7.7624   42.6903   70.8969 C   0  0  0  0  0  0  0  0  0  0  0  0
    7.1293   43.4262   71.8956 C   0  0  0  0  0  0  0  0  0  0  0  0
    6.4913   42.7800   72.9526 C   0  0  0  0  0  0  0  0  0  0  0  0
    6.5184   41.3925   73.0461 C   0  0  0  0  0  0  0  0  0  0  0  0
    7.1578   40.6565   72.0543 C   0  0  0  0  0  0  0  0  0  0  0  0
    7.7657   41.3007   70.9777 C   0  0  0  0  0  0  0  0  0  0  0  0
   10.2126   43.0609   67.1084 C   0  0  0  0  0  0  0  0  0  0  0  0
  1  3  1  0  0  0  0
  2  1  1  1  0  0  0
  2  6  1  0  0  0  0
  2 34  1  0  0  0  0
  3  4  2  0  0  0  0
  3 28  1  0  0  0  0
  5 13  1  0  0  0  0
  6  7  1  0  0  0  0
  7  8  1  0  0  0  0
  8  9  1  0  0  0  0
  8 10  1  0  0  0  0
 11 13  2  0  0  0  0
 11 24  1  0  0  0  0
 12 34  1  0  0  0  0
 13 15  1  0  0  0  0
 14 34  1  0  0  0  0
 15 16  1  0  0  0  0
 16 17  1  0  0  0  0
 16 18  2  0  0  0  0
 17 20  1  0  0  0  0
 17 24  2  0  0  0  0
 19 21  1  0  0  0  0
 19 20  1  0  0  0  0
 20 22  1  0  0  0  0
 22 23  1  0  0  0  0
 22 26  1  6  0  0  0
 23 25  1  0  0  0  0
 24 25  1  0  0  0  0
 26 27  1  0  0  0  0
 27 31  1  0  0  0  0
 28 29  2  0  0  0  0
 28 33  1  0  0  0  0
 29 30  1  0  0  0  0
 30 31  2  0  0  0  0
 31 32  1  0  0  0  0
 32 33  2  0  0  0  0
M  END
>  <CHROM.1>
168.18172334,-59.34993645,-170.02024492,-65.36797420,76.03036716,-87.59472006
-62.59058174,-137.10860410,-48.26672351,119.94599595,7.03372886,41.73735479
73.15800461,0.61732080,-0.74524408,-1.85791124

>  <Name>
ligand

>  <RI>
0

>  <Rbt.Current_Directory>
/home/itssahil/PROJECTS/Mol_Feturizer/New_Systems/rnas/3SUH

>  <Rbt.Executable>
rbdock ($Id: //depot/dev/client3/rdock/2013.1/src/exe/rbdock.cxx#4 $)

>  <Rbt.Library>
libRbt.so (2013.1, Build901 2013/11/27)

>  <Rbt.Parameter_File>
/export/apps/rDock/src/rDock_2013.1_src/data/scripts/dock_solv.prm

>  <Rbt.Receptor>
prm/pocket_docking_4.prm

>  <SCORE>
-11.4102

>  <SCORE.INTER>
-7.41928

>  <SCORE.INTER.CONST>
1

>  <SCORE.INTER.POLAR>
0

>  <SCORE.INTER.ROT>
10

>  <SCORE.INTER.SOLV>
9.3519

>  <SCORE.INTER.VDW>
-18.3302

>  <SCORE.INTER.norm>
-0.218214

>  <SCORE.INTRA>
-3.99094

>  <SCORE.INTRA.DIHEDRAL>
-4.90644

>  <SCORE.INTRA.DIHEDRAL.0>
12.2703

>  <SCORE.INTRA.POLAR>
0

>  <SCORE.INTRA.POLAR.0>
0

>  <SCORE.INTRA.REPUL>
0

>  <SCORE.INTRA.REPUL.0>
0

>  <SCORE.INTRA.SOLV>
-0.318949

>  <SCORE.INTRA.SOLV.lig_0>
-64.3214

>  <SCORE.INTRA.VDW>
-1.37824

>  <SCORE.INTRA.VDW.0>
-1.67301

>  <SCORE.INTRA.norm>
-0.117381

>  <SCORE.RESTR>
0

>  <SCORE.RESTR.CAVITY>
0

>  <SCORE.RESTR.norm>
0

>  <SCORE.SYSTEM>
0

>  <SCORE.SYSTEM.CONST>
0

>  <SCORE.SYSTEM.DIHEDRAL>
0

>  <SCORE.SYSTEM.SOLV>
0

>  <SCORE.SYSTEM.norm>
0

>  <SCORE.heavy>
34

>  <SCORE.norm>
-0.335595

>  <RMSD>
10.838

$$$$
ligand
 OpenBabel11021811483D
libRbt.so/2013.1/901 2013/11/27
 34 36  0  0  0  0  0  0  0  0999 V2000
   10.4497   42.7808   68.8572 N   0  0  0  0  0  0  0  0  0  0  0  0
   11.1216   43.8102   68.0304 C   0  0  1  0  0  0  0  0  0  0  0  0
    9.1205   42.6345   68.9328 C   0  0  0  0  0  0  0  0  0  0  0  0
    8.3081   43.3386   68.3265 O   0  0  0  0  0  0  0  0  0  0  0  0
    4.4929   36.7354   79.1053 N   0  0  0  0  0  0  0  0  0  0  0  0
   12.3806   44.3177   68.7533 C   0  0  0  0  0  0  0  0  0  0  0  0
   12.0457   44.8870   70.1387 C   0  0  0  0  0  0  0  0  0  0  0  0
   13.2902   45.4900   70.8079 C   0  0  0  0  0  0  0  0  0  0  0  0
   13.5848   46.6711   70.5093 O   0  0  0  0  0  0  0  0  0  0  0  0
   13.9184   44.7570   71.6060 O   0  0  0  0  0  0  0  0  0  0  0  0
    5.2811   36.3196   76.9689 N   0  0  0  0  0  0  0  0  0  0  0  0
   11.1025   42.1243   66.3259 O   0  0  0  0  0  0  0  0  0  0  0  0
    4.3808   36.8898   77.7885 C   0  0  0  0  0  0  0  0  0  0  0  0
   12.1888   44.0305   65.9072 O   0  0  0  0  0  0  0  0  0  0  0  0
    3.3224   37.6477   77.2717 N   0  0  0  0  0  0  0  0  0  0  0  0
    3.2184   37.8062   75.8964 C   0  0  0  0  0  0  0  0  0  0  0  0
    4.1831   37.2308   75.0798 C   0  0  0  0  0  0  0  0  0  0  0  0
    2.3047   38.4748   75.4198 O   0  0  0  0  0  0  0  0  0  0  0  0
    2.8767   37.3195   73.1336 C   0  0  0  0  0  0  0  0  0  0  0  0
    4.0818   37.3050   73.6950 N   0  0  0  0  0  0  0  0  0  0  0  0
    2.4366   36.3169   72.5755 O   0  0  0  0  0  0  0  0  0  0  0  0
    5.2881   37.1647   72.8720 C   0  0  2  0  0  0  0  0  0  0  0  0
    6.0541   35.9212   73.3307 C   0  0  0  0  0  0  0  0  0  0  0  0
    5.1959   36.4623   75.6376 C   0  0  0  0  0  0  0  0  0  0  0  0
    6.1414   35.8467   74.8100 N   0  0  0  0  0  0  0  0  0  0  0  0
    6.1734   38.4089   73.0007 C   0  0  0  0  0  0  0  0  0  0  0  0
    7.3319   38.2858   72.1074 N   0  0  0  0  0  0  0  0  0  0  0  0
    8.6534   41.4629   69.8153 C   0  0  0  0  0  0  0  0  0  0  0  0
    7.4692   41.5531   70.5429 C   0  0  0  0  0  0  0  0  0  0  0  0
    7.0193   40.4713   71.2972 C   0  0  0  0  0  0  0  0  0  0  0  0
    7.7716   39.3036   71.3681 C   0  0  0  0  0  0  0  0  0  0  0  0
    8.9589   39.2150   70.6492 C   0  0  0  0  0  0  0  0  0  0  0  0
    9.3918   40.2839   69.8659 C   0  0  0  0  0  0  0  0  0  0  0  0
   11.5011   43.2734   66.6348 C   0  0  0  0  0  0  0  0  0  0  0  0
  1  3  1  0  0  0  0
  2  1  1  1  0  0  0
  2  6  1  0  0  0  0
  2 34  1  0  0  0  0
  3  4  2  0  0  0  0
  3 28  1  0  0  0  0
  5 13  1  0  0  0  0
  6  7  1  0  0  0  0
  7  8  1  0  0  0  0
  8  9  1  0  0  0  0
  8 10  1  0  0  0  0
 11 13  2  0  0  0  0
 11 24  1  0  0  0  0
 12 34  1  0  0  0  0
 13 15  1  0  0  0  0
 14 34  1  0  0  0  0
 15 16  1  0  0  0  0
 16 17  1  0  0  0  0
 16 18  2  0  0  0  0
 17 20  1  0  0  0  0
 17 24  2  0  0  0  0
 19 21  1  0  0  0  0
 19 20  1  0  0  0  0
 20 22  1  0  0  0  0
 22 23  1  0  0  0  0
 22 26  1  1  0  0  0
 23 25  1  0  0  0  0
 24 25  1  0  0  0  0
 26 27  1  0  0  0  0
 27 31  1  0  0  0  0
 28 29  2  0  0  0  0
 28 33  1  0  0  0  0
 29 30  1  0  0  0  0
 30 31  2  0  0  0  0
 31 32  1  0  0  0  0
 32 33  2  0  0  0  0
M  END
>  <CHROM.1>
144.16196579,-57.55354621,6.44435475,-175.58958579,84.31851511,-104.43655538
-176.50425793,137.22173091,-8.56742862,146.71104863,7.71747278,40.19425971
71.92792146,0.59811866,-0.72938978,-1.53589220

>  <Name>
ligand

>  <RI>
0

>  <Rbt.Current_Directory>
/home/itssahil/PROJECTS/Mol_Feturizer/New_Systems/rnas/3SUH

>  <Rbt.Executable>
rbdock ($Id: //depot/dev/client3/rdock/2013.1/src/exe/rbdock.cxx#4 $)

>  <Rbt.Library>
libRbt.so (2013.1, Build901 2013/11/27)

>  <Rbt.Parameter_File>
/export/apps/rDock/src/rDock_2013.1_src/data/scripts/dock_solv.prm

>  <Rbt.Receptor>
prm/pocket_docking_7.prm

>  <SCORE>
-15.0532

>  <SCORE.INTER>
-12.7246

>  <SCORE.INTER.CONST>
1

>  <SCORE.INTER.POLAR>
0

>  <SCORE.INTER.ROT>
10

>  <SCORE.INTER.SOLV>
9.63765

>  <SCORE.INTER.VDW>
-21.9623

>  <SCORE.INTER.norm>
-0.374253

>  <SCORE.INTRA>
-2.32858

>  <SCORE.INTRA.DIHEDRAL>
-4.19176

>  <SCORE.INTRA.DIHEDRAL.0>
12.2703

>  <SCORE.INTRA.POLAR>
0

>  <SCORE.INTRA.POLAR.0>
0

>  <SCORE.INTRA.REPUL>
0

>  <SCORE.INTRA.REPUL.0>
0

>  <SCORE.INTRA.SOLV>
-0.868245

>  <SCORE.INTRA.SOLV.lig_0>
-64.3214

>  <SCORE.INTRA.VDW>
0.201422

>  <SCORE.INTRA.VDW.0>
-1.67301

>  <SCORE.INTRA.norm>
-0.0684877

>  <SCORE.RESTR>
0

>  <SCORE.RESTR.CAVITY>
0

>  <SCORE.RESTR.norm>
0

>  <SCORE.SYSTEM>
0

>  <SCORE.SYSTEM.CONST>
0

>  <SCORE.SYSTEM.DIHEDRAL>
0

>  <SCORE.SYSTEM.SOLV>
0

>  <SCORE.SYSTEM.norm>
0

>  <SCORE.heavy>
34

>  <SCORE.norm>
-0.442741

>  <RMSD>
10.883

$$$$
ligand
 OpenBabel11021811483D
libRbt.so/2013.1/901 2013/11/27
 34 36  0  0  0  0  0  0  0  0999 V2000
    7.6725   42.0139   71.1490 N   0  0  0  0  0  0  0  0  0  0  0  0
    8.2306   42.7343   69.9810 C   0  0  1  0  0  0  0  0  0  0  0  0
    8.1703   40.8654   71.6257 C   0  0  0  0  0  0  0  0  0  0  0  0
    9.1449   40.2786   71.1471 O   0  0  0  0  0  0  0  0  0  0  0  0
    4.1658   40.0785   83.1177 N   0  0  0  0  0  0  0  0  0  0  0  0
    8.1007   41.8619   68.7211 C   0  0  0  0  0  0  0  0  0  0  0  0
    8.9888   42.3793   67.5815 C   0  0  0  0  0  0  0  0  0  0  0  0
   10.4769   42.1536   67.8897 C   0  0  0  0  0  0  0  0  0  0  0  0
   10.8206   40.9993   68.2367 O   0  0  0  0  0  0  0  0  0  0  0  0
   11.2389   43.1403   67.7688 O   0  0  0  0  0  0  0  0  0  0  0  0
    3.4084   40.5325   80.9779 N   0  0  0  0  0  0  0  0  0  0  0  0
    8.1322   44.9411   69.0493 O   0  0  0  0  0  0  0  0  0  0  0  0
    4.4229   40.3616   81.8433 C   0  0  0  0  0  0  0  0  0  0  0  0
    6.4105   44.2464   70.2912 O   0  0  0  0  0  0  0  0  0  0  0  0
    5.7525   40.4780   81.4186 N   0  0  0  0  0  0  0  0  0  0  0  0
    6.0089   40.7689   80.0855 C   0  0  0  0  0  0  0  0  0  0  0  0
    4.9389   40.9075   79.2112 C   0  0  0  0  0  0  0  0  0  0  0  0
    7.1668   40.8659   79.6869 O   0  0  0  0  0  0  0  0  0  0  0  0
    6.1631   42.0645   77.5786 C   0  0  0  0  0  0  0  0  0  0  0  0
    5.1445   41.2661   77.8836 N   0  0  0  0  0  0  0  0  0  0  0  0
    5.9982   43.2790   77.4887 O   0  0  0  0  0  0  0  0  0  0  0  0
    4.1322   40.9285   76.8769 C   0  0  2  0  0  0  0  0  0  0  0  0
    2.7606   41.3732   77.3909 C   0  0  0  0  0  0  0  0  0  0  0  0
    3.6378   40.8139   79.6863 C   0  0  0  0  0  0  0  0  0  0  0  0
    2.5606   40.9979   78.8124 N   0  0  0  0  0  0  0  0  0  0  0  0
    4.1308   39.4209   76.6018 C   0  0  0  0  0  0  0  0  0  0  0  0
    5.4878   38.9804   76.2559 N   0  0  0  0  0  0  0  0  0  0  0  0
    7.4571   40.3289   72.8799 C   0  0  0  0  0  0  0  0  0  0  0  0
    7.8916   40.6939   74.1519 C   0  0  0  0  0  0  0  0  0  0  0  0
    7.2110   40.2522   75.2847 C   0  0  0  0  0  0  0  0  0  0  0  0
    6.1157   39.4042   75.1596 C   0  0  0  0  0  0  0  0  0  0  0  0
    5.6859   39.0314   73.8905 C   0  0  0  0  0  0  0  0  0  0  0  0
    6.3445   39.5016   72.7552 C   0  0  0  0  0  0  0  0  0  0  0  0
    7.5331   44.0910   69.7514 C   0  0  0  0  0  0  0  0  0  0  0  0
  1  3  1  0  0  0  0
  2  1  1  1  0  0  0
  2  6  1  0  0  0  0
  2 34  1  0  0  0  0
  3  4  2  0  0  0  0
  3 28  1  0  0  0  0
  5 13  1  0  0  0  0
  6  7  1  0  0  0  0
  7  8  1  0  0  0  0
  8  9  1  0  0  0  0
  8 10  1  0  0  0  0
 11 13  2  0  0  0  0
 11 24  1  0  0  0  0
 12 34  1  0  0  0  0
 13 15  1  0  0  0  0
 14 34  1  0  0  0  0
 15 16  1  0  0  0  0
 16 17  1  0  0  0  0
 16 18  2  0  0  0  0
 17 20  1  0  0  0  0
 17 24  2  0  0  0  0
 19 21  1  0  0  0  0
 19 20  1  0  0  0  0
 20 22  1  0  0  0  0
 22 23  1  0  0  0  0
 22 26  1  1  0  0  0
 23 25  1  0  0  0  0
 24 25  1  0  0  0  0
 26 27  1  0  0  0  0
 27 31  1  0  0  0  0
 28 29  2  0  0  0  0
 28 33  1  0  0  0  0
 29 30  1  0  0  0  0
 30 31  2  0  0  0  0
 31 32  1  0  0  0  0
 32 33  2  0  0  0  0
M  END
>  <CHROM.1>
63.21701023,-164.44334570,160.99252129,70.02312788,50.93309756,-94.39760592
-53.46940757,-64.29055464,110.80103943,-90.32708232,6.56836725,41.30279493
74.68247787,0.95166669,0.86385249,-0.91169942

>  <Name>
ligand

>  <RI>
0

>  <Rbt.Current_Directory>
/home/itssahil/PROJECTS/Mol_Feturizer/New_Systems/rnas/3SUH

>  <Rbt.Executable>
rbdock ($Id: //depot/dev/client3/rdock/2013.1/src/exe/rbdock.cxx#4 $)

>  <Rbt.Library>
libRbt.so (2013.1, Build901 2013/11/27)

>  <Rbt.Parameter_File>
/export/apps/rDock/src/rDock_2013.1_src/data/scripts/dock_solv.prm

>  <Rbt.Receptor>
prm/pocket_docking_3.prm

>  <SCORE>
-7.80544

>  <SCORE.INTER>
-3.28644

>  <SCORE.INTER.CONST>
1

>  <SCORE.INTER.POLAR>
0

>  <SCORE.INTER.ROT>
10

>  <SCORE.INTER.SOLV>
4.99884

>  <SCORE.INTER.VDW>
-14.1239

>  <SCORE.INTER.norm>
-0.0966601

>  <SCORE.INTRA>
-4.54363

>  <SCORE.INTRA.DIHEDRAL>
-4.71713

>  <SCORE.INTRA.DIHEDRAL.0>
12.2703

>  <SCORE.INTRA.POLAR>
0

>  <SCORE.INTRA.POLAR.0>
0

>  <SCORE.INTRA.REPUL>
0

>  <SCORE.INTRA.REPUL.0>
0

>  <SCORE.INTRA.SOLV>
-0.270563

>  <SCORE.INTRA.SOLV.lig_0>
-64.3214

>  <SCORE.INTRA.VDW>
-2.04978

>  <SCORE.INTRA.VDW.0>
-1.67301

>  <SCORE.INTRA.norm>
-0.133636

>  <SCORE.RESTR>
0.02464

>  <SCORE.RESTR.CAVITY>
0.02464

>  <SCORE.RESTR.norm>
0.000724706

>  <SCORE.SYSTEM>
0

>  <SCORE.SYSTEM.CONST>
0

>  <SCORE.SYSTEM.DIHEDRAL>
0

>  <SCORE.SYSTEM.SOLV>
0

>  <SCORE.SYSTEM.norm>
0

>  <SCORE.heavy>
34

>  <SCORE.norm>
-0.229572

>  <RMSD>
10.884

$$$$
ligand
 OpenBabel11021811483D
libRbt.so/2013.1/901 2013/11/27
 34 36  0  0  0  0  0  0  0  0999 V2000
    9.9708   42.0884   70.4054 N   0  0  0  0  0  0  0  0  0  0  0  0
   11.0083   42.3017   69.3696 C   0  0  1  0  0  0  0  0  0  0  0  0
    8.6893   41.8103   70.1325 C   0  0  0  0  0  0  0  0  0  0  0  0
    8.2290   41.7023   68.9925 O   0  0  0  0  0  0  0  0  0  0  0  0
    8.0058   42.1006   81.5204 N   0  0  0  0  0  0  0  0  0  0  0  0
   10.9145   43.7378   68.8274 C   0  0  0  0  0  0  0  0  0  0  0  0
   11.8603   43.9557   67.6385 C   0  0  0  0  0  0  0  0  0  0  0  0
   11.3270   43.2710   66.3708 C   0  0  0  0  0  0  0  0  0  0  0  0
   10.1404   42.8681   66.3942 O   0  0  0  0  0  0  0  0  0  0  0  0
   12.1175   43.1678   65.4047 O   0  0  0  0  0  0  0  0  0  0  0  0
    6.9920   40.5630   80.1181 N   0  0  0  0  0  0  0  0  0  0  0  0
   12.9546   40.9303   69.6511 O   0  0  0  0  0  0  0  0  0  0  0  0
    7.1511   41.8306   80.5370 C   0  0  0  0  0  0  0  0  0  0  0  0
   12.9556   42.9609   70.5816 O   0  0  0  0  0  0  0  0  0  0  0  0
    6.4260   42.8745   79.9489 N   0  0  0  0  0  0  0  0  0  0  0  0
    5.5407   42.5814   78.9203 C   0  0  0  0  0  0  0  0  0  0  0  0
    5.4239   41.2663   78.4899 C   0  0  0  0  0  0  0  0  0  0  0  0
    4.9010   43.4814   78.3819 O   0  0  0  0  0  0  0  0  0  0  0  0
    3.3550   41.5852   77.4315 C   0  0  0  0  0  0  0  0  0  0  0  0
    4.5009   40.9156   77.5109 N   0  0  0  0  0  0  0  0  0  0  0  0
    2.9246   41.9577   76.3423 O   0  0  0  0  0  0  0  0  0  0  0  0
    4.7119   39.6988   76.7191 C   0  0  2  0  0  0  0  0  0  0  0  0
    5.0145   38.5391   77.6715 C   0  0  0  0  0  0  0  0  0  0  0  0
    6.1411   40.2618   79.1255 C   0  0  0  0  0  0  0  0  0  0  0  0
    5.9886   38.9314   78.7197 N   0  0  0  0  0  0  0  0  0  0  0  0
    5.8714   39.8924   75.7360 C   0  0  0  0  0  0  0  0  0  0  0  0
    5.5195   40.9253   74.7539 N   0  0  0  0  0  0  0  0  0  0  0  0
    7.8056   41.5779   71.3714 C   0  0  0  0  0  0  0  0  0  0  0  0
    7.3937   40.2928   71.7160 C   0  0  0  0  0  0  0  0  0  0  0  0
    6.6405   40.0776   72.8684 C   0  0  0  0  0  0  0  0  0  0  0  0
    6.2528   41.1504   73.6642 C   0  0  0  0  0  0  0  0  0  0  0  0
    6.6557   42.4354   73.3167 C   0  0  0  0  0  0  0  0  0  0  0  0
    7.4394   42.6476   72.1834 C   0  0  0  0  0  0  0  0  0  0  0  0
   12.4286   42.0394   69.9117 C   0  0  0  0  0  0  0  0  0  0  0  0
  1  3  1  0  0  0  0
  2  1  1  1  0  0  0
  2  6  1  0  0  0  0
  2 34  1  0  0  0  0
  3  4  2  0  0  0  0
  3 28  1  0  0  0  0
  5 13  1  0  0  0  0
  6  7  1  0  0  0  0
  7  8  1  0  0  0  0
  8  9  1  0  0  0  0
  8 10  1  0  0  0  0
 11 13  2  0  0  0  0
 11 24  1  0  0  0  0
 12 34  1  0  0  0  0
 13 15  1  0  0  0  0
 14 34  1  0  0  0  0
 15 16  1  0  0  0  0
 16 17  1  0  0  0  0
 16 18  2  0  0  0  0
 17 20  1  0  0  0  0
 17 24  2  0  0  0  0
 19 21  1  0  0  0  0
 19 20  1  0  0  0  0
 20 22  1  0  0  0  0
 22 23  1  0  0  0  0
 22 26  1  6  0  0  0
 23 25  1  0  0  0  0
 24 25  1  0  0  0  0
 26 27  1  0  0  0  0
 27 31  1  0  0  0  0
 28 29  2  0  0  0  0
 28 33  1  0  0  0  0
 29 30  1  0  0  0  0
 30 31  2  0  0  0  0
 31 32  1  0  0  0  0
 32 33  2  0  0  0  0
M  END
>  <CHROM.1>
80.80694819,-173.35414570,99.66710297,74.10299928,12.79512980,135.08390413
-64.84410609,-169.37934757,48.41858634,-105.73937910,7.79294200,41.68714521
73.76295251,-1.06668457,0.24209079,1.58112145

>  <Name>
ligand

>  <RI>
0

>  <Rbt.Current_Directory>
/home/itssahil/PROJECTS/Mol_Feturizer/New_Systems/rnas/3SUH

>  <Rbt.Executable>
rbdock ($Id: //depot/dev/client3/rdock/2013.1/src/exe/rbdock.cxx#4 $)

>  <Rbt.Library>
libRbt.so (2013.1, Build901 2013/11/27)

>  <Rbt.Parameter_File>
/export/apps/rDock/src/rDock_2013.1_src/data/scripts/dock_solv.prm

>  <Rbt.Receptor>
prm/pocket_docking_3.prm

>  <SCORE>
-9.62432

>  <SCORE.INTER>
-7.11681

>  <SCORE.INTER.CONST>
1

>  <SCORE.INTER.POLAR>
0

>  <SCORE.INTER.ROT>
10

>  <SCORE.INTER.SOLV>
8.30389

>  <SCORE.INTER.VDW>
-17.7792

>  <SCORE.INTER.norm>
-0.209318

>  <SCORE.INTRA>
-2.50816

>  <SCORE.INTRA.DIHEDRAL>
-4.60281

>  <SCORE.INTRA.DIHEDRAL.0>
12.2703

>  <SCORE.INTRA.POLAR>
0

>  <SCORE.INTRA.POLAR.0>
0

>  <SCORE.INTRA.REPUL>
0

>  <SCORE.INTRA.REPUL.0>
0

>  <SCORE.INTRA.SOLV>
-0.162936

>  <SCORE.INTRA.SOLV.lig_0>
-64.3214

>  <SCORE.INTRA.VDW>
-0.125281

>  <SCORE.INTRA.VDW.0>
-1.67301

>  <SCORE.INTRA.norm>
-0.0737693

>  <SCORE.RESTR>
0.000638008

>  <SCORE.RESTR.CAVITY>
0.000638008

>  <SCORE.RESTR.norm>
1.87649e-05

>  <SCORE.SYSTEM>
0

>  <SCORE.SYSTEM.CONST>
0

>  <SCORE.SYSTEM.DIHEDRAL>
0

>  <SCORE.SYSTEM.SOLV>
0

>  <SCORE.SYSTEM.norm>
0

>  <SCORE.heavy>
34

>  <SCORE.norm>
-0.283068

>  <RMSD>
10.888

$$$$
ligand
 OpenBabel11021811483D
libRbt.so/2013.1/901 2013/11/27
 34 36  0  0  0  0  0  0  0  0999 V2000
    9.6596   42.5283   70.0226 N   0  0  0  0  0  0  0  0  0  0  0  0
   10.6635   42.4432   68.9364 C   0  0  1  0  0  0  0  0  0  0  0  0
    8.3767   42.1694   69.8834 C   0  0  0  0  0  0  0  0  0  0  0  0
    7.8870   41.7307   68.8390 O   0  0  0  0  0  0  0  0  0  0  0  0
    2.0920   40.9856   80.4435 N   0  0  0  0  0  0  0  0  0  0  0  0
   11.2674   43.8335   68.6761 C   0  0  0  0  0  0  0  0  0  0  0  0
   12.2756   43.8039   67.5195 C   0  0  0  0  0  0  0  0  0  0  0  0
   11.5750   43.5430   66.1773 C   0  0  0  0  0  0  0  0  0  0  0  0
   12.2144   43.8186   65.1351 O   0  0  0  0  0  0  0  0  0  0  0  0
   10.4158   43.0709   66.2231 O   0  0  0  0  0  0  0  0  0  0  0  0
    3.5894   42.4793   79.5027 N   0  0  0  0  0  0  0  0  0  0  0  0
   12.8394   41.8909   69.7780 O   0  0  0  0  0  0  0  0  0  0  0  0
    3.0896   41.2350   79.5991 C   0  0  0  0  0  0  0  0  0  0  0  0
   11.5650   40.2342   68.9905 O   0  0  0  0  0  0  0  0  0  0  0  0
    3.6076   40.1937   78.8186 N   0  0  0  0  0  0  0  0  0  0  0  0
    4.6451   40.4668   77.9374 C   0  0  0  0  0  0  0  0  0  0  0  0
    5.1166   41.7693   77.8390 C   0  0  0  0  0  0  0  0  0  0  0  0
    5.1092   39.5723   77.2349 O   0  0  0  0  0  0  0  0  0  0  0  0
    7.1552   41.1696   76.8457 C   0  0  0  0  0  0  0  0  0  0  0  0
    6.1987   42.0762   77.0215 N   0  0  0  0  0  0  0  0  0  0  0  0
    7.5663   40.9076   75.7175 O   0  0  0  0  0  0  0  0  0  0  0  0
    6.3705   43.4484   76.5320 C   0  0  2  0  0  0  0  0  0  0  0  0
    6.2476   44.4114   77.7156 C   0  0  0  0  0  0  0  0  0  0  0  0
    4.5917   42.7610   78.6566 C   0  0  0  0  0  0  0  0  0  0  0  0
    5.0986   44.0634   78.5875 N   0  0  0  0  0  0  0  0  0  0  0  0
    5.3140   43.7761   75.4713 C   0  0  0  0  0  0  0  0  0  0  0  0
    5.1772   42.6459   74.5444 N   0  0  0  0  0  0  0  0  0  0  0  0
    7.5325   42.2968   71.1645 C   0  0  0  0  0  0  0  0  0  0  0  0
    7.1044   43.5454   71.6087 C   0  0  0  0  0  0  0  0  0  0  0  0
    6.2940   43.6541   72.7370 C   0  0  0  0  0  0  0  0  0  0  0  0
    5.9402   42.5193   73.4592 C   0  0  0  0  0  0  0  0  0  0  0  0
    6.3743   41.2724   73.0221 C   0  0  0  0  0  0  0  0  0  0  0  0
    7.1556   41.1594   71.8730 C   0  0  0  0  0  0  0  0  0  0  0  0
   11.7871   41.4386   69.2654 C   0  0  0  0  0  0  0  0  0  0  0  0
  1  3  1  0  0  0  0
  2  1  1  1  0  0  0
  2  6  1  0  0  0  0
  2 34  1  0  0  0  0
  3  4  2  0  0  0  0
  3 28  1  0  0  0  0
  5 13  1  0  0  0  0
  6  7  1  0  0  0  0
  7  8  1  0  0  0  0
  8  9  1  0  0  0  0
  8 10  1  0  0  0  0
 11 13  2  0  0  0  0
 11 24  1  0  0  0  0
 12 34  1  0  0  0  0
 13 15  1  0  0  0  0
 14 34  1  0  0  0  0
 15 16  1  0  0  0  0
 16 17  1  0  0  0  0
 16 18  2  0  0  0  0
 17 20  1  0  0  0  0
 17 24  2  0  0  0  0
 19 21  1  0  0  0  0
 19 20  1  0  0  0  0
 20 22  1  0  0  0  0
 22 23  1  0  0  0  0
 22 26  1  6  0  0  0
 23 25  1  0  0  0  0
 24 25  1  0  0  0  0
 26 27  1  0  0  0  0
 27 31  1  0  0  0  0
 28 29  2  0  0  0  0
 28 33  1  0  0  0  0
 29 30  1  0  0  0  0
 30 31  2  0  0  0  0
 31 32  1  0  0  0  0
 32 33  2  0  0  0  0
M  END
>  <CHROM.1>
121.84368723,-177.80292612,-95.20447508,68.47111852,162.80837913,132.23069691
-43.65108498,-87.75390677,-37.28007186,75.90641247,7.50110377,42.24644483
73.31810928,-0.48390073,-0.92479224,2.64480446

>  <Name>
ligand

>  <RI>
0

>  <Rbt.Current_Directory>
/home/itssahil/PROJECTS/Mol_Feturizer/New_Systems/rnas/3SUH

>  <Rbt.Executable>
rbdock ($Id: //depot/dev/client3/rdock/2013.1/src/exe/rbdock.cxx#4 $)

>  <Rbt.Library>
libRbt.so (2013.1, Build901 2013/11/27)

>  <Rbt.Parameter_File>
/export/apps/rDock/src/rDock_2013.1_src/data/scripts/dock_solv.prm

>  <Rbt.Receptor>
prm/pocket_docking_3.prm

>  <SCORE>
-10.7965

>  <SCORE.INTER>
-9.66216

>  <SCORE.INTER.CONST>
1

>  <SCORE.INTER.POLAR>
0

>  <SCORE.INTER.ROT>
10

>  <SCORE.INTER.SOLV>
8.55864

>  <SCORE.INTER.VDW>
-19.561

>  <SCORE.INTER.norm>
-0.284181

>  <SCORE.INTRA>
-1.13433

>  <SCORE.INTRA.DIHEDRAL>
-2.9844

>  <SCORE.INTRA.DIHEDRAL.0>
12.2703

>  <SCORE.INTRA.POLAR>
0

>  <SCORE.INTRA.POLAR.0>
0

>  <SCORE.INTRA.REPUL>
0

>  <SCORE.INTRA.REPUL.0>
0

>  <SCORE.INTRA.SOLV>
0.468629

>  <SCORE.INTRA.SOLV.lig_0>
-64.3214

>  <SCORE.INTRA.VDW>
0.123558

>  <SCORE.INTRA.VDW.0>
-1.67301

>  <SCORE.INTRA.norm>
-0.0333626

>  <SCORE.RESTR>
0

>  <SCORE.RESTR.CAVITY>
0

>  <SCORE.RESTR.norm>
0

>  <SCORE.SYSTEM>
0

>  <SCORE.SYSTEM.CONST>
0

>  <SCORE.SYSTEM.DIHEDRAL>
0

>  <SCORE.SYSTEM.SOLV>
0

>  <SCORE.SYSTEM.norm>
0

>  <SCORE.heavy>
34

>  <SCORE.norm>
-0.317544

>  <RMSD>
10.900

$$$$
ligand
 OpenBabel11021811483D
libRbt.so/2013.1/901 2013/11/27
 34 36  0  0  0  0  0  0  0  0999 V2000
    7.7259   42.6709   70.3575 N   0  0  0  0  0  0  0  0  0  0  0  0
    7.9144   42.4759   68.9010 C   0  0  1  0  0  0  0  0  0  0  0  0
    7.1314   43.7433   70.8965 C   0  0  0  0  0  0  0  0  0  0  0  0
    6.6768   44.6873   70.2442 O   0  0  0  0  0  0  0  0  0  0  0  0
    0.4530   38.9448   77.6158 N   0  0  0  0  0  0  0  0  0  0  0  0
    9.1646   43.2388   68.4316 C   0  0  0  0  0  0  0  0  0  0  0  0
   10.4391   42.6947   69.0910 C   0  0  0  0  0  0  0  0  0  0  0  0
   11.6960   43.3445   68.4924 C   0  0  0  0  0  0  0  0  0  0  0  0
   11.8485   43.2589   67.2512 O   0  0  0  0  0  0  0  0  0  0  0  0
   12.4759   43.9150   69.2893 O   0  0  0  0  0  0  0  0  0  0  0  0
    1.6740   40.9113   77.6279 N   0  0  0  0  0  0  0  0  0  0  0  0
    7.3617   40.5656   67.5619 O   0  0  0  0  0  0  0  0  0  0  0  0
    1.5078   39.6403   78.0330 C   0  0  0  0  0  0  0  0  0  0  0  0
    8.8215   40.2932   69.2304 O   0  0  0  0  0  0  0  0  0  0  0  0
    2.4347   39.0363   78.8920 N   0  0  0  0  0  0  0  0  0  0  0  0
    3.5341   39.7701   79.3169 C   0  0  0  0  0  0  0  0  0  0  0  0
    3.6929   41.0698   78.8542 C   0  0  0  0  0  0  0  0  0  0  0  0
    4.3662   39.2590   80.0622 O   0  0  0  0  0  0  0  0  0  0  0  0
    5.1854   41.7045   80.5488 C   0  0  0  0  0  0  0  0  0  0  0  0
    4.7402   41.8648   79.3062 N   0  0  0  0  0  0  0  0  0  0  0  0
    4.4930   42.0393   81.5073 O   0  0  0  0  0  0  0  0  0  0  0  0
    5.2002   42.9916   78.4871 C   0  0  2  0  0  0  0  0  0  0  0  0
    3.9845   43.8206   78.0647 C   0  0  0  0  0  0  0  0  0  0  0  0
    2.7304   41.6349   78.0286 C   0  0  0  0  0  0  0  0  0  0  0  0
    2.8696   42.9594   77.5992 N   0  0  0  0  0  0  0  0  0  0  0  0
    5.9506   42.4851   77.2506 C   0  0  0  0  0  0  0  0  0  0  0  0
    6.5528   43.6192   76.5390 N   0  0  0  0  0  0  0  0  0  0  0  0
    7.0024   43.7021   72.4299 C   0  0  0  0  0  0  0  0  0  0  0  0
    7.0609   44.8761   73.1769 C   0  0  0  0  0  0  0  0  0  0  0  0
    6.8884   44.8432   74.5593 C   0  0  0  0  0  0  0  0  0  0  0  0
    6.7004   43.6310   75.2146 C   0  0  0  0  0  0  0  0  0  0  0  0
    6.6507   42.4566   74.4712 C   0  0  0  0  0  0  0  0  0  0  0  0
    6.7876   42.4923   73.0843 C   0  0  0  0  0  0  0  0  0  0  0  0
    8.0424   40.9841   68.5295 C   0  0  0  0  0  0  0  0  0  0  0  0
  1  3  1  0  0  0  0
  2  1  1  1  0  0  0
  2  6  1  0  0  0  0
  2 34  1  0  0  0  0
  3  4  2  0  0  0  0
  3 28  1  0  0  0  0
  5 13  1  0  0  0  0
  6  7  1  0  0  0  0
  7  8  1  0  0  0  0
  8  9  1  0  0  0  0
  8 10  1  0  0  0  0
 11 13  2  0  0  0  0
 11 24  1  0  0  0  0
 12 34  1  0  0  0  0
 13 15  1  0  0  0  0
 14 34  1  0  0  0  0
 15 16  1  0  0  0  0
 16 17  1  0  0  0  0
 16 18  2  0  0  0  0
 17 20  1  0  0  0  0
 17 24  2  0  0  0  0
 19 21  1  0  0  0  0
 19 20  1  0  0  0  0
 20 22  1  0  0  0  0
 22 23  1  0  0  0  0
 22 26  1  6  0  0  0
 23 25  1  0  0  0  0
 24 25  1  0  0  0  0
 26 27  1  0  0  0  0
 27 31  1  0  0  0  0
 28 29  2  0  0  0  0
 28 33  1  0  0  0  0
 29 30  1  0  0  0  0
 30 31  2  0  0  0  0
 31 32  1  0  0  0  0
 32 33  2  0  0  0  0
M  END
>  <CHROM.1>
82.48980012,63.20081623,132.90034891,173.12488046,-55.85773250,-69.60828807
-172.62600423,-147.76177432,160.65435783,147.50877223,6.22663778,42.20137709
74.32491498,0.82419434,-0.72055445,-1.94919378

>  <Name>
ligand

>  <RI>
0

>  <Rbt.Current_Directory>
/home/itssahil/PROJECTS/Mol_Feturizer/New_Systems/rnas/3SUH

>  <Rbt.Executable>
rbdock ($Id: //depot/dev/client3/rdock/2013.1/src/exe/rbdock.cxx#4 $)

>  <Rbt.Library>
libRbt.so (2013.1, Build901 2013/11/27)

>  <Rbt.Parameter_File>
/export/apps/rDock/src/rDock_2013.1_src/data/scripts/dock_solv.prm

>  <Rbt.Receptor>
prm/pocket_docking_3.prm

>  <SCORE>
-4.34333

>  <SCORE.INTER>
-1.75075

>  <SCORE.INTER.CONST>
1

>  <SCORE.INTER.POLAR>
0

>  <SCORE.INTER.ROT>
10

>  <SCORE.INTER.SOLV>
4.85734

>  <SCORE.INTER.VDW>
-13.0529

>  <SCORE.INTER.norm>
-0.0514925

>  <SCORE.INTRA>
-2.59259

>  <SCORE.INTRA.DIHEDRAL>
-4.64986

>  <SCORE.INTRA.DIHEDRAL.0>
12.2703

>  <SCORE.INTRA.POLAR>
0

>  <SCORE.INTRA.POLAR.0>
0

>  <SCORE.INTRA.REPUL>
0

>  <SCORE.INTRA.REPUL.0>
0

>  <SCORE.INTRA.SOLV>
-0.904697

>  <SCORE.INTRA.SOLV.lig_0>
-64.3214

>  <SCORE.INTRA.VDW>
0.184688

>  <SCORE.INTRA.VDW.0>
-1.67301

>  <SCORE.INTRA.norm>
-0.0762526

>  <SCORE.RESTR>
0

>  <SCORE.RESTR.CAVITY>
0

>  <SCORE.RESTR.norm>
0

>  <SCORE.SYSTEM>
0

>  <SCORE.SYSTEM.CONST>
0

>  <SCORE.SYSTEM.DIHEDRAL>
0

>  <SCORE.SYSTEM.SOLV>
0

>  <SCORE.SYSTEM.norm>
0

>  <SCORE.heavy>
34

>  <SCORE.norm>
-0.127745

>  <RMSD>
10.918

$$$$
ligand
 OpenBabel11021811483D
libRbt.so/2013.1/901 2013/11/27
 34 36  0  0  0  0  0  0  0  0999 V2000
    8.7664   42.6299   69.6398 N   0  0  0  0  0  0  0  0  0  0  0  0
    9.6168   42.5629   68.4286 C   0  0  1  0  0  0  0  0  0  0  0  0
    7.9939   41.6223   70.0665 C   0  0  0  0  0  0  0  0  0  0  0  0
    7.9020   40.5292   69.5008 O   0  0  0  0  0  0  0  0  0  0  0  0
    5.6697   39.7377   82.3523 N   0  0  0  0  0  0  0  0  0  0  0  0
   10.5008   43.8185   68.3436 C   0  0  0  0  0  0  0  0  0  0  0  0
   11.1421   44.1506   69.6977 C   0  0  0  0  0  0  0  0  0  0  0  0
   12.2325   45.2226   69.5488 C   0  0  0  0  0  0  0  0  0  0  0  0
   13.2914   44.8850   68.9692 O   0  0  0  0  0  0  0  0  0  0  0  0
   11.9821   46.3574   70.0159 O   0  0  0  0  0  0  0  0  0  0  0  0
    6.0270   39.5582   80.0723 N   0  0  0  0  0  0  0  0  0  0  0  0
   10.0168   40.2568   67.9092 O   0  0  0  0  0  0  0  0  0  0  0  0
    5.2438   39.9166   81.1045 C   0  0  0  0  0  0  0  0  0  0  0  0
   11.6480   41.4069   68.9118 O   0  0  0  0  0  0  0  0  0  0  0  0
    3.9803   40.4784   80.8822 N   0  0  0  0  0  0  0  0  0  0  0  0
    3.5484   40.6650   79.5759 C   0  0  0  0  0  0  0  0  0  0  0  0
    4.3950   40.3136   78.5327 C   0  0  0  0  0  0  0  0  0  0  0  0
    2.4483   41.1653   79.3554 O   0  0  0  0  0  0  0  0  0  0  0  0
    2.6962   40.2247   76.9176 C   0  0  0  0  0  0  0  0  0  0  0  0
    3.9787   40.4184   77.2102 N   0  0  0  0  0  0  0  0  0  0  0  0
    1.9690   41.1763   76.6420 O   0  0  0  0  0  0  0  0  0  0  0  0
    4.9785   40.5400   76.1435 C   0  0  2  0  0  0  0  0  0  0  0  0
    6.0348   39.4484   76.3332 C   0  0  0  0  0  0  0  0  0  0  0  0
    5.6258   39.7312   78.8038 C   0  0  0  0  0  0  0  0  0  0  0  0
    6.4587   39.3372   77.7508 N   0  0  0  0  0  0  0  0  0  0  0  0
    5.6356   41.9240   76.1790 C   0  0  0  0  0  0  0  0  0  0  0  0
    5.3042   42.6601   74.9528 N   0  0  0  0  0  0  0  0  0  0  0  0
    7.2388   41.9041   71.3780 C   0  0  0  0  0  0  0  0  0  0  0  0
    6.9458   40.8689   72.2625 C   0  0  0  0  0  0  0  0  0  0  0  0
    6.3117   41.1336   73.4748 C   0  0  0  0  0  0  0  0  0  0  0  0
    5.9233   42.4300   73.7954 C   0  0  0  0  0  0  0  0  0  0  0  0
    6.2070   43.4637   72.9093 C   0  0  0  0  0  0  0  0  0  0  0  0
    6.8732   43.2050   71.7122 C   0  0  0  0  0  0  0  0  0  0  0  0
   10.5013   41.2991   68.4127 C   0  0  0  0  0  0  0  0  0  0  0  0
  1  3  1  0  0  0  0
  2  1  1  1  0  0  0
  2  6  1  0  0  0  0
  2 34  1  0  0  0  0
  3  4  2  0  0  0  0
  3 28  1  0  0  0  0
  5 13  1  0  0  0  0
  6  7  1  0  0  0  0
  7  8  1  0  0  0  0
  8  9  1  0  0  0  0
  8 10  1  0  0  0  0
 11 13  2  0  0  0  0
 11 24  1  0  0  0  0
 12 34  1  0  0  0  0
 13 15  1  0  0  0  0
 14 34  1  0  0  0  0
 15 16  1  0  0  0  0
 16 17  1  0  0  0  0
 16 18  2  0  0  0  0
 17 20  1  0  0  0  0
 17 24  2  0  0  0  0
 19 21  1  0  0  0  0
 19 20  1  0  0  0  0
 20 22  1  0  0  0  0
 22 23  1  0  0  0  0
 22 26  1  1  0  0  0
 23 25  1  0  0  0  0
 24 25  1  0  0  0  0
 26 27  1  0  0  0  0
 27 31  1  0  0  0  0
 28 29  2  0  0  0  0
 28 33  1  0  0  0  0
 29 30  1  0  0  0  0
 30 31  2  0  0  0  0
 31 32  1  0  0  0  0
 32 33  2  0  0  0  0
M  END
>  <CHROM.1>
-172.58522186,45.27362756,87.93771902,168.63162738,-70.37466917,105.54730428
-115.31608669,-78.65396338,35.45693735,-148.98839769,7.08440765,41.63522368
73.99114650,0.94434031,-0.48037589,-1.61830885

>  <Name>
ligand

>  <RI>
0

>  <Rbt.Current_Directory>
/home/itssahil/PROJECTS/Mol_Feturizer/New_Systems/rnas/3SUH

>  <Rbt.Executable>
rbdock ($Id: //depot/dev/client3/rdock/2013.1/src/exe/rbdock.cxx#4 $)

>  <Rbt.Library>
libRbt.so (2013.1, Build901 2013/11/27)

>  <Rbt.Parameter_File>
/export/apps/rDock/src/rDock_2013.1_src/data/scripts/dock_solv.prm

>  <Rbt.Receptor>
prm/pocket_docking_2.prm

>  <SCORE>
-1.79294

>  <SCORE.INTER>
-3.82003

>  <SCORE.INTER.CONST>
1

>  <SCORE.INTER.POLAR>
0

>  <SCORE.INTER.ROT>
10

>  <SCORE.INTER.SOLV>
9.39318

>  <SCORE.INTER.VDW>
-15.9444

>  <SCORE.INTER.norm>
-0.112354

>  <SCORE.INTRA>
0.853215

>  <SCORE.INTRA.DIHEDRAL>
1.33783

>  <SCORE.INTRA.DIHEDRAL.0>
12.2703

>  <SCORE.INTRA.POLAR>
0

>  <SCORE.INTRA.POLAR.0>
0

>  <SCORE.INTRA.REPUL>
0

>  <SCORE.INTRA.REPUL.0>
0

>  <SCORE.INTRA.SOLV>
-0.654017

>  <SCORE.INTRA.SOLV.lig_0>
-64.3214

>  <SCORE.INTRA.VDW>
0.511308

>  <SCORE.INTRA.VDW.0>
-1.67301

>  <SCORE.INTRA.norm>
0.0250946

>  <SCORE.RESTR>
1.17388

>  <SCORE.RESTR.CAVITY>
1.17388

>  <SCORE.RESTR.norm>
0.0345259

>  <SCORE.SYSTEM>
0

>  <SCORE.SYSTEM.CONST>
0

>  <SCORE.SYSTEM.DIHEDRAL>
0

>  <SCORE.SYSTEM.SOLV>
0

>  <SCORE.SYSTEM.norm>
0

>  <SCORE.heavy>
34

>  <SCORE.norm>
-0.0527334

>  <RMSD>
10.933

$$$$
ligand
 OpenBabel11021811483D
libRbt.so/2013.1/901 2013/11/27
 34 36  0  0  0  0  0  0  0  0999 V2000
    9.7578   43.2754   71.3614 N   0  0  0  0  0  0  0  0  0  0  0  0
   10.9337   43.2557   70.4605 C   0  0  1  0  0  0  0  0  0  0  0  0
    8.8185   42.3207   71.3842 C   0  0  0  0  0  0  0  0  0  0  0  0
    8.8251   41.3218   70.6595 O   0  0  0  0  0  0  0  0  0  0  0  0
    8.6296   39.0508   80.8819 N   0  0  0  0  0  0  0  0  0  0  0  0
   10.4687   43.3298   68.9965 C   0  0  0  0  0  0  0  0  0  0  0  0
   11.6342   43.1132   68.0218 C   0  0  0  0  0  0  0  0  0  0  0  0
   11.1768   43.2714   66.5638 C   0  0  0  0  0  0  0  0  0  0  0  0
   12.0048   43.7491   65.7530 O   0  0  0  0  0  0  0  0  0  0  0  0
   10.0094   42.9086   66.2912 O   0  0  0  0  0  0  0  0  0  0  0  0
    7.3125   39.3860   79.0080 N   0  0  0  0  0  0  0  0  0  0  0  0
   13.1072   44.1190   70.9884 O   0  0  0  0  0  0  0  0  0  0  0  0
    7.5456   39.5777   80.3181 C   0  0  0  0  0  0  0  0  0  0  0  0
   11.4277   45.5723   70.7517 O   0  0  0  0  0  0  0  0  0  0  0  0
    6.6585   40.3281   81.1001 N   0  0  0  0  0  0  0  0  0  0  0  0
    5.5333   40.8771   80.5000 C   0  0  0  0  0  0  0  0  0  0  0  0
    5.3390   40.6871   79.1382 C   0  0  0  0  0  0  0  0  0  0  0  0
    4.7459   41.5477   81.1628 O   0  0  0  0  0  0  0  0  0  0  0  0
    3.0511   41.2022   79.1887 C   0  0  0  0  0  0  0  0  0  0  0  0
    4.1928   41.1595   78.5085 N   0  0  0  0  0  0  0  0  0  0  0  0
    2.5103   40.1647   79.5650 O   0  0  0  0  0  0  0  0  0  0  0  0
    4.2117   41.4115   77.0634 C   0  0  2  0  0  0  0  0  0  0  0  0
    4.7958   40.1848   76.3583 C   0  0  0  0  0  0  0  0  0  0  0  0
    6.2305   39.9092   78.4118 C   0  0  0  0  0  0  0  0  0  0  0  0
    6.0090   39.6823   77.0490 N   0  0  0  0  0  0  0  0  0  0  0  0
    5.0511   42.6538   76.7462 C   0  0  0  0  0  0  0  0  0  0  0  0
    4.8304   43.0565   75.3518 N   0  0  0  0  0  0  0  0  0  0  0  0
    7.7178   42.5290   72.4401 C   0  0  0  0  0  0  0  0  0  0  0  0
    6.9786   41.4482   72.9146 C   0  0  0  0  0  0  0  0  0  0  0  0
    6.0211   41.6299   73.9105 C   0  0  0  0  0  0  0  0  0  0  0  0
    5.7609   42.9014   74.4105 C   0  0  0  0  0  0  0  0  0  0  0  0
    6.4920   43.9832   73.9314 C   0  0  0  0  0  0  0  0  0  0  0  0
    7.4750   43.7970   72.9605 C   0  0  0  0  0  0  0  0  0  0  0  0
   11.9092   44.4131   70.7582 C   0  0  0  0  0  0  0  0  0  0  0  0
  1  3  1  0  0  0  0
  2  1  1  1  0  0  0
  2  6  1  0  0  0  0
  2 34  1  0  0  0  0
  3  4  2  0  0  0  0
  3 28  1  0  0  0  0
  5 13  1  0  0  0  0
  6  7  1  0  0  0  0
  7  8  1  0  0  0  0
  8  9  1  0  0  0  0
  8 10  1  0  0  0  0
 11 13  2  0  0  0  0
 11 24  1  0  0  0  0
 12 34  1  0  0  0  0
 13 15  1  0  0  0  0
 14 34  1  0  0  0  0
 15 16  1  0  0  0  0
 16 17  1  0  0  0  0
 16 18  2  0  0  0  0
 17 20  1  0  0  0  0
 17 24  2  0  0  0  0
 19 21  1  0  0  0  0
 19 20  1  0  0  0  0
 20 22  1  0  0  0  0
 22 23  1  0  0  0  0
 22 26  1  1  0  0  0
 23 25  1  0  0  0  0
 24 25  1  0  0  0  0
 26 27  1  0  0  0  0
 27 31  1  0  0  0  0
 28 29  2  0  0  0  0
 28 33  1  0  0  0  0
 29 30  1  0  0  0  0
 30 31  2  0  0  0  0
 31 32  1  0  0  0  0
 32 33  2  0  0  0  0
M  END
>  <CHROM.1>
63.38238590,-171.95030913,125.38943141,-176.63353167,146.72307364,-65.68978439
-168.05674998,-108.65179952,74.28063351,-156.75137307,7.61102216,42.01047350
74.43359066,-1.09132515,-0.01377313,1.84866133

>  <Name>
ligand

>  <RI>
0

>  <Rbt.Current_Directory>
/home/itssahil/PROJECTS/Mol_Feturizer/New_Systems/rnas/3SUH

>  <Rbt.Executable>
rbdock ($Id: //depot/dev/client3/rdock/2013.1/src/exe/rbdock.cxx#4 $)

>  <Rbt.Library>
libRbt.so (2013.1, Build901 2013/11/27)

>  <Rbt.Parameter_File>
/export/apps/rDock/src/rDock_2013.1_src/data/scripts/dock_solv.prm

>  <Rbt.Receptor>
prm/pocket_docking_2.prm

>  <SCORE>
-3.46693

>  <SCORE.INTER>
-0.850587

>  <SCORE.INTER.CONST>
1

>  <SCORE.INTER.POLAR>
0

>  <SCORE.INTER.ROT>
10

>  <SCORE.INTER.SOLV>
5.00588

>  <SCORE.INTER.VDW>
-12.5024

>  <SCORE.INTER.norm>
-0.0250173

>  <SCORE.INTRA>
-2.89668

>  <SCORE.INTRA.DIHEDRAL>
-4.05235

>  <SCORE.INTRA.DIHEDRAL.0>
12.2703

>  <SCORE.INTRA.POLAR>
0

>  <SCORE.INTRA.POLAR.0>
0

>  <SCORE.INTRA.REPUL>
0

>  <SCORE.INTRA.REPUL.0>
0

>  <SCORE.INTRA.SOLV>
-0.952513

>  <SCORE.INTRA.SOLV.lig_0>
-64.3214

>  <SCORE.INTRA.VDW>
-0.394246

>  <SCORE.INTRA.VDW.0>
-1.67301

>  <SCORE.INTRA.norm>
-0.0851964

>  <SCORE.RESTR>
0.280335

>  <SCORE.RESTR.CAVITY>
0.280335

>  <SCORE.RESTR.norm>
0.00824515

>  <SCORE.SYSTEM>
0

>  <SCORE.SYSTEM.CONST>
0

>  <SCORE.SYSTEM.DIHEDRAL>
0

>  <SCORE.SYSTEM.SOLV>
0

>  <SCORE.SYSTEM.norm>
0

>  <SCORE.heavy>
34

>  <SCORE.norm>
-0.101968

>  <RMSD>
10.934

$$$$
ligand
 OpenBabel11021811483D
libRbt.so/2013.1/901 2013/11/27
 34 36  0  0  0  0  0  0  0  0999 V2000
    9.4016   42.0447   71.1861 N   0  0  0  0  0  0  0  0  0  0  0  0
   10.3712   42.0995   70.0673 C   0  0  1  0  0  0  0  0  0  0  0  0
    8.6900   43.0974   71.6096 C   0  0  0  0  0  0  0  0  0  0  0  0
    8.7621   44.2278   71.1194 O   0  0  0  0  0  0  0  0  0  0  0  0
    4.0046   42.1112   82.5155 N   0  0  0  0  0  0  0  0  0  0  0  0
   11.1492   40.7752   69.9880 C   0  0  0  0  0  0  0  0  0  0  0  0
   10.2214   39.5926   69.6781 C   0  0  0  0  0  0  0  0  0  0  0  0
    9.9382   39.4877   68.1717 C   0  0  0  0  0  0  0  0  0  0  0  0
    8.7570   39.6764   67.7972 O   0  0  0  0  0  0  0  0  0  0  0  0
   10.9101   39.2235   67.4272 O   0  0  0  0  0  0  0  0  0  0  0  0
    3.6510   40.8105   80.6336 N   0  0  0  0  0  0  0  0  0  0  0  0
   10.3653   42.2463   67.6743 O   0  0  0  0  0  0  0  0  0  0  0  0
    3.6945   42.0170   81.2250 C   0  0  0  0  0  0  0  0  0  0  0  0
    8.4757   42.7312   68.7622 O   0  0  0  0  0  0  0  0  0  0  0  0
    3.4166   43.1808   80.4970 N   0  0  0  0  0  0  0  0  0  0  0  0
    3.0991   43.0707   79.1499 C   0  0  0  0  0  0  0  0  0  0  0  0
    3.0944   41.8125   78.5623 C   0  0  0  0  0  0  0  0  0  0  0  0
    2.8615   44.0779   78.4879 O   0  0  0  0  0  0  0  0  0  0  0  0
    1.7992   42.4586   76.7164 C   0  0  0  0  0  0  0  0  0  0  0  0
    2.7159   41.6468   77.2346 N   0  0  0  0  0  0  0  0  0  0  0  0
    1.8740   42.8151   75.5426 O   0  0  0  0  0  0  0  0  0  0  0  0
    3.1770   40.4691   76.4914 C   0  0  2  0  0  0  0  0  0  0  0  0
    2.9030   39.2193   77.3319 C   0  0  0  0  0  0  0  0  0  0  0  0
    3.3461   40.6856   79.3331 C   0  0  0  0  0  0  0  0  0  0  0  0
    3.2973   39.4151   78.7488 N   0  0  0  0  0  0  0  0  0  0  0  0
    4.6740   40.5814   76.1829 C   0  0  0  0  0  0  0  0  0  0  0  0
    4.9888   41.9495   75.7535 N   0  0  0  0  0  0  0  0  0  0  0  0
    7.7071   42.7888   72.7535 C   0  0  0  0  0  0  0  0  0  0  0  0
    6.8672   43.7816   73.2522 C   0  0  0  0  0  0  0  0  0  0  0  0
    5.9394   43.4869   74.2492 C   0  0  0  0  0  0  0  0  0  0  0  0
    5.8724   42.2072   74.7899 C   0  0  0  0  0  0  0  0  0  0  0  0
    6.7166   41.2168   74.2993 C   0  0  0  0  0  0  0  0  0  0  0  0
    7.6207   41.5018   73.2770 C   0  0  0  0  0  0  0  0  0  0  0  0
    9.6804   42.3813   68.7171 C   0  0  0  0  0  0  0  0  0  0  0  0
  1  3  1  0  0  0  0
  2  1  1  1  0  0  0
  2  6  1  0  0  0  0
  2 34  1  0  0  0  0
  3  4  2  0  0  0  0
  3 28  1  0  0  0  0
  5 13  1  0  0  0  0
  6  7  1  0  0  0  0
  7  8  1  0  0  0  0
  8  9  1  0  0  0  0
  8 10  1  0  0  0  0
 11 13  2  0  0  0  0
 11 24  1  0  0  0  0
 12 34  1  0  0  0  0
 13 15  1  0  0  0  0
 14 34  1  0  0  0  0
 15 16  1  0  0  0  0
 16 17  1  0  0  0  0
 16 18  2  0  0  0  0
 17 20  1  0  0  0  0
 17 24  2  0  0  0  0
 19 21  1  0  0  0  0
 19 20  1  0  0  0  0
 20 22  1  0  0  0  0
 22 23  1  0  0  0  0
 22 26  1  1  0  0  0
 23 25  1  0  0  0  0
 24 25  1  0  0  0  0
 26 27  1  0  0  0  0
 27 31  1  0  0  0  0
 28 29  2  0  0  0  0
 28 33  1  0  0  0  0
 29 30  1  0  0  0  0
 30 31  2  0  0  0  0
 31 32  1  0  0  0  0
 32 33  2  0  0  0  0
M  END
>  <CHROM.1>
171.80409525,63.08299339,-169.23116802,82.22739250,-114.86425271,144.62581965
-42.48118368,-142.03659523,167.56398827,-177.42880018,6.20449530,41.72436058
74.28050172,-0.05177499,0.98679897,0.00987143

>  <Name>
ligand

>  <RI>
0

>  <Rbt.Current_Directory>
/home/itssahil/PROJECTS/Mol_Feturizer/New_Systems/rnas/3SUH

>  <Rbt.Executable>
rbdock ($Id: //depot/dev/client3/rdock/2013.1/src/exe/rbdock.cxx#4 $)

>  <Rbt.Library>
libRbt.so (2013.1, Build901 2013/11/27)

>  <Rbt.Parameter_File>
/export/apps/rDock/src/rDock_2013.1_src/data/scripts/dock_solv.prm

>  <Rbt.Receptor>
prm/pocket_docking_4.prm

>  <SCORE>
236.73

>  <SCORE.INTER>
236.968

>  <SCORE.INTER.CONST>
1

>  <SCORE.INTER.POLAR>
0

>  <SCORE.INTER.ROT>
10

>  <SCORE.INTER.SOLV>
7.95383

>  <SCORE.INTER.VDW>
145.061

>  <SCORE.INTER.norm>
6.96964

>  <SCORE.INTRA>
-1.2493

>  <SCORE.INTRA.DIHEDRAL>
-2.29203

>  <SCORE.INTRA.DIHEDRAL.0>
12.2703

>  <SCORE.INTRA.POLAR>
0

>  <SCORE.INTRA.POLAR.0>
0

>  <SCORE.INTRA.REPUL>
0

>  <SCORE.INTRA.REPUL.0>
0

>  <SCORE.INTRA.SOLV>
0.676271

>  <SCORE.INTRA.SOLV.lig_0>
-64.3214

>  <SCORE.INTRA.VDW>
-0.441422

>  <SCORE.INTRA.VDW.0>
-1.67301

>  <SCORE.INTRA.norm>
-0.0367441

>  <SCORE.RESTR>
1.0114

>  <SCORE.RESTR.CAVITY>
1.0114

>  <SCORE.RESTR.norm>
0.029747

>  <SCORE.SYSTEM>
0

>  <SCORE.SYSTEM.CONST>
0

>  <SCORE.SYSTEM.DIHEDRAL>
0

>  <SCORE.SYSTEM.SOLV>
0

>  <SCORE.SYSTEM.norm>
0

>  <SCORE.heavy>
34

>  <SCORE.norm>
6.96264

>  <RMSD>
10.962

$$$$
ligand
 OpenBabel11021811483D
libRbt.so/2013.1/901 2013/11/27
 34 36  0  0  0  0  0  0  0  0999 V2000
    9.1403   41.4216   69.5712 N   0  0  0  0  0  0  0  0  0  0  0  0
    9.9324   42.4463   68.8518 C   0  0  1  0  0  0  0  0  0  0  0  0
    9.6605   40.2969   70.0797 C   0  0  0  0  0  0  0  0  0  0  0  0
   10.8529   39.9871   70.0055 O   0  0  0  0  0  0  0  0  0  0  0  0
    4.8318   33.5831   79.0340 N   0  0  0  0  0  0  0  0  0  0  0  0
   10.1534   42.0049   67.3952 C   0  0  0  0  0  0  0  0  0  0  0  0
   10.6601   43.1628   66.5247 C   0  0  0  0  0  0  0  0  0  0  0  0
   12.0892   43.5688   66.9160 C   0  0  0  0  0  0  0  0  0  0  0  0
   12.3598   43.6023   68.1394 O   0  0  0  0  0  0  0  0  0  0  0  0
   12.8809   43.8344   65.9824 O   0  0  0  0  0  0  0  0  0  0  0  0
    4.6641   35.6208   77.9487 N   0  0  0  0  0  0  0  0  0  0  0  0
    9.9817   44.8351   69.0493 O   0  0  0  0  0  0  0  0  0  0  0  0
    5.3175   34.4660   78.1651 C   0  0  0  0  0  0  0  0  0  0  0  0
    8.0034   43.8466   68.7362 O   0  0  0  0  0  0  0  0  0  0  0  0
    6.5076   34.1793   77.4847 N   0  0  0  0  0  0  0  0  0  0  0  0
    7.0023   35.1059   76.5768 C   0  0  0  0  0  0  0  0  0  0  0  0
    6.2861   36.2743   76.3530 C   0  0  0  0  0  0  0  0  0  0  0  0
    8.0390   34.8726   75.9603 O   0  0  0  0  0  0  0  0  0  0  0  0
    8.0918   37.4387   75.4118 C   0  0  0  0  0  0  0  0  0  0  0  0
    6.7775   37.2608   75.5051 N   0  0  0  0  0  0  0  0  0  0  0  0
    8.7176   37.9590   76.3327 O   0  0  0  0  0  0  0  0  0  0  0  0
    5.8487   38.2130   74.8866 C   0  0  2  0  0  0  0  0  0  0  0  0
    4.9361   38.7861   75.9739 C   0  0  0  0  0  0  0  0  0  0  0  0
    5.1277   36.5274   77.0750 C   0  0  0  0  0  0  0  0  0  0  0  0
    4.4314   37.7253   76.8802 N   0  0  0  0  0  0  0  0  0  0  0  0
    5.0124   37.5214   73.8045 C   0  0  0  0  0  0  0  0  0  0  0  0
    5.8964   37.0007   72.7544 N   0  0  0  0  0  0  0  0  0  0  0  0
    8.6535   39.4068   70.8303 C   0  0  0  0  0  0  0  0  0  0  0  0
    7.4226   39.9171   71.2357 C   0  0  0  0  0  0  0  0  0  0  0  0
    6.4900   39.0953   71.8655 C   0  0  0  0  0  0  0  0  0  0  0  0
    6.7959   37.7661   72.1373 C   0  0  0  0  0  0  0  0  0  0  0  0
    8.0282   37.2572   71.7412 C   0  0  0  0  0  0  0  0  0  0  0  0
    8.9479   38.0692   71.0791 C   0  0  0  0  0  0  0  0  0  0  0  0
    9.2501   43.8296   68.8808 C   0  0  0  0  0  0  0  0  0  0  0  0
  1  3  1  0  0  0  0
  2  1  1  6  0  0  0
  2  6  1  0  0  0  0
  2 34  1  0  0  0  0
  3  4  2  0  0  0  0
  3 28  1  0  0  0  0
  5 13  1  0  0  0  0
  6  7  1  0  0  0  0
  7  8  1  0  0  0  0
  8  9  1  0  0  0  0
  8 10  1  0  0  0  0
 11 13  2  0  0  0  0
 11 24  1  0  0  0  0
 12 34  1  0  0  0  0
 13 15  1  0  0  0  0
 14 34  1  0  0  0  0
 15 16  1  0  0  0  0
 16 17  1  0  0  0  0
 16 18  2  0  0  0  0
 17 20  1  0  0  0  0
 17 24  2  0  0  0  0
 19 21  1  0  0  0  0
 19 20  1  0  0  0  0
 20 22  1  0  0  0  0
 22 23  1  0  0  0  0
 22 26  1  6  0  0  0
 23 25  1  0  0  0  0
 24 25  1  0  0  0  0
 26 27  1  0  0  0  0
 27 31  1  0  0  0  0
 28 29  2  0  0  0  0
 28 33  1  0  0  0  0
 29 30  1  0  0  0  0
 30 31  2  0  0  0  0
 31 32  1  0  0  0  0
 32 33  2  0  0  0  0
M  END
>  <CHROM.1>
80.73128047,166.08249527,139.75170619,68.56718239,-40.83759386,-72.69825787
-60.98418574,-52.89682427,-36.27690485,-16.14171853,7.97978592,39.11330845
72.56963432,1.11805029,0.48032402,-0.66770896

>  <Name>
ligand

>  <RI>
0

>  <Rbt.Current_Directory>
/home/itssahil/PROJECTS/Mol_Feturizer/New_Systems/rnas/3SUH

>  <Rbt.Executable>
rbdock ($Id: //depot/dev/client3/rdock/2013.1/src/exe/rbdock.cxx#4 $)

>  <Rbt.Library>
libRbt.so (2013.1, Build901 2013/11/27)

>  <Rbt.Parameter_File>
/export/apps/rDock/src/rDock_2013.1_src/data/scripts/dock_solv.prm

>  <Rbt.Receptor>
prm/pocket_docking_7.prm

>  <SCORE>
-13.4415

>  <SCORE.INTER>
-10.7612

>  <SCORE.INTER.CONST>
1

>  <SCORE.INTER.POLAR>
0

>  <SCORE.INTER.ROT>
10

>  <SCORE.INTER.SOLV>
7.67631

>  <SCORE.INTER.VDW>
-19.9996

>  <SCORE.INTER.norm>
-0.316507

>  <SCORE.INTRA>
-2.6803

>  <SCORE.INTRA.DIHEDRAL>
-4.59147

>  <SCORE.INTRA.DIHEDRAL.0>
12.2703

>  <SCORE.INTRA.POLAR>
0

>  <SCORE.INTRA.POLAR.0>
0

>  <SCORE.INTRA.REPUL>
0

>  <SCORE.INTRA.REPUL.0>
0

>  <SCORE.INTRA.SOLV>
-0.639608

>  <SCORE.INTRA.SOLV.lig_0>
-64.3214

>  <SCORE.INTRA.VDW>
-0.0647613

>  <SCORE.INTRA.VDW.0>
-1.67301

>  <SCORE.INTRA.norm>
-0.0788323

>  <SCORE.RESTR>
0

>  <SCORE.RESTR.CAVITY>
0

>  <SCORE.RESTR.norm>
0

>  <SCORE.SYSTEM>
0

>  <SCORE.SYSTEM.CONST>
0

>  <SCORE.SYSTEM.DIHEDRAL>
0

>  <SCORE.SYSTEM.SOLV>
0

>  <SCORE.SYSTEM.norm>
0

>  <SCORE.heavy>
34

>  <SCORE.norm>
-0.395339

>  <RMSD>
11.009

$$$$
ligand
 OpenBabel11021811483D
libRbt.so/2013.1/901 2013/11/27
 34 36  0  0  0  0  0  0  0  0999 V2000
   10.2097   43.1474   70.2869 N   0  0  0  0  0  0  0  0  0  0  0  0
   11.3840   43.2382   69.3884 C   0  0  1  0  0  0  0  0  0  0  0  0
    9.0955   42.4645   69.9930 C   0  0  0  0  0  0  0  0  0  0  0  0
    8.9208   41.8377   68.9443 O   0  0  0  0  0  0  0  0  0  0  0  0
    0.4151   40.5256   78.4444 N   0  0  0  0  0  0  0  0  0  0  0  0
   11.0733   44.1899   68.2209 C   0  0  0  0  0  0  0  0  0  0  0  0
   12.2004   44.1930   67.1793 C   0  0  0  0  0  0  0  0  0  0  0  0
   11.9013   43.2147   66.0331 C   0  0  0  0  0  0  0  0  0  0  0  0
   12.4917   43.4106   64.9450 O   0  0  0  0  0  0  0  0  0  0  0  0
   11.0903   42.2904   66.2713 O   0  0  0  0  0  0  0  0  0  0  0  0
    2.0128   42.1667   78.1089 N   0  0  0  0  0  0  0  0  0  0  0  0
   13.1073   42.9784   71.0348 O   0  0  0  0  0  0  0  0  0  0  0  0
    1.6308   40.8798   78.0359 C   0  0  0  0  0  0  0  0  0  0  0  0
   13.1197   44.8280   69.7827 O   0  0  0  0  0  0  0  0  0  0  0  0
    2.4998   39.9033   77.5329 N   0  0  0  0  0  0  0  0  0  0  0  0
    3.7641   40.2853   77.1049 C   0  0  0  0  0  0  0  0  0  0  0  0
    4.1154   41.6275   77.1641 C   0  0  0  0  0  0  0  0  0  0  0  0
    4.5404   39.4487   76.6504 O   0  0  0  0  0  0  0  0  0  0  0  0
    6.4244   41.2361   77.0309 C   0  0  0  0  0  0  0  0  0  0  0  0
    5.3934   42.0465   76.8113 N   0  0  0  0  0  0  0  0  0  0  0  0
    6.6010   40.7385   78.1407 O   0  0  0  0  0  0  0  0  0  0  0  0
    5.6108   43.4358   76.3935 C   0  0  2  0  0  0  0  0  0  0  0  0
    4.9598   44.3655   77.4208 C   0  0  0  0  0  0  0  0  0  0  0  0
    3.2306   42.5535   77.6999 C   0  0  0  0  0  0  0  0  0  0  0  0
    3.6033   43.8985   77.7996 N   0  0  0  0  0  0  0  0  0  0  0  0
    5.0103   43.6789   75.0047 C   0  0  0  0  0  0  0  0  0  0  0  0
    5.2396   42.5042   74.1546 N   0  0  0  0  0  0  0  0  0  0  0  0
    8.0285   42.4699   71.1026 C   0  0  0  0  0  0  0  0  0  0  0  0
    7.8302   41.3449   71.8993 C   0  0  0  0  0  0  0  0  0  0  0  0
    6.9030   41.3701   72.9392 C   0  0  0  0  0  0  0  0  0  0  0  0
    6.1319   42.5054   73.1648 C   0  0  0  0  0  0  0  0  0  0  0  0
    6.3223   43.6268   72.3644 C   0  0  0  0  0  0  0  0  0  0  0  0
    7.2749   43.6146   71.3466 C   0  0  0  0  0  0  0  0  0  0  0  0
   12.6460   43.7197   70.1335 C   0  0  0  0  0  0  0  0  0  0  0  0
  1  3  1  0  0  0  0
  2  1  1  1  0  0  0
  2  6  1  0  0  0  0
  2 34  1  0  0  0  0
  3  4  2  0  0  0  0
  3 28  1  0  0  0  0
  5 13  1  0  0  0  0
  6  7  1  0  0  0  0
  7  8  1  0  0  0  0
  8  9  1  0  0  0  0
  8 10  1  0  0  0  0
 11 13  2  0  0  0  0
 11 24  1  0  0  0  0
 12 34  1  0  0  0  0
 13 15  1  0  0  0  0
 14 34  1  0  0  0  0
 15 16  1  0  0  0  0
 16 17  1  0  0  0  0
 16 18  2  0  0  0  0
 17 20  1  0  0  0  0
 17 24  2  0  0  0  0
 19 21  1  0  0  0  0
 19 20  1  0  0  0  0
 20 22  1  0  0  0  0
 22 23  1  0  0  0  0
 22 26  1  6  0  0  0
 23 25  1  0  0  0  0
 24 25  1  0  0  0  0
 26 27  1  0  0  0  0
 27 31  1  0  0  0  0
 28 29  2  0  0  0  0
 28 33  1  0  0  0  0
 29 30  1  0  0  0  0
 30 31  2  0  0  0  0
 31 32  1  0  0  0  0
 32 33  2  0  0  0  0
M  END
>  <CHROM.1>
74.58397659,-173.54395574,64.48224455,95.18231210,158.22460648,-51.72423928
-38.76854017,-106.87279660,140.89482010,-104.26631896,7.29840907,42.46214056
73.13263638,-0.77617256,0.43990767,1.34799119

>  <Name>
ligand

>  <RI>
0

>  <Rbt.Current_Directory>
/home/itssahil/PROJECTS/Mol_Feturizer/New_Systems/rnas/3SUH

>  <Rbt.Executable>
rbdock ($Id: //depot/dev/client3/rdock/2013.1/src/exe/rbdock.cxx#4 $)

>  <Rbt.Library>
libRbt.so (2013.1, Build901 2013/11/27)

>  <Rbt.Parameter_File>
/export/apps/rDock/src/rDock_2013.1_src/data/scripts/dock_solv.prm

>  <Rbt.Receptor>
prm/pocket_docking_2.prm

>  <SCORE>
-1.85191

>  <SCORE.INTER>
-4.45604

>  <SCORE.INTER.CONST>
1

>  <SCORE.INTER.POLAR>
0

>  <SCORE.INTER.ROT>
10

>  <SCORE.INTER.SOLV>
8.64173

>  <SCORE.INTER.VDW>
-16.1179

>  <SCORE.INTER.norm>
-0.13106

>  <SCORE.INTRA>
1.54681

>  <SCORE.INTRA.DIHEDRAL>
0.881539

>  <SCORE.INTRA.DIHEDRAL.0>
12.2703

>  <SCORE.INTRA.POLAR>
0

>  <SCORE.INTRA.POLAR.0>
0

>  <SCORE.INTRA.REPUL>
0

>  <SCORE.INTRA.REPUL.0>
0

>  <SCORE.INTRA.SOLV>
0.0701978

>  <SCORE.INTRA.SOLV.lig_0>
-64.3214

>  <SCORE.INTRA.VDW>
1.07094

>  <SCORE.INTRA.VDW.0>
-1.67301

>  <SCORE.INTRA.norm>
0.0454944

>  <SCORE.RESTR>
1.05732

>  <SCORE.RESTR.CAVITY>
1.05732

>  <SCORE.RESTR.norm>
0.0310977

>  <SCORE.SYSTEM>
0

>  <SCORE.SYSTEM.CONST>
0

>  <SCORE.SYSTEM.DIHEDRAL>
0

>  <SCORE.SYSTEM.SOLV>
0

>  <SCORE.SYSTEM.norm>
0

>  <SCORE.heavy>
34

>  <SCORE.norm>
-0.0544679

>  <RMSD>
11.010

$$$$
ligand
 OpenBabel11021811483D
libRbt.so/2013.1/901 2013/11/27
 34 36  0  0  0  0  0  0  0  0999 V2000
    8.2333   42.6157   69.5555 N   0  0  0  0  0  0  0  0  0  0  0  0
    8.9380   42.2971   68.2919 C   0  0  1  0  0  0  0  0  0  0  0  0
    7.6352   43.7886   69.8017 C   0  0  0  0  0  0  0  0  0  0  0  0
    7.6049   44.7334   69.0082 O   0  0  0  0  0  0  0  0  0  0  0  0
    1.9445   43.1041   81.3098 N   0  0  0  0  0  0  0  0  0  0  0  0
   10.1293   43.2517   68.1057 C   0  0  0  0  0  0  0  0  0  0  0  0
   10.7746   43.0869   66.7230 C   0  0  0  0  0  0  0  0  0  0  0  0
   12.0873   43.8788   66.6238 C   0  0  0  0  0  0  0  0  0  0  0  0
   12.7484   44.0249   67.6786 O   0  0  0  0  0  0  0  0  0  0  0  0
   12.4023   44.3186   65.4942 O   0  0  0  0  0  0  0  0  0  0  0  0
    3.9371   43.4039   80.1705 N   0  0  0  0  0  0  0  0  0  0  0  0
   10.1485   40.4866   67.2896 O   0  0  0  0  0  0  0  0  0  0  0  0
    2.7026   42.8761   80.2404 C   0  0  0  0  0  0  0  0  0  0  0  0
    9.0674   40.0958   69.2047 O   0  0  0  0  0  0  0  0  0  0  0  0
    2.2023   42.0864   79.1975 N   0  0  0  0  0  0  0  0  0  0  0  0
    3.0005   41.8594   78.0843 C   0  0  0  0  0  0  0  0  0  0  0  0
    4.2581   42.4456   78.0296 C   0  0  0  0  0  0  0  0  0  0  0  0
    2.5799   41.1785   77.1523 O   0  0  0  0  0  0  0  0  0  0  0  0
    5.0804   41.0013   76.3743 C   0  0  0  0  0  0  0  0  0  0  0  0
    5.1182   42.1908   76.9673 N   0  0  0  0  0  0  0  0  0  0  0  0
    5.6470   40.8225   75.2985 O   0  0  0  0  0  0  0  0  0  0  0  0
    6.1805   43.1511   76.6488 C   0  0  2  0  0  0  0  0  0  0  0  0
    6.9356   43.4934   77.9357 C   0  0  0  0  0  0  0  0  0  0  0  0
    4.7218   43.1949   79.1025 C   0  0  0  0  0  0  0  0  0  0  0  0
    6.0066   43.7479   79.0643 N   0  0  0  0  0  0  0  0  0  0  0  0
    5.5877   44.4213   76.0294 C   0  0  0  0  0  0  0  0  0  0  0  0
    4.9117   44.0878   74.7697 N   0  0  0  0  0  0  0  0  0  0  0  0
    6.9219   43.8715   71.1633 C   0  0  0  0  0  0  0  0  0  0  0  0
    6.3917   45.0786   71.6123 C   0  0  0  0  0  0  0  0  0  0  0  0
    5.6978   45.1401   72.8191 C   0  0  0  0  0  0  0  0  0  0  0  0
    5.5656   44.0048   73.6115 C   0  0  0  0  0  0  0  0  0  0  0  0
    6.1021   42.8004   73.1689 C   0  0  0  0  0  0  0  0  0  0  0  0
    6.7657   42.7302   71.9448 C   0  0  0  0  0  0  0  0  0  0  0  0
    9.4293   40.8351   68.2570 C   0  0  0  0  0  0  0  0  0  0  0  0
  1  3  1  0  0  0  0
  2  1  1  1  0  0  0
  2  6  1  0  0  0  0
  2 34  1  0  0  0  0
  3  4  2  0  0  0  0
  3 28  1  0  0  0  0
  5 13  1  0  0  0  0
  6  7  1  0  0  0  0
  7  8  1  0  0  0  0
  8  9  1  0  0  0  0
  8 10  1  0  0  0  0
 11 13  2  0  0  0  0
 11 24  1  0  0  0  0
 12 34  1  0  0  0  0
 13 15  1  0  0  0  0
 14 34  1  0  0  0  0
 15 16  1  0  0  0  0
 16 17  1  0  0  0  0
 16 18  2  0  0  0  0
 17 20  1  0  0  0  0
 17 24  2  0  0  0  0
 19 21  1  0  0  0  0
 19 20  1  0  0  0  0
 20 22  1  0  0  0  0
 22 23  1  0  0  0  0
 22 26  1  1  0  0  0
 23 25  1  0  0  0  0
 24 25  1  0  0  0  0
 26 27  1  0  0  0  0
 27 31  1  0  0  0  0
 28 29  2  0  0  0  0
 28 33  1  0  0  0  0
 29 30  1  0  0  0  0
 30 31  2  0  0  0  0
 31 32  1  0  0  0  0
 32 33  2  0  0  0  0
M  END
>  <CHROM.1>
62.23297265,-172.26207053,-173.48089063,-171.15533066,30.55201224,167.08274913
-62.02165845,-84.96106897,-89.80718178,172.62728246,6.76863269,42.90560272
73.33923185,0.37713007,-0.99259598,-2.67562558

>  <Name>
ligand

>  <RI>
0

>  <Rbt.Current_Directory>
/home/itssahil/PROJECTS/Mol_Feturizer/New_Systems/rnas/3SUH

>  <Rbt.Executable>
rbdock ($Id: //depot/dev/client3/rdock/2013.1/src/exe/rbdock.cxx#4 $)

>  <Rbt.Library>
libRbt.so (2013.1, Build901 2013/11/27)

>  <Rbt.Parameter_File>
/export/apps/rDock/src/rDock_2013.1_src/data/scripts/dock_solv.prm

>  <Rbt.Receptor>
prm/pocket_docking_6.prm

>  <SCORE>
-13.0215

>  <SCORE.INTER>
-11.2137

>  <SCORE.INTER.CONST>
1

>  <SCORE.INTER.POLAR>
0

>  <SCORE.INTER.ROT>
10

>  <SCORE.INTER.SOLV>
10.4719

>  <SCORE.INTER.VDW>
-21.2331

>  <SCORE.INTER.norm>
-0.329815

>  <SCORE.INTRA>
-1.80774

>  <SCORE.INTRA.DIHEDRAL>
-5.11642

>  <SCORE.INTRA.DIHEDRAL.0>
12.2703

>  <SCORE.INTRA.POLAR>
0

>  <SCORE.INTRA.POLAR.0>
0

>  <SCORE.INTRA.REPUL>
0

>  <SCORE.INTRA.REPUL.0>
0

>  <SCORE.INTRA.SOLV>
-0.0434417

>  <SCORE.INTRA.SOLV.lig_0>
-64.3214

>  <SCORE.INTRA.VDW>
0.772195

>  <SCORE.INTRA.VDW.0>
-1.67301

>  <SCORE.INTRA.norm>
-0.0531688

>  <SCORE.RESTR>
0

>  <SCORE.RESTR.CAVITY>
0

>  <SCORE.RESTR.norm>
0

>  <SCORE.SYSTEM>
0

>  <SCORE.SYSTEM.CONST>
0

>  <SCORE.SYSTEM.DIHEDRAL>
0

>  <SCORE.SYSTEM.SOLV>
0

>  <SCORE.SYSTEM.norm>
0

>  <SCORE.heavy>
34

>  <SCORE.norm>
-0.382984

>  <RMSD>
11.032

$$$$
ligand
 OpenBabel11021811483D
libRbt.so/2013.1/901 2013/11/27
 34 36  0  0  0  0  0  0  0  0999 V2000
    8.5485   41.8837   69.8302 N   0  0  0  0  0  0  0  0  0  0  0  0
    9.2059   42.9794   69.0804 C   0  0  1  0  0  0  0  0  0  0  0  0
    9.0918   40.6732   70.0130 C   0  0  0  0  0  0  0  0  0  0  0  0
   10.1959   40.3340   69.5782 O   0  0  0  0  0  0  0  0  0  0  0  0
    2.1723   41.7229   77.9391 N   0  0  0  0  0  0  0  0  0  0  0  0
    9.1923   42.6613   67.5758 C   0  0  0  0  0  0  0  0  0  0  0  0
   10.5517   42.1331   67.0978 C   0  0  0  0  0  0  0  0  0  0  0  0
   11.6185   43.2382   67.1245 C   0  0  0  0  0  0  0  0  0  0  0  0
   12.1663   43.4782   68.2261 O   0  0  0  0  0  0  0  0  0  0  0  0
   11.8648   43.8174   66.0416 O   0  0  0  0  0  0  0  0  0  0  0  0
    3.4994   39.9603   77.2387 N   0  0  0  0  0  0  0  0  0  0  0  0
    9.2550   45.3628   69.3346 O   0  0  0  0  0  0  0  0  0  0  0  0
    2.3096   40.5858   77.2619 C   0  0  0  0  0  0  0  0  0  0  0  0
    7.2858   44.3258   69.5228 O   0  0  0  0  0  0  0  0  0  0  0  0
    1.2083   40.0536   76.5795 N   0  0  0  0  0  0  0  0  0  0  0  0
    1.3646   38.8692   75.8722 C   0  0  0  0  0  0  0  0  0  0  0  0
    2.6149   38.2656   75.8421 C   0  0  0  0  0  0  0  0  0  0  0  0
    0.4161   38.3882   75.2573 O   0  0  0  0  0  0  0  0  0  0  0  0
    1.8065   36.1631   75.1879 C   0  0  0  0  0  0  0  0  0  0  0  0
    2.8021   37.0442   75.2046 N   0  0  0  0  0  0  0  0  0  0  0  0
    1.2266   35.8974   74.1374 O   0  0  0  0  0  0  0  0  0  0  0  0
    4.1417   36.6671   74.7404 C   0  0  2  0  0  0  0  0  0  0  0  0
    5.1365   36.8818   75.8839 C   0  0  0  0  0  0  0  0  0  0  0  0
    3.6683   38.8151   76.5604 C   0  0  0  0  0  0  0  0  0  0  0  0
    4.9158   38.1815   76.5648 N   0  0  0  0  0  0  0  0  0  0  0  0
    4.5445   37.5075   73.5239 C   0  0  0  0  0  0  0  0  0  0  0  0
    5.8988   37.1379   73.0944 N   0  0  0  0  0  0  0  0  0  0  0  0
    8.2461   39.7134   70.8695 C   0  0  0  0  0  0  0  0  0  0  0  0
    7.2130   40.1999   71.6668 C   0  0  0  0  0  0  0  0  0  0  0  0
    6.4129   39.3245   72.3983 C   0  0  0  0  0  0  0  0  0  0  0  0
    6.6658   37.9571   72.3757 C   0  0  0  0  0  0  0  0  0  0  0  0
    7.7027   37.4703   71.5870 C   0  0  0  0  0  0  0  0  0  0  0  0
    8.4812   38.3420   70.8269 C   0  0  0  0  0  0  0  0  0  0  0  0
    8.5264   44.3412   69.3328 C   0  0  0  0  0  0  0  0  0  0  0  0
  1  3  1  0  0  0  0
  2  1  1  1  0  0  0
  2  6  1  0  0  0  0
  2 34  1  0  0  0  0
  3  4  2  0  0  0  0
  3 28  1  0  0  0  0
  5 13  1  0  0  0  0
  6  7  1  0  0  0  0
  7  8  1  0  0  0  0
  8  9  1  0  0  0  0
  8 10  1  0  0  0  0
 11 13  2  0  0  0  0
 11 24  1  0  0  0  0
 12 34  1  0  0  0  0
 13 15  1  0  0  0  0
 14 34  1  0  0  0  0
 15 16  1  0  0  0  0
 16 17  1  0  0  0  0
 16 18  2  0  0  0  0
 17 20  1  0  0  0  0
 17 24  2  0  0  0  0
 19 21  1  0  0  0  0
 19 20  1  0  0  0  0
 20 22  1  0  0  0  0
 22 23  1  0  0  0  0
 22 26  1  6  0  0  0
 23 25  1  0  0  0  0
 24 25  1  0  0  0  0
 26 27  1  0  0  0  0
 27 31  1  0  0  0  0
 28 29  2  0  0  0  0
 28 33  1  0  0  0  0
 29 30  1  0  0  0  0
 30 31  2  0  0  0  0
 31 32  1  0  0  0  0
 32 33  2  0  0  0  0
M  END
>  <CHROM.1>
72.23569306,-101.31440857,146.54621348,-69.37953487,81.83316610,111.11890809
178.66710976,-157.73062039,22.15849606,-16.63638209,6.19678328,40.07149638
72.38995153,0.42538426,0.77728572,-0.01706411

>  <Name>
ligand

>  <RI>
0

>  <Rbt.Current_Directory>
/home/itssahil/PROJECTS/Mol_Feturizer/New_Systems/rnas/3SUH

>  <Rbt.Executable>
rbdock ($Id: //depot/dev/client3/rdock/2013.1/src/exe/rbdock.cxx#4 $)

>  <Rbt.Library>
libRbt.so (2013.1, Build901 2013/11/27)

>  <Rbt.Parameter_File>
/export/apps/rDock/src/rDock_2013.1_src/data/scripts/dock_solv.prm

>  <Rbt.Receptor>
prm/pocket_docking_7.prm

>  <SCORE>
-13.0862

>  <SCORE.INTER>
-12.0438

>  <SCORE.INTER.CONST>
1

>  <SCORE.INTER.POLAR>
0

>  <SCORE.INTER.ROT>
10

>  <SCORE.INTER.SOLV>
7.70969

>  <SCORE.INTER.VDW>
-20.8657

>  <SCORE.INTER.norm>
-0.354229

>  <SCORE.INTRA>
-1.04505

>  <SCORE.INTRA.DIHEDRAL>
-0.183508

>  <SCORE.INTRA.DIHEDRAL.0>
12.2703

>  <SCORE.INTRA.POLAR>
0

>  <SCORE.INTRA.POLAR.0>
0

>  <SCORE.INTRA.REPUL>
0

>  <SCORE.INTRA.REPUL.0>
0

>  <SCORE.INTRA.SOLV>
-0.438947

>  <SCORE.INTRA.SOLV.lig_0>
-64.3214

>  <SCORE.INTRA.VDW>
-0.733822

>  <SCORE.INTRA.VDW.0>
-1.67301

>  <SCORE.INTRA.norm>
-0.0307368

>  <SCORE.RESTR>
0.00262052

>  <SCORE.RESTR.CAVITY>
0.00262052

>  <SCORE.RESTR.norm>
7.70742e-05

>  <SCORE.SYSTEM>
0

>  <SCORE.SYSTEM.CONST>
0

>  <SCORE.SYSTEM.DIHEDRAL>
0

>  <SCORE.SYSTEM.SOLV>
0

>  <SCORE.SYSTEM.norm>
0

>  <SCORE.heavy>
34

>  <SCORE.norm>
-0.384888

>  <RMSD>
11.037

$$$$
ligand
 OpenBabel11021811483D
libRbt.so/2013.1/901 2013/11/27
 34 36  0  0  0  0  0  0  0  0999 V2000
    8.2179   42.3808   70.6500 N   0  0  0  0  0  0  0  0  0  0  0  0
    8.7366   42.9416   69.3807 C   0  0  1  0  0  0  0  0  0  0  0  0
    7.1032   42.8103   71.2558 C   0  0  0  0  0  0  0  0  0  0  0  0
    6.3859   43.7191   70.8283 O   0  0  0  0  0  0  0  0  0  0  0  0
    4.4817   39.4737   82.9372 N   0  0  0  0  0  0  0  0  0  0  0  0
   10.2581   43.1408   69.4834 C   0  0  0  0  0  0  0  0  0  0  0  0
   10.7990   43.9746   68.3139 C   0  0  0  0  0  0  0  0  0  0  0  0
   12.3216   44.1522   68.4147 C   0  0  0  0  0  0  0  0  0  0  0  0
   12.9811   44.0495   67.3537 O   0  0  0  0  0  0  0  0  0  0  0  0
   12.7927   44.3894   69.5507 O   0  0  0  0  0  0  0  0  0  0  0  0
    3.5000   39.7439   80.8584 N   0  0  0  0  0  0  0  0  0  0  0  0
    7.9469   40.8966   68.4100 O   0  0  0  0  0  0  0  0  0  0  0  0
    4.5093   39.9907   81.7115 C   0  0  0  0  0  0  0  0  0  0  0  0
    8.6314   42.5178   67.0345 O   0  0  0  0  0  0  0  0  0  0  0  0
    5.5938   40.7882   81.3248 N   0  0  0  0  0  0  0  0  0  0  0  0
    5.6141   41.3183   80.0418 C   0  0  0  0  0  0  0  0  0  0  0  0
    4.5717   41.0177   79.1750 C   0  0  0  0  0  0  0  0  0  0  0  0
    6.5594   42.0123   79.6761 O   0  0  0  0  0  0  0  0  0  0  0  0
    5.0028   42.8035   77.7165 C   0  0  0  0  0  0  0  0  0  0  0  0
    4.5151   41.5810   77.9051 N   0  0  0  0  0  0  0  0  0  0  0  0
    4.3836   43.7894   78.1100 O   0  0  0  0  0  0  0  0  0  0  0  0
    3.7479   40.9115   76.8490 C   0  0  2  0  0  0  0  0  0  0  0  0
    2.3585   40.5690   77.3929 C   0  0  0  0  0  0  0  0  0  0  0  0
    3.5033   40.2480   79.6150 C   0  0  0  0  0  0  0  0  0  0  0  0
    2.4326   39.9830   78.7541 N   0  0  0  0  0  0  0  0  0  0  0  0
    4.4652   39.6373   76.3901 C   0  0  0  0  0  0  0  0  0  0  0  0
    5.8422   39.9600   75.9965 N   0  0  0  0  0  0  0  0  0  0  0  0
    6.7328   42.0418   72.5372 C   0  0  0  0  0  0  0  0  0  0  0  0
    6.6856   40.6498   72.5390 C   0  0  0  0  0  0  0  0  0  0  0  0
    6.4047   39.9540   73.7131 C   0  0  0  0  0  0  0  0  0  0  0  0
    6.1237   40.6436   74.8877 C   0  0  0  0  0  0  0  0  0  0  0  0
    6.1616   42.0339   74.8857 C   0  0  0  0  0  0  0  0  0  0  0  0
    6.4775   42.7301   73.7199 C   0  0  0  0  0  0  0  0  0  0  0  0
    8.4080   42.0394   68.1733 C   0  0  0  0  0  0  0  0  0  0  0  0
  1  3  1  0  0  0  0
  2  1  1  1  0  0  0
  2  6  1  0  0  0  0
  2 34  1  0  0  0  0
  3  4  2  0  0  0  0
  3 28  1  0  0  0  0
  5 13  1  0  0  0  0
  6  7  1  0  0  0  0
  7  8  1  0  0  0  0
  8  9  1  0  0  0  0
  8 10  1  0  0  0  0
 11 13  2  0  0  0  0
 11 24  1  0  0  0  0
 12 34  1  0  0  0  0
 13 15  1  0  0  0  0
 14 34  1  0  0  0  0
 15 16  1  0  0  0  0
 16 17  1  0  0  0  0
 16 18  2  0  0  0  0
 17 20  1  0  0  0  0
 17 24  2  0  0  0  0
 19 21  1  0  0  0  0
 19 20  1  0  0  0  0
 20 22  1  0  0  0  0
 22 23  1  0  0  0  0
 22 26  1  1  0  0  0
 23 25  1  0  0  0  0
 24 25  1  0  0  0  0
 26 27  1  0  0  0  0
 27 31  1  0  0  0  0
 28 29  2  0  0  0  0
 28 33  1  0  0  0  0
 29 30  1  0  0  0  0
 30 31  2  0  0  0  0
 31 32  1  0  0  0  0
 32 33  2  0  0  0  0
M  END
>  <CHROM.1>
136.11014678,-168.50858753,-10.24729740,-179.22908276,138.44893359,-75.06330841
-54.21741003,-71.07233330,-93.49236221,-49.98501606,6.66018539,41.78371937
74.48622093,1.03865501,-0.45830863,-1.60354123

>  <Name>
ligand

>  <RI>
0

>  <Rbt.Current_Directory>
/home/itssahil/PROJECTS/Mol_Feturizer/New_Systems/rnas/3SUH

>  <Rbt.Executable>
rbdock ($Id: //depot/dev/client3/rdock/2013.1/src/exe/rbdock.cxx#4 $)

>  <Rbt.Library>
libRbt.so (2013.1, Build901 2013/11/27)

>  <Rbt.Parameter_File>
/export/apps/rDock/src/rDock_2013.1_src/data/scripts/dock_solv.prm

>  <Rbt.Receptor>
prm/pocket_docking_3.prm

>  <SCORE>
-9.11706

>  <SCORE.INTER>
-5.25356

>  <SCORE.INTER.CONST>
1

>  <SCORE.INTER.POLAR>
0

>  <SCORE.INTER.ROT>
10

>  <SCORE.INTER.SOLV>
6.9791

>  <SCORE.INTER.VDW>
-16.0954

>  <SCORE.INTER.norm>
-0.154516

>  <SCORE.INTRA>
-3.8635

>  <SCORE.INTRA.DIHEDRAL>
-4.36589

>  <SCORE.INTRA.DIHEDRAL.0>
12.2703

>  <SCORE.INTRA.POLAR>
0

>  <SCORE.INTRA.POLAR.0>
0

>  <SCORE.INTRA.REPUL>
0

>  <SCORE.INTRA.REPUL.0>
0

>  <SCORE.INTRA.SOLV>
-0.559287

>  <SCORE.INTRA.SOLV.lig_0>
-64.3214

>  <SCORE.INTRA.VDW>
-1.40091

>  <SCORE.INTRA.VDW.0>
-1.67301

>  <SCORE.INTRA.norm>
-0.113632

>  <SCORE.RESTR>
0

>  <SCORE.RESTR.CAVITY>
0

>  <SCORE.RESTR.norm>
0

>  <SCORE.SYSTEM>
0

>  <SCORE.SYSTEM.CONST>
0

>  <SCORE.SYSTEM.DIHEDRAL>
0

>  <SCORE.SYSTEM.SOLV>
0

>  <SCORE.SYSTEM.norm>
0

>  <SCORE.heavy>
34

>  <SCORE.norm>
-0.268149

>  <RMSD>
11.070

$$$$
ligand
 OpenBabel11021811483D
libRbt.so/2013.1/901 2013/11/27
 34 36  0  0  0  0  0  0  0  0999 V2000
    6.6015   45.1954   71.4174 N   0  0  0  0  0  0  0  0  0  0  0  0
    7.5851   45.4480   70.3387 C   0  0  1  0  0  0  0  0  0  0  0  0
    6.8947   44.5664   72.5630 C   0  0  0  0  0  0  0  0  0  0  0  0
    8.0120   44.1262   72.8480 O   0  0  0  0  0  0  0  0  0  0  0  0
    0.6624   36.7299   74.7665 N   0  0  0  0  0  0  0  0  0  0  0  0
    7.6221   44.2483   69.3772 C   0  0  0  0  0  0  0  0  0  0  0  0
    8.2589   43.0166   70.0349 C   0  0  0  0  0  0  0  0  0  0  0  0
    8.1992   41.7956   69.1043 C   0  0  0  0  0  0  0  0  0  0  0  0
    7.5921   40.7836   69.5266 O   0  0  0  0  0  0  0  0  0  0  0  0
    8.7601   41.9022   67.9895 O   0  0  0  0  0  0  0  0  0  0  0  0
    0.5487   39.0345   74.5811 N   0  0  0  0  0  0  0  0  0  0  0  0
    6.0912   47.1784   69.6164 O   0  0  0  0  0  0  0  0  0  0  0  0
    0.4763   37.9207   75.3304 C   0  0  0  0  0  0  0  0  0  0  0  0
    8.2067   47.2506   68.9035 O   0  0  0  0  0  0  0  0  0  0  0  0
    0.2067   37.9981   76.7026 N   0  0  0  0  0  0  0  0  0  0  0  0
    0.0192   39.2462   77.2810 C   0  0  0  0  0  0  0  0  0  0  0  0
    0.1324   40.3785   76.4850 C   0  0  0  0  0  0  0  0  0  0  0  0
   -0.2084   39.3404   78.4845 O   0  0  0  0  0  0  0  0  0  0  0  0
   -1.0207   41.7823   77.9688 C   0  0  0  0  0  0  0  0  0  0  0  0
   -0.1147   41.6439   77.0056 N   0  0  0  0  0  0  0  0  0  0  0  0
   -0.8026   42.5176   78.9291 O   0  0  0  0  0  0  0  0  0  0  0  0
    0.4719   42.8215   76.3566 C   0  0  2  0  0  0  0  0  0  0  0  0
    0.1869   42.7477   74.8543 C   0  0  0  0  0  0  0  0  0  0  0  0
    0.3702   40.2486   75.1234 C   0  0  0  0  0  0  0  0  0  0  0  0
    0.4400   41.3887   74.3152 N   0  0  0  0  0  0  0  0  0  0  0  0
    1.9830   42.8750   76.6063 C   0  0  0  0  0  0  0  0  0  0  0  0
    2.5146   44.1639   76.1464 N   0  0  0  0  0  0  0  0  0  0  0  0
    5.7237   44.4654   73.5571 C   0  0  0  0  0  0  0  0  0  0  0  0
    4.7943   45.4973   73.6632 C   0  0  0  0  0  0  0  0  0  0  0  0
    3.7040   45.3804   74.5230 C   0  0  0  0  0  0  0  0  0  0  0  0
    3.5558   44.2497   75.3192 C   0  0  0  0  0  0  0  0  0  0  0  0
    4.4879   43.2221   75.2211 C   0  0  0  0  0  0  0  0  0  0  0  0
    5.5596   43.3228   74.3351 C   0  0  0  0  0  0  0  0  0  0  0  0
    7.2641   46.7369   69.5541 C   0  0  0  0  0  0  0  0  0  0  0  0
  1  3  1  0  0  0  0
  2  1  1  1  0  0  0
  2  6  1  0  0  0  0
  2 34  1  0  0  0  0
  3  4  2  0  0  0  0
  3 28  1  0  0  0  0
  5 13  1  0  0  0  0
  6  7  1  0  0  0  0
  7  8  1  0  0  0  0
  8  9  1  0  0  0  0
  8 10  1  0  0  0  0
 11 13  2  0  0  0  0
 11 24  1  0  0  0  0
 12 34  1  0  0  0  0
 13 15  1  0  0  0  0
 14 34  1  0  0  0  0
 15 16  1  0  0  0  0
 16 17  1  0  0  0  0
 16 18  2  0  0  0  0
 17 20  1  0  0  0  0
 17 24  2  0  0  0  0
 19 21  1  0  0  0  0
 19 20  1  0  0  0  0
 20 22  1  0  0  0  0
 22 23  1  0  0  0  0
 22 26  1  6  0  0  0
 23 25  1  0  0  0  0
 24 25  1  0  0  0  0
 26 27  1  0  0  0  0
 27 31  1  0  0  0  0
 28 29  2  0  0  0  0
 28 33  1  0  0  0  0
 29 30  1  0  0  0  0
 30 31  2  0  0  0  0
 31 32  1  0  0  0  0
 32 33  2  0  0  0  0
M  END
>  <CHROM.1>
88.13461287,-70.09614865,-20.38189014,175.86550423,-120.91786716,137.89537630
-170.62516551,-128.14947889,155.35358401,-35.09665044,3.70494491,42.62561811
73.73479596,0.19840239,0.79211860,0.28632306

>  <Name>
ligand

>  <RI>
0

>  <Rbt.Current_Directory>
/home/itssahil/PROJECTS/Mol_Feturizer/New_Systems/rnas/3SUH

>  <Rbt.Executable>
rbdock ($Id: //depot/dev/client3/rdock/2013.1/src/exe/rbdock.cxx#4 $)

>  <Rbt.Library>
libRbt.so (2013.1, Build901 2013/11/27)

>  <Rbt.Parameter_File>
/export/apps/rDock/src/rDock_2013.1_src/data/scripts/dock_solv.prm

>  <Rbt.Receptor>
prm/pocket_docking_6.prm

>  <SCORE>
-5.11062

>  <SCORE.INTER>
-2.54693

>  <SCORE.INTER.CONST>
1

>  <SCORE.INTER.POLAR>
0

>  <SCORE.INTER.ROT>
10

>  <SCORE.INTER.SOLV>
6.53693

>  <SCORE.INTER.VDW>
-14.1436

>  <SCORE.INTER.norm>
-0.0749096

>  <SCORE.INTRA>
-2.5637

>  <SCORE.INTRA.DIHEDRAL>
-3.48429

>  <SCORE.INTRA.DIHEDRAL.0>
12.2703

>  <SCORE.INTRA.POLAR>
0

>  <SCORE.INTRA.POLAR.0>
0

>  <SCORE.INTRA.REPUL>
0

>  <SCORE.INTRA.REPUL.0>
0

>  <SCORE.INTRA.SOLV>
-0.660253

>  <SCORE.INTRA.SOLV.lig_0>
-64.3214

>  <SCORE.INTRA.VDW>
-0.491421

>  <SCORE.INTRA.VDW.0>
-1.67301

>  <SCORE.INTRA.norm>
-0.0754028

>  <SCORE.RESTR>
0

>  <SCORE.RESTR.CAVITY>
0

>  <SCORE.RESTR.norm>
0

>  <SCORE.SYSTEM>
0

>  <SCORE.SYSTEM.CONST>
0

>  <SCORE.SYSTEM.DIHEDRAL>
0

>  <SCORE.SYSTEM.SOLV>
0

>  <SCORE.SYSTEM.norm>
0

>  <SCORE.heavy>
34

>  <SCORE.norm>
-0.150312

>  <RMSD>
11.094

$$$$
ligand
 OpenBabel11021811483D
libRbt.so/2013.1/901 2013/11/27
 34 36  0  0  0  0  0  0  0  0999 V2000
    8.1465   41.6604   71.0937 N   0  0  0  0  0  0  0  0  0  0  0  0
    8.8309   42.1008   69.8557 C   0  0  1  0  0  0  0  0  0  0  0  0
    7.6421   42.5002   72.0071 C   0  0  0  0  0  0  0  0  0  0  0  0
    7.6914   43.7305   71.9225 O   0  0  0  0  0  0  0  0  0  0  0  0
    4.9123   39.7194   82.6987 N   0  0  0  0  0  0  0  0  0  0  0  0
    8.7949   40.9719   68.8119 C   0  0  0  0  0  0  0  0  0  0  0  0
   10.0847   40.9293   67.9811 C   0  0  0  0  0  0  0  0  0  0  0  0
   10.3323   42.2680   67.2692 C   0  0  0  0  0  0  0  0  0  0  0  0
    9.4121   42.7072   66.5403 O   0  0  0  0  0  0  0  0  0  0  0  0
   11.4361   42.8243   67.4718 O   0  0  0  0  0  0  0  0  0  0  0  0
    3.8451   38.9084   80.8115 N   0  0  0  0  0  0  0  0  0  0  0  0
    8.9693   44.2885   68.8848 O   0  0  0  0  0  0  0  0  0  0  0  0
    4.4355   39.9191   81.4726 C   0  0  0  0  0  0  0  0  0  0  0  0
    6.9419   43.4118   69.2169 O   0  0  0  0  0  0  0  0  0  0  0  0
    4.5558   41.1847   80.8848 N   0  0  0  0  0  0  0  0  0  0  0  0
    4.0591   41.3801   79.6031 C   0  0  0  0  0  0  0  0  0  0  0  0
    3.4838   40.3068   78.9357 C   0  0  0  0  0  0  0  0  0  0  0  0
    4.1619   42.4783   79.0625 O   0  0  0  0  0  0  0  0  0  0  0  0
    2.3369   41.6321   77.3767 C   0  0  0  0  0  0  0  0  0  0  0  0
    2.9119   40.4720   77.6791 N   0  0  0  0  0  0  0  0  0  0  0  0
    2.6158   42.2121   76.3297 O   0  0  0  0  0  0  0  0  0  0  0  0
    2.7734   39.3146   76.7883 C   0  0  2  0  0  0  0  0  0  0  0  0
    2.1306   38.1665   77.5706 C   0  0  0  0  0  0  0  0  0  0  0  0
    3.3595   39.0794   79.5725 C   0  0  0  0  0  0  0  0  0  0  0  0
    2.7397   38.0113   78.9146 N   0  0  0  0  0  0  0  0  0  0  0  0
    4.1422   38.8859   76.2486 C   0  0  0  0  0  0  0  0  0  0  0  0
    5.1038   39.9830   76.4127 N   0  0  0  0  0  0  0  0  0  0  0  0
    6.9298   41.8128   73.1861 C   0  0  0  0  0  0  0  0  0  0  0  0
    7.1928   40.4798   73.4920 C   0  0  0  0  0  0  0  0  0  0  0  0
    6.5894   39.8752   74.5930 C   0  0  0  0  0  0  0  0  0  0  0  0
    5.6819   40.5839   75.3732 C   0  0  0  0  0  0  0  0  0  0  0  0
    5.4113   41.9125   75.0638 C   0  0  0  0  0  0  0  0  0  0  0  0
    6.0416   42.5288   73.9837 C   0  0  0  0  0  0  0  0  0  0  0  0
    8.1957   43.3774   69.2670 C   0  0  0  0  0  0  0  0  0  0  0  0
  1  3  1  0  0  0  0
  2  1  1  1  0  0  0
  2  6  1  0  0  0  0
  2 34  1  0  0  0  0
  3  4  2  0  0  0  0
  3 28  1  0  0  0  0
  5 13  1  0  0  0  0
  6  7  1  0  0  0  0
  7  8  1  0  0  0  0
  8  9  1  0  0  0  0
  8 10  1  0  0  0  0
 11 13  2  0  0  0  0
 11 24  1  0  0  0  0
 12 34  1  0  0  0  0
 13 15  1  0  0  0  0
 14 34  1  0  0  0  0
 15 16  1  0  0  0  0
 16 17  1  0  0  0  0
 16 18  2  0  0  0  0
 17 20  1  0  0  0  0
 17 24  2  0  0  0  0
 19 21  1  0  0  0  0
 19 20  1  0  0  0  0
 20 22  1  0  0  0  0
 22 23  1  0  0  0  0
 22 26  1  1  0  0  0
 23 25  1  0  0  0  0
 24 25  1  0  0  0  0
 26 27  1  0  0  0  0
 27 31  1  0  0  0  0
 28 29  2  0  0  0  0
 28 33  1  0  0  0  0
 29 30  1  0  0  0  0
 30 31  2  0  0  0  0
 31 32  1  0  0  0  0
 32 33  2  0  0  0  0
M  END
>  <CHROM.1>
-158.26590139,-143.98817543,135.05515523,-57.77778541,-54.87180398,130.16989058
-18.35391076,-116.58686376,-67.80944343,20.55203404,5.97080356,41.22132735
74.48900385,0.23887439,-1.08737067,-2.63731519

>  <Name>
ligand

>  <RI>
0

>  <Rbt.Current_Directory>
/home/itssahil/PROJECTS/Mol_Feturizer/New_Systems/rnas/3SUH

>  <Rbt.Executable>
rbdock ($Id: //depot/dev/client3/rdock/2013.1/src/exe/rbdock.cxx#4 $)

>  <Rbt.Library>
libRbt.so (2013.1, Build901 2013/11/27)

>  <Rbt.Parameter_File>
/export/apps/rDock/src/rDock_2013.1_src/data/scripts/dock_solv.prm

>  <Rbt.Receptor>
prm/pocket_docking_3.prm

>  <SCORE>
-3.08703

>  <SCORE.INTER>
-3.56163

>  <SCORE.INTER.CONST>
1

>  <SCORE.INTER.POLAR>
0

>  <SCORE.INTER.ROT>
10

>  <SCORE.INTER.SOLV>
6.49568

>  <SCORE.INTER.VDW>
-14.8063

>  <SCORE.INTER.norm>
-0.104754

>  <SCORE.INTRA>
0.4746

>  <SCORE.INTRA.DIHEDRAL>
3.487

>  <SCORE.INTRA.DIHEDRAL.0>
12.2703

>  <SCORE.INTRA.POLAR>
0

>  <SCORE.INTRA.POLAR.0>
0

>  <SCORE.INTRA.REPUL>
0

>  <SCORE.INTRA.REPUL.0>
0

>  <SCORE.INTRA.SOLV>
1.69779

>  <SCORE.INTRA.SOLV.lig_0>
-64.3214

>  <SCORE.INTRA.VDW>
-2.11779

>  <SCORE.INTRA.VDW.0>
-1.67301

>  <SCORE.INTRA.norm>
0.0139588

>  <SCORE.RESTR>
0

>  <SCORE.RESTR.CAVITY>
0

>  <SCORE.RESTR.norm>
0

>  <SCORE.SYSTEM>
0

>  <SCORE.SYSTEM.CONST>
0

>  <SCORE.SYSTEM.DIHEDRAL>
0

>  <SCORE.SYSTEM.SOLV>
0

>  <SCORE.SYSTEM.norm>
0

>  <SCORE.heavy>
34

>  <SCORE.norm>
-0.0907951

>  <RMSD>
11.155

$$$$
ligand
 OpenBabel11021811483D
libRbt.so/2013.1/901 2013/11/27
 34 36  0  0  0  0  0  0  0  0999 V2000
    8.4560   42.2850   70.7483 N   0  0  0  0  0  0  0  0  0  0  0  0
    9.1522   42.4603   69.4523 C   0  0  1  0  0  0  0  0  0  0  0  0
    7.2794   42.8512   71.0465 C   0  0  0  0  0  0  0  0  0  0  0  0
    6.6452   43.5814   70.2797 O   0  0  0  0  0  0  0  0  0  0  0  0
    4.7656   39.4808   82.9391 N   0  0  0  0  0  0  0  0  0  0  0  0
   10.5374   41.7950   69.5118 C   0  0  0  0  0  0  0  0  0  0  0  0
   11.4059   42.1898   68.3097 C   0  0  0  0  0  0  0  0  0  0  0  0
   11.9061   43.6369   68.4362 C   0  0  0  0  0  0  0  0  0  0  0  0
   12.1616   44.0552   69.5898 O   0  0  0  0  0  0  0  0  0  0  0  0
   12.0244   44.2926   67.3756 O   0  0  0  0  0  0  0  0  0  0  0  0
    3.8263   39.2388   80.8373 N   0  0  0  0  0  0  0  0  0  0  0  0
    8.4591   42.4297   67.1574 O   0  0  0  0  0  0  0  0  0  0  0  0
    4.4146   40.0087   81.7692 C   0  0  0  0  0  0  0  0  0  0  0  0
    7.6161   40.8833   68.5310 O   0  0  0  0  0  0  0  0  0  0  0  0
    4.6641   41.3648   81.5231 N   0  0  0  0  0  0  0  0  0  0  0  0
    4.2981   41.9034   80.2970 C   0  0  0  0  0  0  0  0  0  0  0  0
    3.7217   41.0734   79.3446 C   0  0  0  0  0  0  0  0  0  0  0  0
    4.5158   43.0878   80.0539 O   0  0  0  0  0  0  0  0  0  0  0  0
    2.8029   42.8243   78.0828 C   0  0  0  0  0  0  0  0  0  0  0  0
    3.2768   41.5829   78.1298 N   0  0  0  0  0  0  0  0  0  0  0  0
    3.2004   43.6116   77.2269 O   0  0  0  0  0  0  0  0  0  0  0  0
    3.1496   40.6902   76.9727 C   0  0  2  0  0  0  0  0  0  0  0  0
    2.3703   39.4430   77.3976 C   0  0  0  0  0  0  0  0  0  0  0  0
    3.4661   39.7427   79.6472 C   0  0  0  0  0  0  0  0  0  0  0  0
    2.8448   38.9189   78.7021 N   0  0  0  0  0  0  0  0  0  0  0  0
    4.5331   40.2952   76.4449 C   0  0  0  0  0  0  0  0  0  0  0  0
    5.3325   41.5023   76.2019 N   0  0  0  0  0  0  0  0  0  0  0  0
    6.7242   42.4836   72.4344 C   0  0  0  0  0  0  0  0  0  0  0  0
    6.8111   41.1768   72.9081 C   0  0  0  0  0  0  0  0  0  0  0  0
    6.3586   40.8572   74.1867 C   0  0  0  0  0  0  0  0  0  0  0  0
    5.7731   41.8315   74.9881 C   0  0  0  0  0  0  0  0  0  0  0  0
    5.6773   43.1352   74.5132 C   0  0  0  0  0  0  0  0  0  0  0  0
    6.1622   43.4635   73.2479 C   0  0  0  0  0  0  0  0  0  0  0  0
    8.3416   41.8757   68.2772 C   0  0  0  0  0  0  0  0  0  0  0  0
  1  3  1  0  0  0  0
  2  1  1  1  0  0  0
  2  6  1  0  0  0  0
  2 34  1  0  0  0  0
  3  4  2  0  0  0  0
  3 28  1  0  0  0  0
  5 13  1  0  0  0  0
  6  7  1  0  0  0  0
  7  8  1  0  0  0  0
  8  9  1  0  0  0  0
  8 10  1  0  0  0  0
 11 13  2  0  0  0  0
 11 24  1  0  0  0  0
 12 34  1  0  0  0  0
 13 15  1  0  0  0  0
 14 34  1  0  0  0  0
 15 16  1  0  0  0  0
 16 17  1  0  0  0  0
 16 18  2  0  0  0  0
 17 20  1  0  0  0  0
 17 24  2  0  0  0  0
 19 21  1  0  0  0  0
 19 20  1  0  0  0  0
 20 22  1  0  0  0  0
 22 23  1  0  0  0  0
 22 26  1  1  0  0  0
 23 25  1  0  0  0  0
 24 25  1  0  0  0  0
 26 27  1  0  0  0  0
 27 31  1  0  0  0  0
 28 29  2  0  0  0  0
 28 33  1  0  0  0  0
 29 30  1  0  0  0  0
 30 31  2  0  0  0  0
 31 32  1  0  0  0  0
 32 33  2  0  0  0  0
M  END
>  <CHROM.1>
174.02271965,-168.38272525,148.86227677,73.62437090,34.31828313,130.88275047
-52.66409406,-117.59055229,-45.79478954,-41.37600214,6.30395234,41.80360045
74.51038897,1.04104918,-0.33306958,-1.57616527

>  <Name>
ligand

>  <RI>
0

>  <Rbt.Current_Directory>
/home/itssahil/PROJECTS/Mol_Feturizer/New_Systems/rnas/3SUH

>  <Rbt.Executable>
rbdock ($Id: //depot/dev/client3/rdock/2013.1/src/exe/rbdock.cxx#4 $)

>  <Rbt.Library>
libRbt.so (2013.1, Build901 2013/11/27)

>  <Rbt.Parameter_File>
/export/apps/rDock/src/rDock_2013.1_src/data/scripts/dock_solv.prm

>  <Rbt.Receptor>
prm/pocket_docking_3.prm

>  <SCORE>
-7.37988

>  <SCORE.INTER>
-4.50326

>  <SCORE.INTER.CONST>
1

>  <SCORE.INTER.POLAR>
0

>  <SCORE.INTER.ROT>
10

>  <SCORE.INTER.SOLV>
6.55848

>  <SCORE.INTER.VDW>
-15.455

>  <SCORE.INTER.norm>
-0.132449

>  <SCORE.INTRA>
-2.87663

>  <SCORE.INTRA.DIHEDRAL>
-3.23411

>  <SCORE.INTRA.DIHEDRAL.0>
12.2703

>  <SCORE.INTRA.POLAR>
0

>  <SCORE.INTRA.POLAR.0>
0

>  <SCORE.INTRA.REPUL>
0

>  <SCORE.INTRA.REPUL.0>
0

>  <SCORE.INTRA.SOLV>
0.190215

>  <SCORE.INTRA.SOLV.lig_0>
-64.3214

>  <SCORE.INTRA.VDW>
-1.35468

>  <SCORE.INTRA.VDW.0>
-1.67301

>  <SCORE.INTRA.norm>
-0.0846067

>  <SCORE.RESTR>
0

>  <SCORE.RESTR.CAVITY>
0

>  <SCORE.RESTR.norm>
0

>  <SCORE.SYSTEM>
0

>  <SCORE.SYSTEM.CONST>
0

>  <SCORE.SYSTEM.DIHEDRAL>
0

>  <SCORE.SYSTEM.SOLV>
0

>  <SCORE.SYSTEM.norm>
0

>  <SCORE.heavy>
34

>  <SCORE.norm>
-0.217055

>  <RMSD>
11.199

$$$$
ligand
 OpenBabel11021811483D
libRbt.so/2013.1/901 2013/11/27
 34 36  0  0  0  0  0  0  0  0999 V2000
    7.3918   43.0306   71.0278 N   0  0  0  0  0  0  0  0  0  0  0  0
    8.4198   42.9065   69.9683 C   0  0  1  0  0  0  0  0  0  0  0  0
    7.6421   43.4898   72.2609 C   0  0  0  0  0  0  0  0  0  0  0  0
    8.7526   43.8584   72.6532 O   0  0  0  0  0  0  0  0  0  0  0  0
    4.2794   39.2959   81.0058 N   0  0  0  0  0  0  0  0  0  0  0  0
    7.9953   41.8301   68.9551 C   0  0  0  0  0  0  0  0  0  0  0  0
    9.2092   41.1006   68.3639 C   0  0  0  0  0  0  0  0  0  0  0  0
   10.1055   42.0641   67.5712 C   0  0  0  0  0  0  0  0  0  0  0  0
    9.5747   42.6913   66.6246 O   0  0  0  0  0  0  0  0  0  0  0  0
   11.3018   42.1544   67.9311 O   0  0  0  0  0  0  0  0  0  0  0  0
    2.6798   40.0693   79.5221 N   0  0  0  0  0  0  0  0  0  0  0  0
    7.6614   44.9557   68.9818 O   0  0  0  0  0  0  0  0  0  0  0  0
    3.7284   40.3014   80.3307 C   0  0  0  0  0  0  0  0  0  0  0  0
    9.8523   44.5219   68.9513 O   0  0  0  0  0  0  0  0  0  0  0  0
    4.2506   41.5933   80.4718 N   0  0  0  0  0  0  0  0  0  0  0  0
    3.6707   42.6338   79.7586 C   0  0  0  0  0  0  0  0  0  0  0  0
    2.6094   42.3545   78.9077 C   0  0  0  0  0  0  0  0  0  0  0  0
    4.1173   43.7739   79.8580 O   0  0  0  0  0  0  0  0  0  0  0  0
    1.8549   44.5726   78.7939 C   0  0  0  0  0  0  0  0  0  0  0  0
    1.9538   43.3741   78.2266 N   0  0  0  0  0  0  0  0  0  0  0  0
    0.8774   44.8580   79.4820 O   0  0  0  0  0  0  0  0  0  0  0  0
    1.2147   43.0658   76.9975 C   0  0  2  0  0  0  0  0  0  0  0  0
    0.3020   41.8654   77.2609 C   0  0  0  0  0  0  0  0  0  0  0  0
    2.1072   41.0628   78.8256 C   0  0  0  0  0  0  0  0  0  0  0  0
    1.0095   40.7918   78.0013 N   0  0  0  0  0  0  0  0  0  0  0  0
    2.1841   42.7522   75.8527 C   0  0  0  0  0  0  0  0  0  0  0  0
    3.1529   43.8462   75.7118 N   0  0  0  0  0  0  0  0  0  0  0  0
    6.4068   43.5780   73.1753 C   0  0  0  0  0  0  0  0  0  0  0  0
    6.1055   42.5449   74.0595 C   0  0  0  0  0  0  0  0  0  0  0  0
    5.0192   42.6507   74.9258 C   0  0  0  0  0  0  0  0  0  0  0  0
    4.1959   43.7710   74.8858 C   0  0  0  0  0  0  0  0  0  0  0  0
    4.4901   44.7997   73.9972 C   0  0  0  0  0  0  0  0  0  0  0  0
    5.5975   44.7104   73.1550 C   0  0  0  0  0  0  0  0  0  0  0  0
    8.6624   44.2440   69.2389 C   0  0  0  0  0  0  0  0  0  0  0  0
  1  3  1  0  0  0  0
  2  1  1  1  0  0  0
  2  6  1  0  0  0  0
  2 34  1  0  0  0  0
  3  4  2  0  0  0  0
  3 28  1  0  0  0  0
  5 13  1  0  0  0  0
  6  7  1  0  0  0  0
  7  8  1  0  0  0  0
  8  9  1  0  0  0  0
  8 10  1  0  0  0  0
 11 13  2  0  0  0  0
 11 24  1  0  0  0  0
 12 34  1  0  0  0  0
 13 15  1  0  0  0  0
 14 34  1  0  0  0  0
 15 16  1  0  0  0  0
 16 17  1  0  0  0  0
 16 18  2  0  0  0  0
 17 20  1  0  0  0  0
 17 24  2  0  0  0  0
 19 21  1  0  0  0  0
 19 20  1  0  0  0  0
 20 22  1  0  0  0  0
 22 23  1  0  0  0  0
 22 26  1  6  0  0  0
 23 25  1  0  0  0  0
 24 25  1  0  0  0  0
 26 27  1  0  0  0  0
 27 31  1  0  0  0  0
 28 29  2  0  0  0  0
 28 33  1  0  0  0  0
 29 30  1  0  0  0  0
 30 31  2  0  0  0  0
 31 32  1  0  0  0  0
 32 33  2  0  0  0  0
M  END
>  <CHROM.1>
155.24362335,-147.70963877,-40.15946550,-63.00747701,-57.37425182,-91.82131254
-53.34645971,172.81284042,-49.89489866,95.71844406,5.30519614,42.81979428
74.50247242,0.75968979,0.71037169,-0.88895967

>  <Name>
ligand

>  <RI>
0

>  <Rbt.Current_Directory>
/home/itssahil/PROJECTS/Mol_Feturizer/New_Systems/rnas/3SUH

>  <Rbt.Executable>
rbdock ($Id: //depot/dev/client3/rdock/2013.1/src/exe/rbdock.cxx#4 $)

>  <Rbt.Library>
libRbt.so (2013.1, Build901 2013/11/27)

>  <Rbt.Parameter_File>
/export/apps/rDock/src/rDock_2013.1_src/data/scripts/dock_solv.prm

>  <Rbt.Receptor>
prm/pocket_docking_6.prm

>  <SCORE>
-7.69352

>  <SCORE.INTER>
-3.97839

>  <SCORE.INTER.CONST>
1

>  <SCORE.INTER.POLAR>
0

>  <SCORE.INTER.ROT>
10

>  <SCORE.INTER.SOLV>
5.96618

>  <SCORE.INTER.VDW>
-14.9077

>  <SCORE.INTER.norm>
-0.117012

>  <SCORE.INTRA>
-3.71513

>  <SCORE.INTRA.DIHEDRAL>
-2.16869

>  <SCORE.INTRA.DIHEDRAL.0>
12.2703

>  <SCORE.INTRA.POLAR>
0

>  <SCORE.INTRA.POLAR.0>
0

>  <SCORE.INTRA.REPUL>
0

>  <SCORE.INTRA.REPUL.0>
0

>  <SCORE.INTRA.SOLV>
-0.691291

>  <SCORE.INTRA.SOLV.lig_0>
-64.3214

>  <SCORE.INTRA.VDW>
-2.28513

>  <SCORE.INTRA.VDW.0>
-1.67301

>  <SCORE.INTRA.norm>
-0.109268

>  <SCORE.RESTR>
0

>  <SCORE.RESTR.CAVITY>
0

>  <SCORE.RESTR.norm>
0

>  <SCORE.SYSTEM>
0

>  <SCORE.SYSTEM.CONST>
0

>  <SCORE.SYSTEM.DIHEDRAL>
0

>  <SCORE.SYSTEM.SOLV>
0

>  <SCORE.SYSTEM.norm>
0

>  <SCORE.heavy>
34

>  <SCORE.norm>
-0.22628

>  <RMSD>
11.234

$$$$
ligand
 OpenBabel11021811483D
libRbt.so/2013.1/901 2013/11/27
 34 36  0  0  0  0  0  0  0  0999 V2000
    8.0901   41.5317   69.9348 N   0  0  0  0  0  0  0  0  0  0  0  0
    8.5825   42.8103   69.3713 C   0  0  1  0  0  0  0  0  0  0  0  0
    8.8782   40.6219   70.5222 C   0  0  0  0  0  0  0  0  0  0  0  0
   10.0988   40.7439   70.6586 O   0  0  0  0  0  0  0  0  0  0  0  0
    6.7522   33.9247   79.8583 N   0  0  0  0  0  0  0  0  0  0  0  0
    8.8026   42.6606   67.8566 C   0  0  0  0  0  0  0  0  0  0  0  0
   10.1050   41.9104   67.5463 C   0  0  0  0  0  0  0  0  0  0  0  0
   11.3326   42.7978   67.8025 C   0  0  0  0  0  0  0  0  0  0  0  0
   11.6308   43.6319   66.9157 O   0  0  0  0  0  0  0  0  0  0  0  0
   11.9447   42.6243   68.8814 O   0  0  0  0  0  0  0  0  0  0  0  0
    6.5127   33.6943   77.5675 N   0  0  0  0  0  0  0  0  0  0  0  0
    6.5885   43.7307   70.3327 O   0  0  0  0  0  0  0  0  0  0  0  0
    6.0555   34.1490   78.7471 C   0  0  0  0  0  0  0  0  0  0  0  0
    7.9115   45.0901   69.1535 O   0  0  0  0  0  0  0  0  0  0  0  0
    4.8505   34.8590   78.8215 N   0  0  0  0  0  0  0  0  0  0  0  0
    4.1346   35.0914   77.6548 C   0  0  0  0  0  0  0  0  0  0  0  0
    4.6509   34.6359   76.4488 C   0  0  0  0  0  0  0  0  0  0  0  0
    3.0802   35.7205   77.6931 O   0  0  0  0  0  0  0  0  0  0  0  0
    2.6078   34.7473   75.3017 C   0  0  0  0  0  0  0  0  0  0  0  0
    3.9364   34.7852   75.2653 N   0  0  0  0  0  0  0  0  0  0  0  0
    2.0100   33.6843   75.1501 O   0  0  0  0  0  0  0  0  0  0  0  0
    4.6493   34.7805   73.9832 C   0  0  2  0  0  0  0  0  0  0  0  0
    5.5852   33.5697   73.9457 C   0  0  0  0  0  0  0  0  0  0  0  0
    5.8340   33.9097   76.4304 C   0  0  0  0  0  0  0  0  0  0  0  0
    6.3296   33.4135   75.2196 N   0  0  0  0  0  0  0  0  0  0  0  0
    5.4516   36.0748   73.8105 C   0  0  0  0  0  0  0  0  0  0  0  0
    6.0824   36.0920   72.4850 N   0  0  0  0  0  0  0  0  0  0  0  0
    8.1355   39.3939   71.0792 C   0  0  0  0  0  0  0  0  0  0  0  0
    6.8799   39.5322   71.6659 C   0  0  0  0  0  0  0  0  0  0  0  0
    6.1848   38.4128   72.1192 C   0  0  0  0  0  0  0  0  0  0  0  0
    6.7570   37.1481   72.0317 C   0  0  0  0  0  0  0  0  0  0  0  0
    8.0145   37.0093   71.4541 C   0  0  0  0  0  0  0  0  0  0  0  0
    8.6956   38.1244   70.9680 C   0  0  0  0  0  0  0  0  0  0  0  0
    7.6094   43.9755   69.6453 C   0  0  0  0  0  0  0  0  0  0  0  0
  1  3  1  0  0  0  0
  2  1  1  6  0  0  0
  2  6  1  0  0  0  0
  2 34  1  0  0  0  0
  3  4  2  0  0  0  0
  3 28  1  0  0  0  0
  5 13  1  0  0  0  0
  6  7  1  0  0  0  0
  7  8  1  0  0  0  0
  8  9  1  0  0  0  0
  8 10  1  0  0  0  0
 11 13  2  0  0  0  0
 11 24  1  0  0  0  0
 12 34  1  0  0  0  0
 13 15  1  0  0  0  0
 14 34  1  0  0  0  0
 15 16  1  0  0  0  0
 16 17  1  0  0  0  0
 16 18  2  0  0  0  0
 17 20  1  0  0  0  0
 17 24  2  0  0  0  0
 19 21  1  0  0  0  0
 19 20  1  0  0  0  0
 20 22  1  0  0  0  0
 22 23  1  0  0  0  0
 22 26  1  1  0  0  0
 23 25  1  0  0  0  0
 24 25  1  0  0  0  0
 26 27  1  0  0  0  0
 27 31  1  0  0  0  0
 28 29  2  0  0  0  0
 28 33  1  0  0  0  0
 29 30  1  0  0  0  0
 30 31  2  0  0  0  0
 31 32  1  0  0  0  0
 32 33  2  0  0  0  0
M  END
>  <CHROM.1>
96.84202520,-77.63498747,2.92629406,-73.96291913,-79.88749426,-91.14444226
-176.13580183,174.79309298,-48.80962347,-37.05355387,6.91257757,38.16325885
72.79119119,1.16486735,0.24573943,-0.65064097

>  <Name>
ligand

>  <RI>
0

>  <Rbt.Current_Directory>
/home/itssahil/PROJECTS/Mol_Feturizer/New_Systems/rnas/3SUH

>  <Rbt.Executable>
rbdock ($Id: //depot/dev/client3/rdock/2013.1/src/exe/rbdock.cxx#4 $)

>  <Rbt.Library>
libRbt.so (2013.1, Build901 2013/11/27)

>  <Rbt.Parameter_File>
/export/apps/rDock/src/rDock_2013.1_src/data/scripts/dock_solv.prm

>  <Rbt.Receptor>
prm/pocket_docking_8.prm

>  <SCORE>
-12.8766

>  <SCORE.INTER>
-9.65758

>  <SCORE.INTER.CONST>
1

>  <SCORE.INTER.POLAR>
0

>  <SCORE.INTER.ROT>
10

>  <SCORE.INTER.SOLV>
4.96685

>  <SCORE.INTER.VDW>
-18.3607

>  <SCORE.INTER.norm>
-0.284046

>  <SCORE.INTRA>
-3.21903

>  <SCORE.INTRA.DIHEDRAL>
-3.22905

>  <SCORE.INTRA.DIHEDRAL.0>
12.2703

>  <SCORE.INTRA.POLAR>
0

>  <SCORE.INTRA.POLAR.0>
0

>  <SCORE.INTRA.REPUL>
0

>  <SCORE.INTRA.REPUL.0>
0

>  <SCORE.INTRA.SOLV>
-0.605774

>  <SCORE.INTRA.SOLV.lig_0>
-64.3214

>  <SCORE.INTRA.VDW>
-1.30162

>  <SCORE.INTRA.VDW.0>
-1.67301

>  <SCORE.INTRA.norm>
-0.0946774

>  <SCORE.RESTR>
0

>  <SCORE.RESTR.CAVITY>
0

>  <SCORE.RESTR.norm>
0

>  <SCORE.SYSTEM>
0

>  <SCORE.SYSTEM.CONST>
0

>  <SCORE.SYSTEM.DIHEDRAL>
0

>  <SCORE.SYSTEM.SOLV>
0

>  <SCORE.SYSTEM.norm>
0

>  <SCORE.heavy>
34

>  <SCORE.norm>
-0.378724

>  <RMSD>
11.399

$$$$
ligand
 OpenBabel11021811483D
libRbt.so/2013.1/901 2013/11/27
 34 36  0  0  0  0  0  0  0  0999 V2000
    7.6541   41.6231   71.1876 N   0  0  0  0  0  0  0  0  0  0  0  0
    8.2977   41.4176   69.8691 C   0  0  1  0  0  0  0  0  0  0  0  0
    6.9718   40.6740   71.8415 C   0  0  0  0  0  0  0  0  0  0  0  0
    6.8011   39.5262   71.4211 O   0  0  0  0  0  0  0  0  0  0  0  0
   -1.4973   43.0616   81.0258 N   0  0  0  0  0  0  0  0  0  0  0  0
    8.1506   42.6880   69.0148 C   0  0  0  0  0  0  0  0  0  0  0  0
    8.6711   42.4723   67.5873 C   0  0  0  0  0  0  0  0  0  0  0  0
   10.2063   42.5085   67.5435 C   0  0  0  0  0  0  0  0  0  0  0  0
   10.7710   43.4903   68.0805 O   0  0  0  0  0  0  0  0  0  0  0  0
   10.7819   41.5517   66.9761 O   0  0  0  0  0  0  0  0  0  0  0  0
    0.0092   42.0749   79.5714 N   0  0  0  0  0  0  0  0  0  0  0  0
   10.4809   41.7143   70.8143 O   0  0  0  0  0  0  0  0  0  0  0  0
   -0.8222   43.0855   79.8794 C   0  0  0  0  0  0  0  0  0  0  0  0
   10.2053   40.1065   69.2886 O   0  0  0  0  0  0  0  0  0  0  0  0
   -0.9871   44.1676   79.0057 N   0  0  0  0  0  0  0  0  0  0  0  0
   -0.2737   44.1842   77.8147 C   0  0  0  0  0  0  0  0  0  0  0  0
    0.6007   43.1405   77.5418 C   0  0  0  0  0  0  0  0  0  0  0  0
   -0.3938   45.1274   77.0368 O   0  0  0  0  0  0  0  0  0  0  0  0
    0.7058   43.5650   75.2372 C   0  0  0  0  0  0  0  0  0  0  0  0
    1.2837   43.0801   76.3321 N   0  0  0  0  0  0  0  0  0  0  0  0
    1.3883   43.9546   74.2924 O   0  0  0  0  0  0  0  0  0  0  0  0
    2.5302   42.3120   76.2416 C   0  0  2  0  0  0  0  0  0  0  0  0
    2.2974   40.9245   76.8449 C   0  0  0  0  0  0  0  0  0  0  0  0
    0.7063   42.0746   78.4250 C   0  0  0  0  0  0  0  0  0  0  0  0
    1.5547   41.0026   78.1270 N   0  0  0  0  0  0  0  0  0  0  0  0
    3.6591   43.0309   76.9882 C   0  0  0  0  0  0  0  0  0  0  0  0
    4.8978   42.2502   76.8815 N   0  0  0  0  0  0  0  0  0  0  0  0
    6.4362   41.1033   73.2194 C   0  0  0  0  0  0  0  0  0  0  0  0
    6.0673   42.4255   73.4548 C   0  0  0  0  0  0  0  0  0  0  0  0
    5.5305   42.8010   74.6847 C   0  0  0  0  0  0  0  0  0  0  0  0
    5.3989   41.8678   75.7075 C   0  0  0  0  0  0  0  0  0  0  0  0
    5.7752   40.5488   75.4771 C   0  0  0  0  0  0  0  0  0  0  0  0
    6.2791   40.1646   74.2353 C   0  0  0  0  0  0  0  0  0  0  0  0
    9.7895   41.0493   70.0053 C   0  0  0  0  0  0  0  0  0  0  0  0
  1  3  1  0  0  0  0
  2  1  1  1  0  0  0
  2  6  1  0  0  0  0
  2 34  1  0  0  0  0
  3  4  2  0  0  0  0
  3 28  1  0  0  0  0
  5 13  1  0  0  0  0
  6  7  1  0  0  0  0
  7  8  1  0  0  0  0
  8  9  1  0  0  0  0
  8 10  1  0  0  0  0
 11 13  2  0  0  0  0
 11 24  1  0  0  0  0
 12 34  1  0  0  0  0
 13 15  1  0  0  0  0
 14 34  1  0  0  0  0
 15 16  1  0  0  0  0
 16 17  1  0  0  0  0
 16 18  2  0  0  0  0
 17 20  1  0  0  0  0
 17 24  2  0  0  0  0
 19 21  1  0  0  0  0
 19 20  1  0  0  0  0
 20 22  1  0  0  0  0
 22 23  1  0  0  0  0
 22 26  1  1  0  0  0
 23 25  1  0  0  0  0
 24 25  1  0  0  0  0
 26 27  1  0  0  0  0
 27 31  1  0  0  0  0
 28 29  2  0  0  0  0
 28 33  1  0  0  0  0
 29 30  1  0  0  0  0
 30 31  2  0  0  0  0
 31 32  1  0  0  0  0
 32 33  2  0  0  0  0
M  END
>  <CHROM.1>
142.43654781,-173.97181116,-44.96413321,-77.09454736,-51.07791839,154.75699129
-179.77398511,54.12465339,48.74811109,31.57603851,4.76791267,42.21369916
74.05473305,-0.52103131,-0.62137939,2.21226264

>  <Name>
ligand

>  <RI>
0

>  <Rbt.Current_Directory>
/home/itssahil/PROJECTS/Mol_Feturizer/New_Systems/rnas/3SUH

>  <Rbt.Executable>
rbdock ($Id: //depot/dev/client3/rdock/2013.1/src/exe/rbdock.cxx#4 $)

>  <Rbt.Library>
libRbt.so (2013.1, Build901 2013/11/27)

>  <Rbt.Parameter_File>
/export/apps/rDock/src/rDock_2013.1_src/data/scripts/dock_solv.prm

>  <Rbt.Receptor>
prm/pocket_docking_6.prm

>  <SCORE>
-8.14114

>  <SCORE.INTER>
-4.67476

>  <SCORE.INTER.CONST>
1

>  <SCORE.INTER.POLAR>
0

>  <SCORE.INTER.ROT>
10

>  <SCORE.INTER.SOLV>
8.97979

>  <SCORE.INTER.VDW>
-16.3764

>  <SCORE.INTER.norm>
-0.137493

>  <SCORE.INTRA>
-3.46639

>  <SCORE.INTRA.DIHEDRAL>
-4.08481

>  <SCORE.INTRA.DIHEDRAL.0>
12.2703

>  <SCORE.INTRA.POLAR>
0

>  <SCORE.INTRA.POLAR.0>
0

>  <SCORE.INTRA.REPUL>
0

>  <SCORE.INTRA.REPUL.0>
0

>  <SCORE.INTRA.SOLV>
-1.10536

>  <SCORE.INTRA.SOLV.lig_0>
-64.3214

>  <SCORE.INTRA.VDW>
-0.871298

>  <SCORE.INTRA.VDW.0>
-1.67301

>  <SCORE.INTRA.norm>
-0.101953

>  <SCORE.RESTR>
0

>  <SCORE.RESTR.CAVITY>
0

>  <SCORE.RESTR.norm>
0

>  <SCORE.SYSTEM>
0

>  <SCORE.SYSTEM.CONST>
0

>  <SCORE.SYSTEM.DIHEDRAL>
0

>  <SCORE.SYSTEM.SOLV>
0

>  <SCORE.SYSTEM.norm>
0

>  <SCORE.heavy>
34

>  <SCORE.norm>
-0.239445

>  <RMSD>
11.535

$$$$
ligand
 OpenBabel11021811483D
libRbt.so/2013.1/901 2013/11/27
 34 36  0  0  0  0  0  0  0  0999 V2000
    6.9393   40.4270   71.4913 N   0  0  0  0  0  0  0  0  0  0  0  0
    7.6005   41.0076   70.2994 C   0  0  1  0  0  0  0  0  0  0  0  0
    6.9715   39.1247   71.8028 C   0  0  0  0  0  0  0  0  0  0  0  0
    7.5514   38.2642   71.1346 O   0  0  0  0  0  0  0  0  0  0  0  0
   -0.3796   39.9211   82.4806 N   0  0  0  0  0  0  0  0  0  0  0  0
    7.6581   42.5388   70.4308 C   0  0  0  0  0  0  0  0  0  0  0  0
    8.1696   43.1976   69.1425 C   0  0  0  0  0  0  0  0  0  0  0  0
    8.3680   44.7092   69.3315 C   0  0  0  0  0  0  0  0  0  0  0  0
    9.5460   45.1373   69.3218 O   0  0  0  0  0  0  0  0  0  0  0  0
    7.3365   45.4043   69.4791 O   0  0  0  0  0  0  0  0  0  0  0  0
    0.2160   39.2357   80.3513 N   0  0  0  0  0  0  0  0  0  0  0  0
    9.6849   40.1561   71.1228 O   0  0  0  0  0  0  0  0  0  0  0  0
    0.2634   40.1477   81.3380 C   0  0  0  0  0  0  0  0  0  0  0  0
    9.4179   40.3246   68.9117 O   0  0  0  0  0  0  0  0  0  0  0  0
    0.9841   41.3379   81.1778 N   0  0  0  0  0  0  0  0  0  0  0  0
    1.6552   41.5612   79.9831 C   0  0  0  0  0  0  0  0  0  0  0  0
    1.6123   40.5847   78.9967 C   0  0  0  0  0  0  0  0  0  0  0  0
    2.3025   42.5929   79.8227 O   0  0  0  0  0  0  0  0  0  0  0  0
    2.2542   42.0256   77.2606 C   0  0  0  0  0  0  0  0  0  0  0  0
    2.2114   40.7939   77.7594 N   0  0  0  0  0  0  0  0  0  0  0  0
    3.2642   42.4330   76.6911 O   0  0  0  0  0  0  0  0  0  0  0  0
    2.6031   39.6418   76.9401 C   0  0  2  0  0  0  0  0  0  0  0  0
    1.4195   38.6748   76.8542 C   0  0  0  0  0  0  0  0  0  0  0  0
    0.8585   39.4351   79.1905 C   0  0  0  0  0  0  0  0  0  0  0  0
    0.7805   38.4726   78.1779 N   0  0  0  0  0  0  0  0  0  0  0  0
    3.8188   38.9369   77.5516 C   0  0  0  0  0  0  0  0  0  0  0  0
    4.2867   37.8822   76.6439 N   0  0  0  0  0  0  0  0  0  0  0  0
    6.2566   38.7618   73.1170 C   0  0  0  0  0  0  0  0  0  0  0  0
    6.7245   39.2487   74.3351 C   0  0  0  0  0  0  0  0  0  0  0  0
    6.0442   38.9651   75.5176 C   0  0  0  0  0  0  0  0  0  0  0  0
    4.9143   38.1543   75.5003 C   0  0  0  0  0  0  0  0  0  0  0  0
    4.4507   37.6599   74.2858 C   0  0  0  0  0  0  0  0  0  0  0  0
    5.1102   37.9724   73.0980 C   0  0  0  0  0  0  0  0  0  0  0  0
    9.0232   40.4466   70.0970 C   0  0  0  0  0  0  0  0  0  0  0  0
  1  3  1  0  0  0  0
  2  1  1  1  0  0  0
  2  6  1  0  0  0  0
  2 34  1  0  0  0  0
  3  4  2  0  0  0  0
  3 28  1  0  0  0  0
  5 13  1  0  0  0  0
  6  7  1  0  0  0  0
  7  8  1  0  0  0  0
  8  9  1  0  0  0  0
  8 10  1  0  0  0  0
 11 13  2  0  0  0  0
 11 24  1  0  0  0  0
 12 34  1  0  0  0  0
 13 15  1  0  0  0  0
 14 34  1  0  0  0  0
 15 16  1  0  0  0  0
 16 17  1  0  0  0  0
 16 18  2  0  0  0  0
 17 20  1  0  0  0  0
 17 24  2  0  0  0  0
 19 21  1  0  0  0  0
 19 20  1  0  0  0  0
 20 22  1  0  0  0  0
 22 23  1  0  0  0  0
 22 26  1  1  0  0  0
 23 25  1  0  0  0  0
 24 25  1  0  0  0  0
 26 27  1  0  0  0  0
 27 31  1  0  0  0  0
 28 29  2  0  0  0  0
 28 33  1  0  0  0  0
 29 30  1  0  0  0  0
 30 31  2  0  0  0  0
 31 32  1  0  0  0  0
 32 33  2  0  0  0  0
M  END
>  <CHROM.1>
-166.20213360,-172.65534481,-33.32235646,-173.86822846,111.28465531,139.13049470
-173.74120133,72.26801214,54.30807705,-64.25158030,4.76671837,40.53426485
74.90809170,-0.19898011,-0.92407935,3.07328914

>  <Name>
ligand

>  <RI>
0

>  <Rbt.Current_Directory>
/home/itssahil/PROJECTS/Mol_Feturizer/New_Systems/rnas/3SUH

>  <Rbt.Executable>
rbdock ($Id: //depot/dev/client3/rdock/2013.1/src/exe/rbdock.cxx#4 $)

>  <Rbt.Library>
libRbt.so (2013.1, Build901 2013/11/27)

>  <Rbt.Parameter_File>
/export/apps/rDock/src/rDock_2013.1_src/data/scripts/dock_solv.prm

>  <Rbt.Receptor>
prm/pocket_docking_6.prm

>  <SCORE>
-6.82133

>  <SCORE.INTER>
-2.7006

>  <SCORE.INTER.CONST>
1

>  <SCORE.INTER.POLAR>
0

>  <SCORE.INTER.ROT>
10

>  <SCORE.INTER.SOLV>
7.64457

>  <SCORE.INTER.VDW>
-14.6153

>  <SCORE.INTER.norm>
-0.0794293

>  <SCORE.INTRA>
-4.12073

>  <SCORE.INTRA.DIHEDRAL>
-5.31979

>  <SCORE.INTRA.DIHEDRAL.0>
12.2703

>  <SCORE.INTRA.POLAR>
0

>  <SCORE.INTRA.POLAR.0>
0

>  <SCORE.INTRA.REPUL>
0

>  <SCORE.INTRA.REPUL.0>
0

>  <SCORE.INTRA.SOLV>
-0.853062

>  <SCORE.INTRA.SOLV.lig_0>
-64.3214

>  <SCORE.INTRA.VDW>
-1.03431

>  <SCORE.INTRA.VDW.0>
-1.67301

>  <SCORE.INTRA.norm>
-0.121198

>  <SCORE.RESTR>
0

>  <SCORE.RESTR.CAVITY>
0

>  <SCORE.RESTR.norm>
0

>  <SCORE.SYSTEM>
0

>  <SCORE.SYSTEM.CONST>
0

>  <SCORE.SYSTEM.DIHEDRAL>
0

>  <SCORE.SYSTEM.SOLV>
0

>  <SCORE.SYSTEM.norm>
0

>  <SCORE.heavy>
34

>  <SCORE.norm>
-0.200627

>  <RMSD>
11.708

$$$$
ligand
 OpenBabel11021811483D
libRbt.so/2013.1/901 2013/11/27
 34 36  0  0  0  0  0  0  0  0999 V2000
    3.1416   45.2437   60.1040 N   0  0  0  0  0  0  0  0  0  0  0  0
    1.7028   45.2935   60.4533 C   0  0  1  0  0  0  0  0  0  0  0  0
    4.0191   46.2070   60.4141 C   0  0  0  0  0  0  0  0  0  0  0  0
    3.7297   47.2414   61.0219 O   0  0  0  0  0  0  0  0  0  0  0  0
    5.3379   40.3890   54.4160 N   0  0  0  0  0  0  0  0  0  0  0  0
    1.5412   45.6275   61.9458 C   0  0  0  0  0  0  0  0  0  0  0  0
    0.1118   45.3557   62.4340 C   0  0  0  0  0  0  0  0  0  0  0  0
   -0.0802   45.8275   63.8834 C   0  0  0  0  0  0  0  0  0  0  0  0
   -0.4403   47.0157   64.0554 O   0  0  0  0  0  0  0  0  0  0  0  0
    0.1350   44.9883   64.7880 O   0  0  0  0  0  0  0  0  0  0  0  0
    7.3460   41.4992   54.7212 N   0  0  0  0  0  0  0  0  0  0  0  0
   -0.3172   46.2746   59.6138 O   0  0  0  0  0  0  0  0  0  0  0  0
    6.0043   41.4735   54.8032 C   0  0  0  0  0  0  0  0  0  0  0  0
    1.6295   47.1449   58.9492 O   0  0  0  0  0  0  0  0  0  0  0  0
    5.2965   42.5783   55.2932 N   0  0  0  0  0  0  0  0  0  0  0  0
    6.0028   43.7026   55.6990 C   0  0  0  0  0  0  0  0  0  0  0  0
    7.3897   43.6843   55.6313 C   0  0  0  0  0  0  0  0  0  0  0  0
    5.4049   44.6801   56.1418 O   0  0  0  0  0  0  0  0  0  0  0  0
    7.6255   46.0161   55.7260 C   0  0  0  0  0  0  0  0  0  0  0  0
    8.1348   44.8108   55.9616 N   0  0  0  0  0  0  0  0  0  0  0  0
    7.4159   46.3903   54.5743 O   0  0  0  0  0  0  0  0  0  0  0  0
    9.5347   44.6584   56.3730 C   0  0  2  0  0  0  0  0  0  0  0  0
   10.2519   43.7679   55.3551 C   0  0  0  0  0  0  0  0  0  0  0  0
    8.0445   42.5771   55.1088 C   0  0  0  0  0  0  0  0  0  0  0  0
    9.4395   42.5781   55.0003 N   0  0  0  0  0  0  0  0  0  0  0  0
    9.6186   44.0370   57.7713 C   0  0  0  0  0  0  0  0  0  0  0  0
    9.3310   45.0596   58.7846 N   0  0  0  0  0  0  0  0  0  0  0  0
    5.4704   45.9120   59.9939 C   0  0  0  0  0  0  0  0  0  0  0  0
    6.0847   44.7172   60.3611 C   0  0  0  0  0  0  0  0  0  0  0  0
    7.3787   44.4275   59.9331 C   0  0  0  0  0  0  0  0  0  0  0  0
    8.0890   45.3490   59.1710 C   0  0  0  0  0  0  0  0  0  0  0  0
    7.4803   46.5465   58.8109 C   0  0  0  0  0  0  0  0  0  0  0  0
    6.1728   46.8219   59.2087 C   0  0  0  0  0  0  0  0  0  0  0  0
    0.9365   46.3259   59.6008 C   0  0  0  0  0  0  0  0  0  0  0  0
  1  3  1  0  0  0  0
  2  1  1  6  0  0  0
  2  6  1  0  0  0  0
  2 34  1  0  0  0  0
  3  4  2  0  0  0  0
  3 28  1  0  0  0  0
  5 13  1  0  0  0  0
  6  7  1  0  0  0  0
  7  8  1  0  0  0  0
  8  9  1  0  0  0  0
  8 10  1  0  0  0  0
 11 13  2  0  0  0  0
 11 24  1  0  0  0  0
 12 34  1  0  0  0  0
 13 15  1  0  0  0  0
 14 34  1  0  0  0  0
 15 16  1  0  0  0  0
 16 17  1  0  0  0  0
 16 18  2  0  0  0  0
 17 20  1  0  0  0  0
 17 24  2  0  0  0  0
 19 21  1  0  0  0  0
 19 20  1  0  0  0  0
 20 22  1  0  0  0  0
 22 23  1  0  0  0  0
 22 26  1  1  0  0  0
 23 25  1  0  0  0  0
 24 25  1  0  0  0  0
 26 27  1  0  0  0  0
 27 31  1  0  0  0  0
 28 29  2  0  0  0  0
 28 33  1  0  0  0  0
 29 30  1  0  0  0  0
 30 31  2  0  0  0  0
 31 32  1  0  0  0  0
 32 33  2  0  0  0  0
M  END
>  <CHROM.1>
-50.14988645,-166.03183671,166.17784466,-174.10451857,88.48119399,-65.29955577
-77.98598469,86.09499326,70.53331452,-52.31273187,5.15939879,44.86887544
58.44506687,2.39749824,0.20386384,0.99127296

>  <Name>
ligand

>  <RI>
0

>  <Rbt.Current_Directory>
/home/itssahil/PROJECTS/Mol_Feturizer/New_Systems/rnas/3SUH

>  <Rbt.Executable>
rbdock ($Id: //depot/dev/client3/rdock/2013.1/src/exe/rbdock.cxx#4 $)

>  <Rbt.Library>
libRbt.so (2013.1, Build901 2013/11/27)

>  <Rbt.Parameter_File>
/export/apps/rDock/src/rDock_2013.1_src/data/scripts/dock_solv.prm

>  <Rbt.Receptor>
prm/blind_docking_100.prm

>  <SCORE>
-14.2339

>  <SCORE.INTER>
-10.1367

>  <SCORE.INTER.CONST>
1

>  <SCORE.INTER.POLAR>
0

>  <SCORE.INTER.ROT>
10

>  <SCORE.INTER.SOLV>
13.968

>  <SCORE.INTER.VDW>
-21.6805

>  <SCORE.INTER.norm>
-0.298139

>  <SCORE.INTRA>
-4.09721

>  <SCORE.INTRA.DIHEDRAL>
-3.46798

>  <SCORE.INTRA.DIHEDRAL.0>
12.2703

>  <SCORE.INTRA.POLAR>
0

>  <SCORE.INTRA.POLAR.0>
0

>  <SCORE.INTRA.REPUL>
0

>  <SCORE.INTRA.REPUL.0>
0

>  <SCORE.INTRA.SOLV>
-0.284816

>  <SCORE.INTRA.SOLV.lig_0>
-64.3214

>  <SCORE.INTRA.VDW>
-2.22081

>  <SCORE.INTRA.VDW.0>
-1.67301

>  <SCORE.INTRA.norm>
-0.120506

>  <SCORE.RESTR>
0

>  <SCORE.RESTR.CAVITY>
0

>  <SCORE.RESTR.norm>
0

>  <SCORE.SYSTEM>
0

>  <SCORE.SYSTEM.CONST>
0

>  <SCORE.SYSTEM.DIHEDRAL>
0

>  <SCORE.SYSTEM.SOLV>
0

>  <SCORE.SYSTEM.norm>
0

>  <SCORE.heavy>
34

>  <SCORE.norm>
-0.418645

>  <RMSD>
15.626

$$$$
ligand
 OpenBabel11021811483D
libRbt.so/2013.1/901 2013/11/27
 34 36  0  0  0  0  0  0  0  0999 V2000
    2.2149   45.8277   60.3302 N   0  0  0  0  0  0  0  0  0  0  0  0
    0.8355   46.2606   60.6538 C   0  0  1  0  0  0  0  0  0  0  0  0
    3.3139   46.3710   60.8696 C   0  0  0  0  0  0  0  0  0  0  0  0
    3.3025   47.2910   61.6922 O   0  0  0  0  0  0  0  0  0  0  0  0
    4.6568   44.6596   55.0274 N   0  0  0  0  0  0  0  0  0  0  0  0
   -0.1213   45.8336   59.5280 C   0  0  0  0  0  0  0  0  0  0  0  0
    0.1303   46.6298   58.2403 C   0  0  0  0  0  0  0  0  0  0  0  0
    1.4963   46.2821   57.6293 C   0  0  0  0  0  0  0  0  0  0  0  0
    2.3949   47.1528   57.7041 O   0  0  0  0  0  0  0  0  0  0  0  0
    1.6128   45.1516   57.1028 O   0  0  0  0  0  0  0  0  0  0  0  0
    6.7858   44.1689   55.7924 N   0  0  0  0  0  0  0  0  0  0  0  0
    0.1350   46.4925   62.9349 O   0  0  0  0  0  0  0  0  0  0  0  0
    5.7804   45.0459   55.6264 C   0  0  0  0  0  0  0  0  0  0  0  0
    0.2068   44.4384   62.0607 O   0  0  0  0  0  0  0  0  0  0  0  0
    5.9012   46.3662   56.0779 N   0  0  0  0  0  0  0  0  0  0  0  0
    7.0763   46.7566   56.7058 C   0  0  0  0  0  0  0  0  0  0  0  0
    8.0826   45.8175   56.8901 C   0  0  0  0  0  0  0  0  0  0  0  0
    7.2020   47.9064   57.1196 O   0  0  0  0  0  0  0  0  0  0  0  0
    9.7754   47.4037   57.2377 C   0  0  0  0  0  0  0  0  0  0  0  0
    9.3021   46.1797   57.4514 N   0  0  0  0  0  0  0  0  0  0  0  0
   10.0494   47.7763   56.0991 O   0  0  0  0  0  0  0  0  0  0  0  0
   10.1353   45.1580   58.0949 C   0  0  2  0  0  0  0  0  0  0  0  0
   10.2662   43.9626   57.1477 C   0  0  0  0  0  0  0  0  0  0  0  0
    7.9281   44.5289   56.3969 C   0  0  0  0  0  0  0  0  0  0  0  0
    8.9610   43.5966   56.5444 N   0  0  0  0  0  0  0  0  0  0  0  0
    9.5116   44.7150   59.4228 C   0  0  0  0  0  0  0  0  0  0  0  0
    8.2153   44.0738   59.1704 N   0  0  0  0  0  0  0  0  0  0  0  0
    4.6361   45.7226   60.4211 C   0  0  0  0  0  0  0  0  0  0  0  0
    4.7839   45.2419   59.1223 C   0  0  0  0  0  0  0  0  0  0  0  0
    5.9993   44.7059   58.7014 C   0  0  0  0  0  0  0  0  0  0  0  0
    7.0661   44.6036   59.5879 C   0  0  0  0  0  0  0  0  0  0  0  0
    6.9174   45.0750   60.8879 C   0  0  0  0  0  0  0  0  0  0  0  0
    5.7131   45.6440   61.2996 C   0  0  0  0  0  0  0  0  0  0  0  0
    0.3495   45.6840   61.9995 C   0  0  0  0  0  0  0  0  0  0  0  0
  1  3  1  0  0  0  0
  2  1  1  6  0  0  0
  2  6  1  0  0  0  0
  2 34  1  0  0  0  0
  3  4  2  0  0  0  0
  3 28  1  0  0  0  0
  5 13  1  0  0  0  0
  6  7  1  0  0  0  0
  7  8  1  0  0  0  0
  8  9  1  0  0  0  0
  8 10  1  0  0  0  0
 11 13  2  0  0  0  0
 11 24  1  0  0  0  0
 12 34  1  0  0  0  0
 13 15  1  0  0  0  0
 14 34  1  0  0  0  0
 15 16  1  0  0  0  0
 16 17  1  0  0  0  0
 16 18  2  0  0  0  0
 17 20  1  0  0  0  0
 17 24  2  0  0  0  0
 19 21  1  0  0  0  0
 19 20  1  0  0  0  0
 20 22  1  0  0  0  0
 22 23  1  0  0  0  0
 22 26  1  1  0  0  0
 23 25  1  0  0  0  0
 24 25  1  0  0  0  0
 26 27  1  0  0  0  0
 27 31  1  0  0  0  0
 28 29  2  0  0  0  0
 28 33  1  0  0  0  0
 29 30  1  0  0  0  0
 30 31  2  0  0  0  0
 31 32  1  0  0  0  0
 32 33  2  0  0  0  0
M  END
>  <CHROM.1>
158.99545740,-69.33586715,114.18886432,67.44503978,-108.45675073,-62.57653257
63.71028683,-114.31522567,131.96639485,35.14993643,5.25833943,45.69979294
58.57222208,-2.73510875,0.08435540,-1.51351553

>  <Name>
ligand

>  <RI>
0

>  <Rbt.Current_Directory>
/home/itssahil/PROJECTS/Mol_Feturizer/New_Systems/rnas/3SUH

>  <Rbt.Executable>
rbdock ($Id: //depot/dev/client3/rdock/2013.1/src/exe/rbdock.cxx#4 $)

>  <Rbt.Library>
libRbt.so (2013.1, Build901 2013/11/27)

>  <Rbt.Parameter_File>
/export/apps/rDock/src/rDock_2013.1_src/data/scripts/dock_solv.prm

>  <Rbt.Receptor>
prm/blind_docking_100.prm

>  <SCORE>
-14.5459

>  <SCORE.INTER>
-9.8662

>  <SCORE.INTER.CONST>
1

>  <SCORE.INTER.POLAR>
0

>  <SCORE.INTER.ROT>
10

>  <SCORE.INTER.SOLV>
11.8961

>  <SCORE.INTER.VDW>
-20.8095

>  <SCORE.INTER.norm>
-0.290182

>  <SCORE.INTRA>
-4.67968

>  <SCORE.INTRA.DIHEDRAL>
-3.90643

>  <SCORE.INTRA.DIHEDRAL.0>
12.2703

>  <SCORE.INTRA.POLAR>
0

>  <SCORE.INTRA.POLAR.0>
0

>  <SCORE.INTRA.REPUL>
0

>  <SCORE.INTRA.REPUL.0>
0

>  <SCORE.INTRA.SOLV>
2.86984

>  <SCORE.INTRA.SOLV.lig_0>
-64.3214

>  <SCORE.INTRA.VDW>
-4.16139

>  <SCORE.INTRA.VDW.0>
-1.67301

>  <SCORE.INTRA.norm>
-0.137638

>  <SCORE.RESTR>
0

>  <SCORE.RESTR.CAVITY>
0

>  <SCORE.RESTR.norm>
0

>  <SCORE.SYSTEM>
0

>  <SCORE.SYSTEM.CONST>
0

>  <SCORE.SYSTEM.DIHEDRAL>
0

>  <SCORE.SYSTEM.SOLV>
0

>  <SCORE.SYSTEM.norm>
0

>  <SCORE.heavy>
34

>  <SCORE.norm>
-0.42782

>  <RMSD>
15.762

$$$$
ligand
 OpenBabel11021811483D
libRbt.so/2013.1/901 2013/11/27
 34 36  0  0  0  0  0  0  0  0999 V2000
    3.6904   45.8065   60.6605 N   0  0  0  0  0  0  0  0  0  0  0  0
    2.3856   45.9738   61.3419 C   0  0  1  0  0  0  0  0  0  0  0  0
    4.8485   45.6082   61.3034 C   0  0  0  0  0  0  0  0  0  0  0  0
    4.9600   45.5442   62.5309 O   0  0  0  0  0  0  0  0  0  0  0  0
    4.4532   40.0177   54.4784 N   0  0  0  0  0  0  0  0  0  0  0  0
    1.8362   47.3851   61.0742 C   0  0  0  0  0  0  0  0  0  0  0  0
    2.8264   48.4704   61.5180 C   0  0  0  0  0  0  0  0  0  0  0  0
    4.0010   48.5874   60.5347 C   0  0  0  0  0  0  0  0  0  0  0  0
    5.1507   48.3821   60.9897 O   0  0  0  0  0  0  0  0  0  0  0  0
    3.7229   48.8774   59.3484 O   0  0  0  0  0  0  0  0  0  0  0  0
    6.4937   41.1058   54.3747 N   0  0  0  0  0  0  0  0  0  0  0  0
    0.3529   44.7328   61.6175 O   0  0  0  0  0  0  0  0  0  0  0  0
    5.1877   41.1060   54.6938 C   0  0  0  0  0  0  0  0  0  0  0  0
    1.6040   44.3145   59.8151 O   0  0  0  0  0  0  0  0  0  0  0  0
    4.5883   42.2418   55.2527 N   0  0  0  0  0  0  0  0  0  0  0  0
    5.3657   43.3699   55.4775 C   0  0  0  0  0  0  0  0  0  0  0  0
    6.7183   43.3255   55.1663 C   0  0  0  0  0  0  0  0  0  0  0  0
    4.8649   44.3748   55.9761 O   0  0  0  0  0  0  0  0  0  0  0  0
    6.9885   45.6551   55.1160 C   0  0  0  0  0  0  0  0  0  0  0  0
    7.5205   44.4521   55.3101 N   0  0  0  0  0  0  0  0  0  0  0  0
    7.5363   46.6591   55.5657 O   0  0  0  0  0  0  0  0  0  0  0  0
    8.9698   44.2934   55.4735 C   0  0  2  0  0  0  0  0  0  0  0  0
    9.4866   43.3497   54.3846 C   0  0  0  0  0  0  0  0  0  0  0  0
    7.2597   42.1869   54.5851 C   0  0  0  0  0  0  0  0  0  0  0  0
    8.6133   42.1600   54.2315 N   0  0  0  0  0  0  0  0  0  0  0  0
    9.2948   43.7290   56.8607 C   0  0  0  0  0  0  0  0  0  0  0  0
    9.2799   44.8126   57.8511 N   0  0  0  0  0  0  0  0  0  0  0  0
    6.0669   45.4098   60.3836 C   0  0  0  0  0  0  0  0  0  0  0  0
    6.8579   44.2687   60.4930 C   0  0  0  0  0  0  0  0  0  0  0  0
    7.9270   44.0641   59.6230 C   0  0  0  0  0  0  0  0  0  0  0  0
    8.2441   45.0198   58.6635 C   0  0  0  0  0  0  0  0  0  0  0  0
    7.4606   46.1641   58.5587 C   0  0  0  0  0  0  0  0  0  0  0  0
    6.3692   46.3528   59.4054 C   0  0  0  0  0  0  0  0  0  0  0  0
    1.3568   44.9178   60.8877 C   0  0  0  0  0  0  0  0  0  0  0  0
  1  3  1  0  0  0  0
  2  1  1  6  0  0  0
  2  6  1  0  0  0  0
  2 34  1  0  0  0  0
  3  4  2  0  0  0  0
  3 28  1  0  0  0  0
  5 13  1  0  0  0  0
  6  7  1  0  0  0  0
  7  8  1  0  0  0  0
  8  9  1  0  0  0  0
  8 10  1  0  0  0  0
 11 13  2  0  0  0  0
 11 24  1  0  0  0  0
 12 34  1  0  0  0  0
 13 15  1  0  0  0  0
 14 34  1  0  0  0  0
 15 16  1  0  0  0  0
 16 17  1  0  0  0  0
 16 18  2  0  0  0  0
 17 20  1  0  0  0  0
 17 24  2  0  0  0  0
 19 21  1  0  0  0  0
 19 20  1  0  0  0  0
 20 22  1  0  0  0  0
 22 23  1  0  0  0  0
 22 26  1  1  0  0  0
 23 25  1  0  0  0  0
 24 25  1  0  0  0  0
 26 27  1  0  0  0  0
 27 31  1  0  0  0  0
 28 29  2  0  0  0  0
 28 33  1  0  0  0  0
 29 30  1  0  0  0  0
 30 31  2  0  0  0  0
 31 32  1  0  0  0  0
 32 33  2  0  0  0  0
M  END
>  <CHROM.1>
115.77893106,-56.73842602,162.09853917,74.94762518,-120.07999725,160.57775868
-81.34766162,100.86056869,65.82451707,-124.05437477,5.58835438,44.83292567
58.06257281,2.15653692,0.35382942,0.79610448

>  <Name>
ligand

>  <RI>
0

>  <Rbt.Current_Directory>
/home/itssahil/PROJECTS/Mol_Feturizer/New_Systems/rnas/3SUH

>  <Rbt.Executable>
rbdock ($Id: //depot/dev/client3/rdock/2013.1/src/exe/rbdock.cxx#4 $)

>  <Rbt.Library>
libRbt.so (2013.1, Build901 2013/11/27)

>  <Rbt.Parameter_File>
/export/apps/rDock/src/rDock_2013.1_src/data/scripts/dock_solv.prm

>  <Rbt.Receptor>
prm/blind_docking_80.prm

>  <SCORE>
-16.5565

>  <SCORE.INTER>
-13.1203

>  <SCORE.INTER.CONST>
1

>  <SCORE.INTER.POLAR>
0

>  <SCORE.INTER.ROT>
10

>  <SCORE.INTER.SOLV>
12.7924

>  <SCORE.INTER.VDW>
-23.2776

>  <SCORE.INTER.norm>
-0.38589

>  <SCORE.INTRA>
-3.52578

>  <SCORE.INTRA.DIHEDRAL>
-1.58791

>  <SCORE.INTRA.DIHEDRAL.0>
12.2703

>  <SCORE.INTRA.POLAR>
0

>  <SCORE.INTRA.POLAR.0>
0

>  <SCORE.INTRA.REPUL>
0

>  <SCORE.INTRA.REPUL.0>
0

>  <SCORE.INTRA.SOLV>
0.638866

>  <SCORE.INTRA.SOLV.lig_0>
-64.3214

>  <SCORE.INTRA.VDW>
-3.05126

>  <SCORE.INTRA.VDW.0>
-1.67301

>  <SCORE.INTRA.norm>
-0.103699

>  <SCORE.RESTR>
0.0895412

>  <SCORE.RESTR.CAVITY>
0.0895412

>  <SCORE.RESTR.norm>
0.00263357

>  <SCORE.SYSTEM>
0

>  <SCORE.SYSTEM.CONST>
0

>  <SCORE.SYSTEM.DIHEDRAL>
0

>  <SCORE.SYSTEM.SOLV>
0

>  <SCORE.SYSTEM.norm>
0

>  <SCORE.heavy>
34

>  <SCORE.norm>
-0.486956

>  <RMSD>
16.026

$$$$
ligand
 OpenBabel11021811483D
libRbt.so/2013.1/901 2013/11/27
 34 36  0  0  0  0  0  0  0  0999 V2000
    2.1096   45.1331   59.3675 N   0  0  0  0  0  0  0  0  0  0  0  0
    0.6324   45.1658   59.4753 C   0  0  1  0  0  0  0  0  0  0  0  0
    2.7931   44.1479   58.7705 C   0  0  0  0  0  0  0  0  0  0  0  0
    2.2725   43.1593   58.2464 O   0  0  0  0  0  0  0  0  0  0  0  0
    7.5410   41.7006   54.2469 N   0  0  0  0  0  0  0  0  0  0  0  0
    0.2206   45.9163   60.7529 C   0  0  0  0  0  0  0  0  0  0  0  0
    0.7249   45.2028   62.0146 C   0  0  0  0  0  0  0  0  0  0  0  0
   -0.1745   45.5065   63.2226 C   0  0  0  0  0  0  0  0  0  0  0  0
   -1.0440   44.6533   63.5174 O   0  0  0  0  0  0  0  0  0  0  0  0
    0.0292   46.5848   63.8265 O   0  0  0  0  0  0  0  0  0  0  0  0
    8.9695   42.9311   55.5900 N   0  0  0  0  0  0  0  0  0  0  0  0
    0.3028   47.0115   57.9812 O   0  0  0  0  0  0  0  0  0  0  0  0
    7.9495   42.8769   54.7159 C   0  0  0  0  0  0  0  0  0  0  0  0
   -0.8407   45.1316   57.5980 O   0  0  0  0  0  0  0  0  0  0  0  0
    7.3087   44.0476   54.2911 N   0  0  0  0  0  0  0  0  0  0  0  0
    7.7402   45.2689   54.7909 C   0  0  0  0  0  0  0  0  0  0  0  0
    8.7752   45.2871   55.7167 C   0  0  0  0  0  0  0  0  0  0  0  0
    7.1873   46.3086   54.4412 O   0  0  0  0  0  0  0  0  0  0  0  0
    9.2951   47.5511   55.3912 C   0  0  0  0  0  0  0  0  0  0  0  0
    9.2858   46.4898   56.1921 N   0  0  0  0  0  0  0  0  0  0  0  0
    8.5206   48.4854   55.5851 O   0  0  0  0  0  0  0  0  0  0  0  0
    9.9825   46.5214   57.4827 C   0  0  2  0  0  0  0  0  0  0  0  0
   11.0247   45.4004   57.5061 C   0  0  0  0  0  0  0  0  0  0  0  0
    9.3994   44.1024   56.0831 C   0  0  0  0  0  0  0  0  0  0  0  0
   10.4712   44.1273   56.9823 N   0  0  0  0  0  0  0  0  0  0  0  0
    8.9873   46.3428   58.6343 C   0  0  0  0  0  0  0  0  0  0  0  0
    8.3990   44.9991   58.5751 N   0  0  0  0  0  0  0  0  0  0  0  0
    4.3180   44.3557   58.7347 C   0  0  0  0  0  0  0  0  0  0  0  0
    5.0678   43.9095   57.6491 C   0  0  0  0  0  0  0  0  0  0  0  0
    6.4396   44.1476   57.5923 C   0  0  0  0  0  0  0  0  0  0  0  0
    7.0838   44.7946   58.6414 C   0  0  0  0  0  0  0  0  0  0  0  0
    6.3380   45.2330   59.7304 C   0  0  0  0  0  0  0  0  0  0  0  0
    4.9598   45.0268   59.7717 C   0  0  0  0  0  0  0  0  0  0  0  0
   -0.0222   45.8288   58.2458 C   0  0  0  0  0  0  0  0  0  0  0  0
  1  3  1  0  0  0  0
  2  1  1  6  0  0  0
  2  6  1  0  0  0  0
  2 34  1  0  0  0  0
  3  4  2  0  0  0  0
  3 28  1  0  0  0  0
  5 13  1  0  0  0  0
  6  7  1  0  0  0  0
  7  8  1  0  0  0  0
  8  9  1  0  0  0  0
  8 10  1  0  0  0  0
 11 13  2  0  0  0  0
 11 24  1  0  0  0  0
 12 34  1  0  0  0  0
 13 15  1  0  0  0  0
 14 34  1  0  0  0  0
 15 16  1  0  0  0  0
 16 17  1  0  0  0  0
 16 18  2  0  0  0  0
 17 20  1  0  0  0  0
 17 24  2  0  0  0  0
 19 21  1  0  0  0  0
 19 20  1  0  0  0  0
 20 22  1  0  0  0  0
 22 23  1  0  0  0  0
 22 26  1  1  0  0  0
 23 25  1  0  0  0  0
 24 25  1  0  0  0  0
 26 27  1  0  0  0  0
 27 31  1  0  0  0  0
 28 29  2  0  0  0  0
 28 33  1  0  0  0  0
 29 30  1  0  0  0  0
 30 31  2  0  0  0  0
 31 32  1  0  0  0  0
 32 33  2  0  0  0  0
M  END
>  <CHROM.1>
150.10065205,-62.60570957,-58.74443262,-153.13334631,98.08523165,108.03251106
65.66427342,-130.43746365,121.03362545,-145.60150404,5.25936467,45.14487901
58.00268494,2.64864599,0.15840700,1.23517110

>  <Name>
ligand

>  <RI>
0

>  <Rbt.Current_Directory>
/home/itssahil/PROJECTS/Mol_Feturizer/New_Systems/rnas/3SUH

>  <Rbt.Executable>
rbdock ($Id: //depot/dev/client3/rdock/2013.1/src/exe/rbdock.cxx#4 $)

>  <Rbt.Library>
libRbt.so (2013.1, Build901 2013/11/27)

>  <Rbt.Parameter_File>
/export/apps/rDock/src/rDock_2013.1_src/data/scripts/dock_solv.prm

>  <Rbt.Receptor>
prm/blind_docking_100.prm

>  <SCORE>
-12.144

>  <SCORE.INTER>
-9.72696

>  <SCORE.INTER.CONST>
1

>  <SCORE.INTER.POLAR>
0

>  <SCORE.INTER.ROT>
10

>  <SCORE.INTER.SOLV>
12.0769

>  <SCORE.INTER.VDW>
-20.7769

>  <SCORE.INTER.norm>
-0.286087

>  <SCORE.INTRA>
-2.46523

>  <SCORE.INTRA.DIHEDRAL>
-1.14411

>  <SCORE.INTRA.DIHEDRAL.0>
12.2703

>  <SCORE.INTRA.POLAR>
0

>  <SCORE.INTRA.POLAR.0>
0

>  <SCORE.INTRA.REPUL>
0

>  <SCORE.INTRA.REPUL.0>
0

>  <SCORE.INTRA.SOLV>
1.91503

>  <SCORE.INTRA.SOLV.lig_0>
-64.3214

>  <SCORE.INTRA.VDW>
-2.85069

>  <SCORE.INTRA.VDW.0>
-1.67301

>  <SCORE.INTRA.norm>
-0.0725068

>  <SCORE.RESTR>
0.0481553

>  <SCORE.RESTR.CAVITY>
0.0481553

>  <SCORE.RESTR.norm>
0.00141633

>  <SCORE.SYSTEM>
0

>  <SCORE.SYSTEM.CONST>
0

>  <SCORE.SYSTEM.DIHEDRAL>
0

>  <SCORE.SYSTEM.SOLV>
0

>  <SCORE.SYSTEM.norm>
0

>  <SCORE.heavy>
34

>  <SCORE.norm>
-0.357178

>  <RMSD>
16.051

$$$$
ligand
 OpenBabel11021811483D
libRbt.so/2013.1/901 2013/11/27
 34 36  0  0  0  0  0  0  0  0999 V2000
    3.0615   44.8434   58.1076 N   0  0  0  0  0  0  0  0  0  0  0  0
    1.7053   44.8111   58.7029 C   0  0  1  0  0  0  0  0  0  0  0  0
    3.2991   44.8276   56.7895 C   0  0  0  0  0  0  0  0  0  0  0  0
    2.4192   44.7829   55.9252 O   0  0  0  0  0  0  0  0  0  0  0  0
    5.5497   47.8760   59.0780 N   0  0  0  0  0  0  0  0  0  0  0  0
    1.7785   45.2112   60.1860 C   0  0  0  0  0  0  0  0  0  0  0  0
    0.4277   45.0223   60.8895 C   0  0  0  0  0  0  0  0  0  0  0  0
    0.4877   45.5031   62.3474 C   0  0  0  0  0  0  0  0  0  0  0  0
    0.5791   44.6242   63.2364 O   0  0  0  0  0  0  0  0  0  0  0  0
    0.4434   46.7398   62.5408 O   0  0  0  0  0  0  0  0  0  0  0  0
    7.5701   47.4029   58.0521 N   0  0  0  0  0  0  0  0  0  0  0  0
   -0.4443   45.3254   57.7739 O   0  0  0  0  0  0  0  0  0  0  0  0
    6.5617   47.0392   58.8634 C   0  0  0  0  0  0  0  0  0  0  0  0
    1.1748   46.8526   57.5864 O   0  0  0  0  0  0  0  0  0  0  0  0
    6.5627   45.7854   59.4878 N   0  0  0  0  0  0  0  0  0  0  0  0
    7.6214   44.9187   59.2525 C   0  0  0  0  0  0  0  0  0  0  0  0
    8.6309   45.3126   58.3841 C   0  0  0  0  0  0  0  0  0  0  0  0
    7.6397   43.8097   59.7807 O   0  0  0  0  0  0  0  0  0  0  0  0
   10.1904   43.7443   59.1655 C   0  0  0  0  0  0  0  0  0  0  0  0
    9.7439   44.5068   58.1719 N   0  0  0  0  0  0  0  0  0  0  0  0
   10.7387   44.2504   60.1419 O   0  0  0  0  0  0  0  0  0  0  0  0
   10.5217   44.6563   56.9371 C   0  0  2  0  0  0  0  0  0  0  0  0
   10.8335   46.1406   56.7294 C   0  0  0  0  0  0  0  0  0  0  0  0
    8.6010   46.5780   57.8136 C   0  0  0  0  0  0  0  0  0  0  0  0
    9.6416   46.9897   56.9738 N   0  0  0  0  0  0  0  0  0  0  0  0
    9.7384   44.1076   55.7396 C   0  0  0  0  0  0  0  0  0  0  0  0
    8.7629   45.1071   55.2873 N   0  0  0  0  0  0  0  0  0  0  0  0
    4.7867   44.9207   56.4048 C   0  0  0  0  0  0  0  0  0  0  0  0
    5.6695   43.8965   56.7388 C   0  0  0  0  0  0  0  0  0  0  0  0
    7.0038   43.9562   56.3414 C   0  0  0  0  0  0  0  0  0  0  0  0
    7.4800   45.0619   55.6449 C   0  0  0  0  0  0  0  0  0  0  0  0
    6.6018   46.0898   55.3183 C   0  0  0  0  0  0  0  0  0  0  0  0
    5.2587   46.0143   55.6845 C   0  0  0  0  0  0  0  0  0  0  0  0
    0.7252   45.7412   57.9585 C   0  0  0  0  0  0  0  0  0  0  0  0
  1  3  1  0  0  0  0
  2  1  1  6  0  0  0
  2  6  1  0  0  0  0
  2 34  1  0  0  0  0
  3  4  2  0  0  0  0
  3 28  1  0  0  0  0
  5 13  1  0  0  0  0
  6  7  1  0  0  0  0
  7  8  1  0  0  0  0
  8  9  1  0  0  0  0
  8 10  1  0  0  0  0
 11 13  2  0  0  0  0
 11 24  1  0  0  0  0
 12 34  1  0  0  0  0
 13 15  1  0  0  0  0
 14 34  1  0  0  0  0
 15 16  1  0  0  0  0
 16 17  1  0  0  0  0
 16 18  2  0  0  0  0
 17 20  1  0  0  0  0
 17 24  2  0  0  0  0
 19 21  1  0  0  0  0
 19 20  1  0  0  0  0
 20 22  1  0  0  0  0
 22 23  1  0  0  0  0
 22 26  1  6  0  0  0
 23 25  1  0  0  0  0
 24 25  1  0  0  0  0
 26 27  1  0  0  0  0
 27 31  1  0  0  0  0
 28 29  2  0  0  0  0
 28 33  1  0  0  0  0
 29 30  1  0  0  0  0
 30 31  2  0  0  0  0
 31 32  1  0  0  0  0
 32 33  2  0  0  0  0
M  END
>  <CHROM.1>
-165.13003829,-172.82681511,139.81866036,-176.59658079,-102.67490085,-70.60362281
80.76880701,-98.29210947,-7.56472033,65.34703314,5.55583638,45.36324299,58.25895594
2.84855253,-0.05108489,1.59860888

>  <Name>
ligand

>  <RI>
0

>  <Rbt.Current_Directory>
/home/itssahil/PROJECTS/Mol_Feturizer/New_Systems/rnas/3SUH

>  <Rbt.Executable>
rbdock ($Id: //depot/dev/client3/rdock/2013.1/src/exe/rbdock.cxx#4 $)

>  <Rbt.Library>
libRbt.so (2013.1, Build901 2013/11/27)

>  <Rbt.Parameter_File>
/export/apps/rDock/src/rDock_2013.1_src/data/scripts/dock_solv.prm

>  <Rbt.Receptor>
prm/blind_docking_80.prm

>  <SCORE>
-12.6304

>  <SCORE.INTER>
-9.32125

>  <SCORE.INTER.CONST>
1

>  <SCORE.INTER.POLAR>
0

>  <SCORE.INTER.ROT>
10

>  <SCORE.INTER.SOLV>
10.5552

>  <SCORE.INTER.VDW>
-19.9992

>  <SCORE.INTER.norm>
-0.274154

>  <SCORE.INTRA>
-3.30913

>  <SCORE.INTRA.DIHEDRAL>
-3.37695

>  <SCORE.INTRA.DIHEDRAL.0>
12.2703

>  <SCORE.INTRA.POLAR>
0

>  <SCORE.INTRA.POLAR.0>
0

>  <SCORE.INTRA.REPUL>
0

>  <SCORE.INTRA.REPUL.0>
0

>  <SCORE.INTRA.SOLV>
2.83944

>  <SCORE.INTRA.SOLV.lig_0>
-64.3214

>  <SCORE.INTRA.VDW>
-3.04038

>  <SCORE.INTRA.VDW.0>
-1.67301

>  <SCORE.INTRA.norm>
-0.0973274

>  <SCORE.RESTR>
0

>  <SCORE.RESTR.CAVITY>
0

>  <SCORE.RESTR.norm>
0

>  <SCORE.SYSTEM>
0

>  <SCORE.SYSTEM.CONST>
0

>  <SCORE.SYSTEM.DIHEDRAL>
0

>  <SCORE.SYSTEM.SOLV>
0

>  <SCORE.SYSTEM.norm>
0

>  <SCORE.heavy>
34

>  <SCORE.norm>
-0.371482

>  <RMSD>
16.171

$$$$
ligand
 OpenBabel11021811483D
libRbt.so/2013.1/901 2013/11/27
 34 36  0  0  0  0  0  0  0  0999 V2000
    1.1970   39.9287   58.3823 N   0  0  0  0  0  0  0  0  0  0  0  0
    0.4054   38.8007   58.9264 C   0  0  1  0  0  0  0  0  0  0  0  0
    2.1505   39.7914   57.4517 C   0  0  0  0  0  0  0  0  0  0  0  0
    2.4776   38.7145   56.9453 O   0  0  0  0  0  0  0  0  0  0  0  0
    3.1937   46.5413   60.7440 N   0  0  0  0  0  0  0  0  0  0  0  0
    0.2165   38.9812   60.4420 C   0  0  0  0  0  0  0  0  0  0  0  0
    1.4969   39.4961   61.1135 C   0  0  0  0  0  0  0  0  0  0  0  0
    1.4866   39.2109   62.6231 C   0  0  0  0  0  0  0  0  0  0  0  0
    0.6166   39.7958   63.3099 O   0  0  0  0  0  0  0  0  0  0  0  0
    2.3480   38.4117   63.0568 O   0  0  0  0  0  0  0  0  0  0  0  0
    4.1854   46.8978   58.6830 N   0  0  0  0  0  0  0  0  0  0  0  0
   -1.5539   39.7366   57.9101 O   0  0  0  0  0  0  0  0  0  0  0  0
    4.1485   46.2544   59.8628 C   0  0  0  0  0  0  0  0  0  0  0  0
   -1.4087   37.5130   58.0628 O   0  0  0  0  0  0  0  0  0  0  0  0
    5.1060   45.2818   60.1774 N   0  0  0  0  0  0  0  0  0  0  0  0
    6.0946   44.9872   59.2482 C   0  0  0  0  0  0  0  0  0  0  0  0
    6.0851   45.6470   58.0264 C   0  0  0  0  0  0  0  0  0  0  0  0
    6.9394   44.1308   59.4970 O   0  0  0  0  0  0  0  0  0  0  0  0
    8.3234   45.1619   57.5196 C   0  0  0  0  0  0  0  0  0  0  0  0
    7.0939   45.4347   57.0933 N   0  0  0  0  0  0  0  0  0  0  0  0
    8.9997   46.0286   58.0688 O   0  0  0  0  0  0  0  0  0  0  0  0
    6.8384   45.7091   55.6750 C   0  0  2  0  0  0  0  0  0  0  0  0
    6.2164   47.1021   55.5483 C   0  0  0  0  0  0  0  0  0  0  0  0
    5.1334   46.6257   57.7735 C   0  0  0  0  0  0  0  0  0  0  0  0
    5.1525   47.3207   56.5592 N   0  0  0  0  0  0  0  0  0  0  0  0
    5.8967   44.6536   55.0853 C   0  0  0  0  0  0  0  0  0  0  0  0
    4.6423   44.6294   55.8475 N   0  0  0  0  0  0  0  0  0  0  0  0
    2.8024   41.1115   57.0019 C   0  0  0  0  0  0  0  0  0  0  0  0
    2.8446   42.2082   57.8594 C   0  0  0  0  0  0  0  0  0  0  0  0
    3.4840   43.3840   57.4716 C   0  0  0  0  0  0  0  0  0  0  0  0
    4.0488   43.4911   56.2051 C   0  0  0  0  0  0  0  0  0  0  0  0
    3.9998   42.3999   55.3442 C   0  0  0  0  0  0  0  0  0  0  0  0
    3.3915   41.2111   55.7446 C   0  0  0  0  0  0  0  0  0  0  0  0
   -0.9702   38.6758   58.2395 C   0  0  0  0  0  0  0  0  0  0  0  0
  1  3  1  0  0  0  0
  2  1  1  6  0  0  0
  2  6  1  0  0  0  0
  2 34  1  0  0  0  0
  3  4  2  0  0  0  0
  3 28  1  0  0  0  0
  5 13  1  0  0  0  0
  6  7  1  0  0  0  0
  7  8  1  0  0  0  0
  8  9  1  0  0  0  0
  8 10  1  0  0  0  0
 11 13  2  0  0  0  0
 11 24  1  0  0  0  0
 12 34  1  0  0  0  0
 13 15  1  0  0  0  0
 14 34  1  0  0  0  0
 15 16  1  0  0  0  0
 16 17  1  0  0  0  0
 16 18  2  0  0  0  0
 17 20  1  0  0  0  0
 17 24  2  0  0  0  0
 19 21  1  0  0  0  0
 19 20  1  0  0  0  0
 20 22  1  0  0  0  0
 22 23  1  0  0  0  0
 22 26  1  1  0  0  0
 23 25  1  0  0  0  0
 24 25  1  0  0  0  0
 26 27  1  0  0  0  0
 27 31  1  0  0  0  0
 28 29  2  0  0  0  0
 28 33  1  0  0  0  0
 29 30  1  0  0  0  0
 30 31  2  0  0  0  0
 31 32  1  0  0  0  0
 32 33  2  0  0  0  0
M  END
>  <CHROM.1>
139.67534776,-40.53873346,-35.96932211,-159.92915218,-65.18904813,-70.15113115
57.48505631,-136.65185572,139.35217970,26.84104934,3.60060835,42.74468866
58.34248179,2.91067786,0.87552638,1.53872487

>  <Name>
ligand

>  <RI>
0

>  <Rbt.Current_Directory>
/home/itssahil/PROJECTS/Mol_Feturizer/New_Systems/rnas/3SUH

>  <Rbt.Executable>
rbdock ($Id: //depot/dev/client3/rdock/2013.1/src/exe/rbdock.cxx#4 $)

>  <Rbt.Library>
libRbt.so (2013.1, Build901 2013/11/27)

>  <Rbt.Parameter_File>
/export/apps/rDock/src/rDock_2013.1_src/data/scripts/dock_solv.prm

>  <Rbt.Receptor>
prm/blind_docking_100.prm

>  <SCORE>
-10.4476

>  <SCORE.INTER>
-9.06677

>  <SCORE.INTER.CONST>
1

>  <SCORE.INTER.POLAR>
0

>  <SCORE.INTER.ROT>
10

>  <SCORE.INTER.SOLV>
15.1419

>  <SCORE.INTER.VDW>
-21.3585

>  <SCORE.INTER.norm>
-0.26667

>  <SCORE.INTRA>
-1.60886

>  <SCORE.INTRA.DIHEDRAL>
-1.32631

>  <SCORE.INTRA.DIHEDRAL.0>
12.2703

>  <SCORE.INTRA.POLAR>
0

>  <SCORE.INTRA.POLAR.0>
0

>  <SCORE.INTRA.REPUL>
0

>  <SCORE.INTRA.REPUL.0>
0

>  <SCORE.INTRA.SOLV>
1.87274

>  <SCORE.INTRA.SOLV.lig_0>
-64.3214

>  <SCORE.INTRA.VDW>
-1.88208

>  <SCORE.INTRA.VDW.0>
-1.67301

>  <SCORE.INTRA.norm>
-0.0473194

>  <SCORE.RESTR>
0.228023

>  <SCORE.RESTR.CAVITY>
0.228023

>  <SCORE.RESTR.norm>
0.00670655

>  <SCORE.SYSTEM>
0

>  <SCORE.SYSTEM.CONST>
0

>  <SCORE.SYSTEM.DIHEDRAL>
0

>  <SCORE.SYSTEM.SOLV>
0

>  <SCORE.SYSTEM.norm>
0

>  <SCORE.heavy>
34

>  <SCORE.norm>
-0.307283

>  <RMSD>
16.218

$$$$
ligand
 OpenBabel11021811483D
libRbt.so/2013.1/901 2013/11/27
 34 36  0  0  0  0  0  0  0  0999 V2000
    2.5268   44.5582   58.8323 N   0  0  0  0  0  0  0  0  0  0  0  0
    1.1265   44.0781   58.8921 C   0  0  1  0  0  0  0  0  0  0  0  0
    2.9142   45.6486   58.1578 C   0  0  0  0  0  0  0  0  0  0  0  0
    2.1525   46.3729   57.5109 O   0  0  0  0  0  0  0  0  0  0  0  0
    7.5167   42.0862   54.0060 N   0  0  0  0  0  0  0  0  0  0  0  0
    1.0811   42.6871   59.5465 C   0  0  0  0  0  0  0  0  0  0  0  0
    2.0465   41.7094   58.8628 C   0  0  0  0  0  0  0  0  0  0  0  0
    1.8405   40.2753   59.3739 C   0  0  0  0  0  0  0  0  0  0  0  0
    1.5163   39.4079   58.5292 O   0  0  0  0  0  0  0  0  0  0  0  0
    2.0143   40.0774   60.5984 O   0  0  0  0  0  0  0  0  0  0  0  0
    9.0117   42.8469   55.6012 N   0  0  0  0  0  0  0  0  0  0  0  0
    0.4707   45.2446   60.8813 O   0  0  0  0  0  0  0  0  0  0  0  0
    8.1258   43.0966   54.6213 C   0  0  0  0  0  0  0  0  0  0  0  0
   -0.7252   45.5777   59.0245 O   0  0  0  0  0  0  0  0  0  0  0  0
    7.8346   44.4120   54.2384 N   0  0  0  0  0  0  0  0  0  0  0  0
    8.4726   45.4584   54.8908 C   0  0  0  0  0  0  0  0  0  0  0  0
    9.3579   45.1670   55.9202 C   0  0  0  0  0  0  0  0  0  0  0  0
    8.2261   46.6210   54.5798 O   0  0  0  0  0  0  0  0  0  0  0  0
   10.4284   47.2533   55.8599 C   0  0  0  0  0  0  0  0  0  0  0  0
   10.0709   46.1779   56.5552 N   0  0  0  0  0  0  0  0  0  0  0  0
   10.7683   48.2840   56.4365 O   0  0  0  0  0  0  0  0  0  0  0  0
   10.5873   45.9587   57.9107 C   0  0  2  0  0  0  0  0  0  0  0  0
   11.3277   44.6192   57.9439 C   0  0  0  0  0  0  0  0  0  0  0  0
    9.6373   43.8458   56.2422 C   0  0  0  0  0  0  0  0  0  0  0  0
   10.5631   43.5537   57.2499 N   0  0  0  0  0  0  0  0  0  0  0  0
    9.4408   45.9547   58.9277 C   0  0  0  0  0  0  0  0  0  0  0  0
    8.4262   46.9394   58.5324 N   0  0  0  0  0  0  0  0  0  0  0  0
    4.4119   45.9817   58.2828 C   0  0  0  0  0  0  0  0  0  0  0  0
    5.3509   45.3292   57.4876 C   0  0  0  0  0  0  0  0  0  0  0  0
    6.6997   45.6712   57.5623 C   0  0  0  0  0  0  0  0  0  0  0  0
    7.1299   46.6376   58.4653 C   0  0  0  0  0  0  0  0  0  0  0  0
    6.1947   47.2838   59.2665 C   0  0  0  0  0  0  0  0  0  0  0  0
    4.8406   46.9676   59.1672 C   0  0  0  0  0  0  0  0  0  0  0  0
    0.2147   45.0508   59.6682 C   0  0  0  0  0  0  0  0  0  0  0  0
  1  3  1  0  0  0  0
  2  1  1  1  0  0  0
  2  6  1  0  0  0  0
  2 34  1  0  0  0  0
  3  4  2  0  0  0  0
  3 28  1  0  0  0  0
  5 13  1  0  0  0  0
  6  7  1  0  0  0  0
  7  8  1  0  0  0  0
  8  9  1  0  0  0  0
  8 10  1  0  0  0  0
 11 13  2  0  0  0  0
 11 24  1  0  0  0  0
 12 34  1  0  0  0  0
 13 15  1  0  0  0  0
 14 34  1  0  0  0  0
 15 16  1  0  0  0  0
 16 17  1  0  0  0  0
 16 18  2  0  0  0  0
 17 20  1  0  0  0  0
 17 24  2  0  0  0  0
 19 21  1  0  0  0  0
 19 20  1  0  0  0  0
 20 22  1  0  0  0  0
 22 23  1  0  0  0  0
 22 26  1  1  0  0  0
 23 25  1  0  0  0  0
 24 25  1  0  0  0  0
 26 27  1  0  0  0  0
 27 31  1  0  0  0  0
 28 29  2  0  0  0  0
 28 33  1  0  0  0  0
 29 30  1  0  0  0  0
 30 31  2  0  0  0  0
 31 32  1  0  0  0  0
 32 33  2  0  0  0  0
M  END
>  <CHROM.1>
170.52076365,-52.67543661,-62.66284980,-171.21488810,119.87853358,162.72623199
-36.36958069,130.31261020,-62.54968904,81.88531631,5.86451231,44.70129404
57.65132473,2.95976173,-0.38117110,-2.92330295

>  <Name>
ligand

>  <RI>
0

>  <Rbt.Current_Directory>
/home/itssahil/PROJECTS/Mol_Feturizer/New_Systems/rnas/3SUH

>  <Rbt.Executable>
rbdock ($Id: //depot/dev/client3/rdock/2013.1/src/exe/rbdock.cxx#4 $)

>  <Rbt.Library>
libRbt.so (2013.1, Build901 2013/11/27)

>  <Rbt.Parameter_File>
/export/apps/rDock/src/rDock_2013.1_src/data/scripts/dock_solv.prm

>  <Rbt.Receptor>
prm/blind_docking_80.prm

>  <SCORE>
-10.4382

>  <SCORE.INTER>
-7.16948

>  <SCORE.INTER.CONST>
1

>  <SCORE.INTER.POLAR>
0

>  <SCORE.INTER.ROT>
10

>  <SCORE.INTER.SOLV>
12.9514

>  <SCORE.INTER.VDW>
-19.3635

>  <SCORE.INTER.norm>
-0.210867

>  <SCORE.INTRA>
-3.26907

>  <SCORE.INTRA.DIHEDRAL>
-2.57006

>  <SCORE.INTRA.DIHEDRAL.0>
12.2703

>  <SCORE.INTRA.POLAR>
0

>  <SCORE.INTRA.POLAR.0>
0

>  <SCORE.INTRA.REPUL>
0

>  <SCORE.INTRA.REPUL.0>
0

>  <SCORE.INTRA.SOLV>
0.85141

>  <SCORE.INTRA.SOLV.lig_0>
-64.3214

>  <SCORE.INTRA.VDW>
-2.40975

>  <SCORE.INTRA.VDW.0>
-1.67301

>  <SCORE.INTRA.norm>
-0.0961492

>  <SCORE.RESTR>
0.000382556

>  <SCORE.RESTR.CAVITY>
0.000382556

>  <SCORE.RESTR.norm>
1.12517e-05

>  <SCORE.SYSTEM>
0

>  <SCORE.SYSTEM.CONST>
0

>  <SCORE.SYSTEM.DIHEDRAL>
0

>  <SCORE.SYSTEM.SOLV>
0

>  <SCORE.SYSTEM.norm>
0

>  <SCORE.heavy>
34

>  <SCORE.norm>
-0.307005

>  <RMSD>
16.240

$$$$
ligand
 OpenBabel11021811483D
libRbt.so/2013.1/901 2013/11/27
 34 36  0  0  0  0  0  0  0  0999 V2000
    3.2986   45.8746   60.1223 N   0  0  0  0  0  0  0  0  0  0  0  0
    1.8884   46.1115   60.5096 C   0  0  1  0  0  0  0  0  0  0  0  0
    4.3140   45.8235   60.9944 C   0  0  0  0  0  0  0  0  0  0  0  0
    4.1909   45.9691   62.2137 O   0  0  0  0  0  0  0  0  0  0  0  0
    5.3260   40.2754   54.1668 N   0  0  0  0  0  0  0  0  0  0  0  0
    1.1789   46.9278   59.4163 C   0  0  0  0  0  0  0  0  0  0  0  0
    0.9981   46.1114   58.1294 C   0  0  0  0  0  0  0  0  0  0  0  0
    2.3541   45.7563   57.5007 C   0  0  0  0  0  0  0  0  0  0  0  0
    2.6459   44.5401   57.4190 O   0  0  0  0  0  0  0  0  0  0  0  0
    3.0685   46.7093   57.1132 O   0  0  0  0  0  0  0  0  0  0  0  0
    7.3034   41.4370   54.4818 N   0  0  0  0  0  0  0  0  0  0  0  0
    1.3582   43.8350   59.9765 O   0  0  0  0  0  0  0  0  0  0  0  0
    5.9684   41.3507   54.6157 C   0  0  0  0  0  0  0  0  0  0  0  0
    0.3231   44.7755   61.7180 O   0  0  0  0  0  0  0  0  0  0  0  0
    5.2425   42.3823   55.2243 N   0  0  0  0  0  0  0  0  0  0  0  0
    5.9241   43.4973   55.6933 C   0  0  0  0  0  0  0  0  0  0  0  0
    7.3064   43.5404   55.5681 C   0  0  0  0  0  0  0  0  0  0  0  0
    5.3106   44.4105   56.2399 O   0  0  0  0  0  0  0  0  0  0  0  0
    7.4602   45.8644   55.8471 C   0  0  0  0  0  0  0  0  0  0  0  0
    8.0233   44.6653   55.9607 N   0  0  0  0  0  0  0  0  0  0  0  0
    7.2609   46.3573   54.7392 O   0  0  0  0  0  0  0  0  0  0  0  0
    9.4445   44.5363   56.3008 C   0  0  2  0  0  0  0  0  0  0  0  0
   10.1488   43.7615   55.1841 C   0  0  0  0  0  0  0  0  0  0  0  0
    7.9780   42.5069   54.9292 C   0  0  0  0  0  0  0  0  0  0  0  0
    9.3660   42.5729   54.7646 N   0  0  0  0  0  0  0  0  0  0  0  0
    9.6122   43.8067   57.6380 C   0  0  0  0  0  0  0  0  0  0  0  0
    9.4105   44.7502   58.7446 N   0  0  0  0  0  0  0  0  0  0  0  0
    5.6845   45.5134   60.3656 C   0  0  0  0  0  0  0  0  0  0  0  0
    6.2353   46.3667   59.4125 C   0  0  0  0  0  0  0  0  0  0  0  0
    7.5002   46.1144   58.8853 C   0  0  0  0  0  0  0  0  0  0  0  0
    8.2088   44.9818   59.2720 C   0  0  0  0  0  0  0  0  0  0  0  0
    7.6564   44.1238   60.2170 C   0  0  0  0  0  0  0  0  0  0  0  0
    6.4062   44.3945   60.7714 C   0  0  0  0  0  0  0  0  0  0  0  0
    1.1268   44.7924   60.7540 C   0  0  0  0  0  0  0  0  0  0  0  0
  1  3  1  0  0  0  0
  2  1  1  6  0  0  0
  2  6  1  0  0  0  0
  2 34  1  0  0  0  0
  3  4  2  0  0  0  0
  3 28  1  0  0  0  0
  5 13  1  0  0  0  0
  6  7  1  0  0  0  0
  7  8  1  0  0  0  0
  8  9  1  0  0  0  0
  8 10  1  0  0  0  0
 11 13  2  0  0  0  0
 11 24  1  0  0  0  0
 12 34  1  0  0  0  0
 13 15  1  0  0  0  0
 14 34  1  0  0  0  0
 15 16  1  0  0  0  0
 16 17  1  0  0  0  0
 16 18  2  0  0  0  0
 17 20  1  0  0  0  0
 17 24  2  0  0  0  0
 19 21  1  0  0  0  0
 19 20  1  0  0  0  0
 20 22  1  0  0  0  0
 22 23  1  0  0  0  0
 22 26  1  1  0  0  0
 23 25  1  0  0  0  0
 24 25  1  0  0  0  0
 26 27  1  0  0  0  0
 27 31  1  0  0  0  0
 28 29  2  0  0  0  0
 28 33  1  0  0  0  0
 29 30  1  0  0  0  0
 30 31  2  0  0  0  0
 31 32  1  0  0  0  0
 32 33  2  0  0  0  0
M  END
>  <CHROM.1>
145.55336890,68.78708147,-39.61444813,-64.55806343,117.12621061,-69.72784535
-81.34320452,88.85664663,-99.50733905,60.90049786,5.49169201,44.56100557
57.77593282,-2.43870270,-0.04688962,-2.07234413

>  <Name>
ligand

>  <RI>
0

>  <Rbt.Current_Directory>
/home/itssahil/PROJECTS/Mol_Feturizer/New_Systems/rnas/3SUH

>  <Rbt.Executable>
rbdock ($Id: //depot/dev/client3/rdock/2013.1/src/exe/rbdock.cxx#4 $)

>  <Rbt.Library>
libRbt.so (2013.1, Build901 2013/11/27)

>  <Rbt.Parameter_File>
/export/apps/rDock/src/rDock_2013.1_src/data/scripts/dock_solv.prm

>  <Rbt.Receptor>
prm/blind_docking_80.prm

>  <SCORE>
-17.1965

>  <SCORE.INTER>
-12.0773

>  <SCORE.INTER.CONST>
1

>  <SCORE.INTER.POLAR>
0

>  <SCORE.INTER.ROT>
10

>  <SCORE.INTER.SOLV>
12.9725

>  <SCORE.INTER.VDW>
-22.6423

>  <SCORE.INTER.norm>
-0.355213

>  <SCORE.INTRA>
-5.11928

>  <SCORE.INTRA.DIHEDRAL>
-2.9008

>  <SCORE.INTRA.DIHEDRAL.0>
12.2703

>  <SCORE.INTRA.POLAR>
0

>  <SCORE.INTRA.POLAR.0>
0

>  <SCORE.INTRA.REPUL>
0

>  <SCORE.INTRA.REPUL.0>
0

>  <SCORE.INTRA.SOLV>
-0.206078

>  <SCORE.INTRA.SOLV.lig_0>
-64.3214

>  <SCORE.INTRA.VDW>
-3.56585

>  <SCORE.INTRA.VDW.0>
-1.67301

>  <SCORE.INTRA.norm>
-0.150567

>  <SCORE.RESTR>
0

>  <SCORE.RESTR.CAVITY>
0

>  <SCORE.RESTR.norm>
0

>  <SCORE.SYSTEM>
0

>  <SCORE.SYSTEM.CONST>
0

>  <SCORE.SYSTEM.DIHEDRAL>
0

>  <SCORE.SYSTEM.SOLV>
0

>  <SCORE.SYSTEM.norm>
0

>  <SCORE.heavy>
34

>  <SCORE.norm>
-0.505781

>  <RMSD>
16.293

$$$$
ligand
 OpenBabel11021811483D
libRbt.so/2013.1/901 2013/11/27
 34 36  0  0  0  0  0  0  0  0999 V2000
    3.1139   44.5587   58.7278 N   0  0  0  0  0  0  0  0  0  0  0  0
    1.9904   43.9655   59.4899 C   0  0  1  0  0  0  0  0  0  0  0  0
    3.0830   44.7870   57.4084 C   0  0  0  0  0  0  0  0  0  0  0  0
    2.1203   44.5286   56.6806 O   0  0  0  0  0  0  0  0  0  0  0  0
   12.4533   44.6858   60.7468 N   0  0  0  0  0  0  0  0  0  0  0  0
    0.7163   44.7986   59.2713 C   0  0  0  0  0  0  0  0  0  0  0  0
    0.7774   46.1330   60.0268 C   0  0  0  0  0  0  0  0  0  0  0  0
    0.8553   45.9098   61.5448 C   0  0  0  0  0  0  0  0  0  0  0  0
   -0.2062   46.0431   62.1979 O   0  0  0  0  0  0  0  0  0  0  0  0
    1.9747   45.6079   62.0186 O   0  0  0  0  0  0  0  0  0  0  0  0
   12.1601   45.9848   58.8533 N   0  0  0  0  0  0  0  0  0  0  0  0
    0.7765   41.9039   59.6457 O   0  0  0  0  0  0  0  0  0  0  0  0
   11.9077   44.8604   59.5458 C   0  0  0  0  0  0  0  0  0  0  0  0
    2.5021   42.0036   58.2311 O   0  0  0  0  0  0  0  0  0  0  0  0
   11.0742   43.8667   59.0172 N   0  0  0  0  0  0  0  0  0  0  0  0
   10.5065   44.0621   57.7653 C   0  0  0  0  0  0  0  0  0  0  0  0
   10.7619   45.2485   57.0905 C   0  0  0  0  0  0  0  0  0  0  0  0
    9.7639   43.2095   57.2849 O   0  0  0  0  0  0  0  0  0  0  0  0
   10.1373   44.4205   54.9865 C   0  0  0  0  0  0  0  0  0  0  0  0
   10.2713   45.4586   55.8065 N   0  0  0  0  0  0  0  0  0  0  0  0
   11.0129   43.5606   54.9209 O   0  0  0  0  0  0  0  0  0  0  0  0
   10.1006   46.8289   55.3114 C   0  0  2  0  0  0  0  0  0  0  0  0
   11.3907   47.6104   55.5733 C   0  0  0  0  0  0  0  0  0  0  0  0
   11.6200   46.1900   57.6424 C   0  0  0  0  0  0  0  0  0  0  0  0
   11.9111   47.3653   56.9410 N   0  0  0  0  0  0  0  0  0  0  0  0
    8.9188   47.5090   56.0110 C   0  0  0  0  0  0  0  0  0  0  0  0
    7.6912   47.2850   55.2376 N   0  0  0  0  0  0  0  0  0  0  0  0
    4.3478   45.4591   56.8440 C   0  0  0  0  0  0  0  0  0  0  0  0
    5.1885   44.7682   55.9747 C   0  0  0  0  0  0  0  0  0  0  0  0
    6.3025   45.3962   55.4211 C   0  0  0  0  0  0  0  0  0  0  0  0
    6.6128   46.7073   55.7659 C   0  0  0  0  0  0  0  0  0  0  0  0
    5.7793   47.3959   56.6408 C   0  0  0  0  0  0  0  0  0  0  0  0
    4.6448   46.7800   57.1675 C   0  0  0  0  0  0  0  0  0  0  0  0
    1.7309   42.4986   59.0889 C   0  0  0  0  0  0  0  0  0  0  0  0
  1  3  1  0  0  0  0
  2  1  1  6  0  0  0
  2  6  1  0  0  0  0
  2 34  1  0  0  0  0
  3  4  2  0  0  0  0
  3 28  1  0  0  0  0
  5 13  1  0  0  0  0
  6  7  1  0  0  0  0
  7  8  1  0  0  0  0
  8  9  1  0  0  0  0
  8 10  1  0  0  0  0
 11 13  2  0  0  0  0
 11 24  1  0  0  0  0
 12 34  1  0  0  0  0
 13 15  1  0  0  0  0
 14 34  1  0  0  0  0
 15 16  1  0  0  0  0
 16 17  1  0  0  0  0
 16 18  2  0  0  0  0
 17 20  1  0  0  0  0
 17 24  2  0  0  0  0
 19 21  1  0  0  0  0
 19 20  1  0  0  0  0
 20 22  1  0  0  0  0
 22 23  1  0  0  0  0
 22 26  1  1  0  0  0
 23 25  1  0  0  0  0
 24 25  1  0  0  0  0
 26 27  1  0  0  0  0
 27 31  1  0  0  0  0
 28 29  2  0  0  0  0
 28 33  1  0  0  0  0
 29 30  1  0  0  0  0
 30 31  2  0  0  0  0
 31 32  1  0  0  0  0
 32 33  2  0  0  0  0
M  END
>  <CHROM.1>
-55.72408919,-73.42685006,-178.13805210,-62.92519415,-100.42671579,-42.49768773
-90.95291033,122.93925357,-105.66573765,112.89937890,6.52188532,45.16549712
57.83449171,-2.85012700,-0.02299186,-1.29352512

>  <Name>
ligand

>  <RI>
0

>  <Rbt.Current_Directory>
/home/itssahil/PROJECTS/Mol_Feturizer/New_Systems/rnas/3SUH

>  <Rbt.Executable>
rbdock ($Id: //depot/dev/client3/rdock/2013.1/src/exe/rbdock.cxx#4 $)

>  <Rbt.Library>
libRbt.so (2013.1, Build901 2013/11/27)

>  <Rbt.Parameter_File>
/export/apps/rDock/src/rDock_2013.1_src/data/scripts/dock_solv.prm

>  <Rbt.Receptor>
prm/blind_docking_80.prm

>  <SCORE>
-8.25469

>  <SCORE.INTER>
-6.30259

>  <SCORE.INTER.CONST>
1

>  <SCORE.INTER.POLAR>
0

>  <SCORE.INTER.ROT>
10

>  <SCORE.INTER.SOLV>
15.5189

>  <SCORE.INTER.VDW>
-19.6414

>  <SCORE.INTER.norm>
-0.18537

>  <SCORE.INTRA>
-1.9521

>  <SCORE.INTRA.DIHEDRAL>
-0.917226

>  <SCORE.INTRA.DIHEDRAL.0>
12.2703

>  <SCORE.INTRA.POLAR>
0

>  <SCORE.INTRA.POLAR.0>
0

>  <SCORE.INTRA.REPUL>
0

>  <SCORE.INTRA.REPUL.0>
0

>  <SCORE.INTRA.SOLV>
-0.219561

>  <SCORE.INTRA.SOLV.lig_0>
-64.3214

>  <SCORE.INTRA.VDW>
-1.38371

>  <SCORE.INTRA.VDW.0>
-1.67301

>  <SCORE.INTRA.norm>
-0.0574147

>  <SCORE.RESTR>
0

>  <SCORE.RESTR.CAVITY>
0

>  <SCORE.RESTR.norm>
0

>  <SCORE.SYSTEM>
0

>  <SCORE.SYSTEM.CONST>
0

>  <SCORE.SYSTEM.DIHEDRAL>
0

>  <SCORE.SYSTEM.SOLV>
0

>  <SCORE.SYSTEM.norm>
0

>  <SCORE.heavy>
34

>  <SCORE.norm>
-0.242785

>  <RMSD>
16.319

$$$$
ligand
 OpenBabel11021811483D
libRbt.so/2013.1/901 2013/11/27
 34 36  0  0  0  0  0  0  0  0999 V2000
    2.1797   45.1917   58.2311 N   0  0  0  0  0  0  0  0  0  0  0  0
    0.9475   44.5694   58.7689 C   0  0  1  0  0  0  0  0  0  0  0  0
    3.2762   44.5026   57.8889 C   0  0  0  0  0  0  0  0  0  0  0  0
    3.3846   43.2769   57.9839 O   0  0  0  0  0  0  0  0  0  0  0  0
   11.7692   43.1043   59.7099 N   0  0  0  0  0  0  0  0  0  0  0  0
    1.0383   44.4757   60.3013 C   0  0  0  0  0  0  0  0  0  0  0  0
    1.1286   45.8646   60.9478 C   0  0  0  0  0  0  0  0  0  0  0  0
    0.9370   45.7832   62.4700 C   0  0  0  0  0  0  0  0  0  0  0  0
    1.8107   45.1672   63.1244 O   0  0  0  0  0  0  0  0  0  0  0  0
   -0.0781   46.3412   62.9462 O   0  0  0  0  0  0  0  0  0  0  0  0
   11.6950   44.9121   58.2661 N   0  0  0  0  0  0  0  0  0  0  0  0
   -1.3216   44.6925   58.0049 O   0  0  0  0  0  0  0  0  0  0  0  0
   11.2354   43.7090   58.6517 C   0  0  0  0  0  0  0  0  0  0  0  0
   -0.2502   46.6056   58.4302 O   0  0  0  0  0  0  0  0  0  0  0  0
   10.1975   43.0817   57.9511 N   0  0  0  0  0  0  0  0  0  0  0  0
    9.6449   43.7244   56.8515 C   0  0  0  0  0  0  0  0  0  0  0  0
   10.1209   44.9804   56.4992 C   0  0  0  0  0  0  0  0  0  0  0  0
    8.7267   43.1989   56.2270 O   0  0  0  0  0  0  0  0  0  0  0  0
    9.2735   44.9097   54.3131 C   0  0  0  0  0  0  0  0  0  0  0  0
    9.6458   45.6312   55.3660 N   0  0  0  0  0  0  0  0  0  0  0  0
   10.1100   44.4955   53.5137 O   0  0  0  0  0  0  0  0  0  0  0  0
    9.7490   47.0916   55.2724 C   0  0  2  0  0  0  0  0  0  0  0  0
   11.1809   47.5063   55.6206 C   0  0  0  0  0  0  0  0  0  0  0  0
   11.1727   45.5474   57.2061 C   0  0  0  0  0  0  0  0  0  0  0  0
   11.6805   46.7934   56.8221 N   0  0  0  0  0  0  0  0  0  0  0  0
    8.7567   47.7621   56.2286 C   0  0  0  0  0  0  0  0  0  0  0  0
    7.4036   47.6959   55.6629 N   0  0  0  0  0  0  0  0  0  0  0  0
    4.4147   45.3580   57.3043 C   0  0  0  0  0  0  0  0  0  0  0  0
    5.0827   44.9543   56.1508 C   0  0  0  0  0  0  0  0  0  0  0  0
    6.0751   45.7568   55.5915 C   0  0  0  0  0  0  0  0  0  0  0  0
    6.4415   46.9501   56.2049 C   0  0  0  0  0  0  0  0  0  0  0  0
    5.7816   47.3505   57.3619 C   0  0  0  0  0  0  0  0  0  0  0  0
    4.7641   46.5655   57.9023 C   0  0  0  0  0  0  0  0  0  0  0  0
   -0.3187   45.3538   58.3674 C   0  0  0  0  0  0  0  0  0  0  0  0
  1  3  1  0  0  0  0
  2  1  1  1  0  0  0
  2  6  1  0  0  0  0
  2 34  1  0  0  0  0
  3  4  2  0  0  0  0
  3 28  1  0  0  0  0
  5 13  1  0  0  0  0
  6  7  1  0  0  0  0
  7  8  1  0  0  0  0
  8  9  1  0  0  0  0
  8 10  1  0  0  0  0
 11 13  2  0  0  0  0
 11 24  1  0  0  0  0
 12 34  1  0  0  0  0
 13 15  1  0  0  0  0
 14 34  1  0  0  0  0
 15 16  1  0  0  0  0
 16 17  1  0  0  0  0
 16 18  2  0  0  0  0
 17 20  1  0  0  0  0
 17 24  2  0  0  0  0
 19 21  1  0  0  0  0
 19 20  1  0  0  0  0
 20 22  1  0  0  0  0
 22 23  1  0  0  0  0
 22 26  1  1  0  0  0
 23 25  1  0  0  0  0
 24 25  1  0  0  0  0
 26 27  1  0  0  0  0
 27 31  1  0  0  0  0
 28 29  2  0  0  0  0
 28 33  1  0  0  0  0
 29 30  1  0  0  0  0
 30 31  2  0  0  0  0
 31 32  1  0  0  0  0
 32 33  2  0  0  0  0
M  END
>  <CHROM.1>
88.99770322,62.75061000,137.69870921,168.66375660,65.10997122,-81.79953415
-76.68788084,111.87728160,-104.88932026,-133.76802734,6.02633469,45.35841989
57.74764502,2.80035328,-0.11835017,1.86316691

>  <Name>
ligand

>  <RI>
0

>  <Rbt.Current_Directory>
/home/itssahil/PROJECTS/Mol_Feturizer/New_Systems/rnas/3SUH

>  <Rbt.Executable>
rbdock ($Id: //depot/dev/client3/rdock/2013.1/src/exe/rbdock.cxx#4 $)

>  <Rbt.Library>
libRbt.so (2013.1, Build901 2013/11/27)

>  <Rbt.Parameter_File>
/export/apps/rDock/src/rDock_2013.1_src/data/scripts/dock_solv.prm

>  <Rbt.Receptor>
prm/blind_docking_80.prm

>  <SCORE>
-11.7142

>  <SCORE.INTER>
-7.88282

>  <SCORE.INTER.CONST>
1

>  <SCORE.INTER.POLAR>
0

>  <SCORE.INTER.ROT>
10

>  <SCORE.INTER.SOLV>
14.4546

>  <SCORE.INTER.VDW>
-20.3401

>  <SCORE.INTER.norm>
-0.231848

>  <SCORE.INTRA>
-3.84516

>  <SCORE.INTRA.DIHEDRAL>
-2.85998

>  <SCORE.INTRA.DIHEDRAL.0>
12.2703

>  <SCORE.INTRA.POLAR>
0

>  <SCORE.INTRA.POLAR.0>
0

>  <SCORE.INTRA.REPUL>
0

>  <SCORE.INTRA.REPUL.0>
0

>  <SCORE.INTRA.SOLV>
-0.714917

>  <SCORE.INTRA.SOLV.lig_0>
-64.3214

>  <SCORE.INTRA.VDW>
-2.05771

>  <SCORE.INTRA.VDW.0>
-1.67301

>  <SCORE.INTRA.norm>
-0.113093

>  <SCORE.RESTR>
0.0138177

>  <SCORE.RESTR.CAVITY>
0.0138177

>  <SCORE.RESTR.norm>
0.000406402

>  <SCORE.SYSTEM>
0

>  <SCORE.SYSTEM.CONST>
0

>  <SCORE.SYSTEM.DIHEDRAL>
0

>  <SCORE.SYSTEM.SOLV>
0

>  <SCORE.SYSTEM.norm>
0

>  <SCORE.heavy>
34

>  <SCORE.norm>
-0.344534

>  <RMSD>
16.394

$$$$
ligand
 OpenBabel11021811483D
libRbt.so/2013.1/901 2013/11/27
 34 36  0  0  0  0  0  0  0  0999 V2000
    3.4459   46.6861   59.6218 N   0  0  0  0  0  0  0  0  0  0  0  0
    2.0977   47.0610   60.1082 C   0  0  1  0  0  0  0  0  0  0  0  0
    4.5326   46.6300   60.4029 C   0  0  0  0  0  0  0  0  0  0  0  0
    4.5345   46.8847   61.6105 O   0  0  0  0  0  0  0  0  0  0  0  0
    4.6890   39.9388   54.4757 N   0  0  0  0  0  0  0  0  0  0  0  0
    1.0551   46.7916   59.0101 C   0  0  0  0  0  0  0  0  0  0  0  0
    1.3826   45.5169   58.2206 C   0  0  0  0  0  0  0  0  0  0  0  0
    1.1694   44.2608   59.0790 C   0  0  0  0  0  0  0  0  0  0  0  0
   -0.0033   44.0087   59.4428 O   0  0  0  0  0  0  0  0  0  0  0  0
    2.1840   43.5784   59.3504 O   0  0  0  0  0  0  0  0  0  0  0  0
    6.6997   41.0829   54.3962 N   0  0  0  0  0  0  0  0  0  0  0  0
    2.2183   45.1615   61.5661 O   0  0  0  0  0  0  0  0  0  0  0  0
    5.3867   41.0526   54.6833 C   0  0  0  0  0  0  0  0  0  0  0  0
    0.9152   46.8713   62.1724 O   0  0  0  0  0  0  0  0  0  0  0  0
    4.7414   42.1830   55.2004 N   0  0  0  0  0  0  0  0  0  0  0  0
    5.4806   43.3380   55.4175 C   0  0  0  0  0  0  0  0  0  0  0  0
    6.8413   43.3257   55.1405 C   0  0  0  0  0  0  0  0  0  0  0  0
    4.9391   44.3391   55.8799 O   0  0  0  0  0  0  0  0  0  0  0  0
    7.0464   45.6604   55.0418 C   0  0  0  0  0  0  0  0  0  0  0  0
    7.6074   44.4781   55.2772 N   0  0  0  0  0  0  0  0  0  0  0  0
    7.6377   46.6991   55.3280 O   0  0  0  0  0  0  0  0  0  0  0  0
    9.0559   44.3652   55.4796 C   0  0  2  0  0  0  0  0  0  0  0  0
    9.6266   43.4122   54.4263 C   0  0  0  0  0  0  0  0  0  0  0  0
    7.4293   42.1903   54.5997 C   0  0  0  0  0  0  0  0  0  0  0  0
    8.7915   42.1945   54.2799 N   0  0  0  0  0  0  0  0  0  0  0  0
    9.3620   43.8423   56.8873 C   0  0  0  0  0  0  0  0  0  0  0  0
    9.3120   44.9512   57.8481 N   0  0  0  0  0  0  0  0  0  0  0  0
    5.8137   46.1654   59.6869 C   0  0  0  0  0  0  0  0  0  0  0  0
    6.6172   47.0796   59.0097 C   0  0  0  0  0  0  0  0  0  0  0  0
    7.8052   46.6672   58.4095 C   0  0  0  0  0  0  0  0  0  0  0  0
    8.1799   45.3282   58.4414 C   0  0  0  0  0  0  0  0  0  0  0  0
    7.3742   44.4124   59.1096 C   0  0  0  0  0  0  0  0  0  0  0  0
    6.2035   44.8302   59.7409 C   0  0  0  0  0  0  0  0  0  0  0  0
    1.7135   46.2971   61.3922 C   0  0  0  0  0  0  0  0  0  0  0  0
  1  3  1  0  0  0  0
  2  1  1  6  0  0  0
  2  6  1  0  0  0  0
  2 34  1  0  0  0  0
  3  4  2  0  0  0  0
  3 28  1  0  0  0  0
  5 13  1  0  0  0  0
  6  7  1  0  0  0  0
  7  8  1  0  0  0  0
  8  9  1  0  0  0  0
  8 10  1  0  0  0  0
 11 13  2  0  0  0  0
 11 24  1  0  0  0  0
 12 34  1  0  0  0  0
 13 15  1  0  0  0  0
 14 34  1  0  0  0  0
 15 16  1  0  0  0  0
 16 17  1  0  0  0  0
 16 18  2  0  0  0  0
 17 20  1  0  0  0  0
 17 24  2  0  0  0  0
 19 21  1  0  0  0  0
 19 20  1  0  0  0  0
 20 22  1  0  0  0  0
 22 23  1  0  0  0  0
 22 26  1  1  0  0  0
 23 25  1  0  0  0  0
 24 25  1  0  0  0  0
 26 27  1  0  0  0  0
 27 31  1  0  0  0  0
 28 29  2  0  0  0  0
 28 33  1  0  0  0  0
 29 30  1  0  0  0  0
 30 31  2  0  0  0  0
 31 32  1  0  0  0  0
 32 33  2  0  0  0  0
M  END
>  <CHROM.1>
-170.45405170,37.11908857,-28.35367036,70.10252679,65.25095507,170.03469659
-82.22340477,87.33726973,-128.56787161,85.98959956,5.26233872,44.63748882
57.69488330,-2.37462834,-0.28344374,-2.33085349

>  <Name>
ligand

>  <RI>
0

>  <Rbt.Current_Directory>
/home/itssahil/PROJECTS/Mol_Feturizer/New_Systems/rnas/3SUH

>  <Rbt.Executable>
rbdock ($Id: //depot/dev/client3/rdock/2013.1/src/exe/rbdock.cxx#4 $)

>  <Rbt.Library>
libRbt.so (2013.1, Build901 2013/11/27)

>  <Rbt.Parameter_File>
/export/apps/rDock/src/rDock_2013.1_src/data/scripts/dock_solv.prm

>  <Rbt.Receptor>
prm/blind_docking_100.prm

>  <SCORE>
-13.5404

>  <SCORE.INTER>
-10.042

>  <SCORE.INTER.CONST>
1

>  <SCORE.INTER.POLAR>
0

>  <SCORE.INTER.ROT>
10

>  <SCORE.INTER.SOLV>
9.15491

>  <SCORE.INTER.VDW>
-20.0129

>  <SCORE.INTER.norm>
-0.295352

>  <SCORE.INTRA>
-3.52089

>  <SCORE.INTRA.DIHEDRAL>
-1.51297

>  <SCORE.INTRA.DIHEDRAL.0>
12.2703

>  <SCORE.INTRA.POLAR>
0

>  <SCORE.INTRA.POLAR.0>
0

>  <SCORE.INTRA.REPUL>
0

>  <SCORE.INTRA.REPUL.0>
0

>  <SCORE.INTRA.SOLV>
0.290694

>  <SCORE.INTRA.SOLV.lig_0>
-64.3214

>  <SCORE.INTRA.VDW>
-2.90975

>  <SCORE.INTRA.VDW.0>
-1.67301

>  <SCORE.INTRA.norm>
-0.103556

>  <SCORE.RESTR>
0.0224303

>  <SCORE.RESTR.CAVITY>
0.0224303

>  <SCORE.RESTR.norm>
0.000659715

>  <SCORE.SYSTEM>
0

>  <SCORE.SYSTEM.CONST>
0

>  <SCORE.SYSTEM.DIHEDRAL>
0

>  <SCORE.SYSTEM.SOLV>
0

>  <SCORE.SYSTEM.norm>
0

>  <SCORE.heavy>
34

>  <SCORE.norm>
-0.398248

>  <RMSD>
16.402

$$$$
ligand
 OpenBabel11021811483D
libRbt.so/2013.1/901 2013/11/27
 34 36  0  0  0  0  0  0  0  0999 V2000
    2.0005   45.2720   59.2787 N   0  0  0  0  0  0  0  0  0  0  0  0
    0.5561   45.3937   59.5845 C   0  0  1  0  0  0  0  0  0  0  0  0
    2.5869   44.1343   58.8837 C   0  0  0  0  0  0  0  0  0  0  0  0
    1.9935   43.0628   58.7320 O   0  0  0  0  0  0  0  0  0  0  0  0
    6.3993   40.5552   54.3737 N   0  0  0  0  0  0  0  0  0  0  0  0
    0.3267   46.5648   60.5546 C   0  0  0  0  0  0  0  0  0  0  0  0
    0.0377   46.0707   61.9785 C   0  0  0  0  0  0  0  0  0  0  0  0
    1.2862   45.4378   62.6118 C   0  0  0  0  0  0  0  0  0  0  0  0
    2.3699   45.5708   61.9963 O   0  0  0  0  0  0  0  0  0  0  0  0
    1.1297   44.8368   63.6995 O   0  0  0  0  0  0  0  0  0  0  0  0
    8.0611   41.9370   55.2026 N   0  0  0  0  0  0  0  0  0  0  0  0
   -1.0793   44.6786   57.9839 O   0  0  0  0  0  0  0  0  0  0  0  0
    6.9384   41.7667   54.4829 C   0  0  0  0  0  0  0  0  0  0  0  0
   -0.1203   46.6739   57.6875 O   0  0  0  0  0  0  0  0  0  0  0  0
    6.3265   42.8528   53.8444 N   0  0  0  0  0  0  0  0  0  0  0  0
    6.8953   44.1131   53.9695 C   0  0  0  0  0  0  0  0  0  0  0  0
    8.0369   44.2599   54.7465 C   0  0  0  0  0  0  0  0  0  0  0  0
    6.3714   45.0829   53.4272 O   0  0  0  0  0  0  0  0  0  0  0  0
    8.6573   46.3163   53.8039 C   0  0  0  0  0  0  0  0  0  0  0  0
    8.6797   45.4890   54.8444 N   0  0  0  0  0  0  0  0  0  0  0  0
    9.4274   47.2726   53.7509 O   0  0  0  0  0  0  0  0  0  0  0  0
    9.5329   45.7698   56.0043 C   0  0  2  0  0  0  0  0  0  0  0  0
   10.4952   44.5958   56.2022 C   0  0  0  0  0  0  0  0  0  0  0  0
    8.6242   43.1477   55.3341 C   0  0  0  0  0  0  0  0  0  0  0  0
    9.7993   43.2910   56.0800 N   0  0  0  0  0  0  0  0  0  0  0  0
    8.6802   45.9726   57.2614 C   0  0  0  0  0  0  0  0  0  0  0  0
    8.1033   44.6891   57.6796 N   0  0  0  0  0  0  0  0  0  0  0  0
    4.0893   44.2614   58.5732 C   0  0  0  0  0  0  0  0  0  0  0  0
    4.6065   43.7843   57.3713 C   0  0  0  0  0  0  0  0  0  0  0  0
    5.9564   43.9499   57.0677 C   0  0  0  0  0  0  0  0  0  0  0  0
    6.8125   44.5540   57.9822 C   0  0  0  0  0  0  0  0  0  0  0  0
    6.2995   45.0231   59.1868 C   0  0  0  0  0  0  0  0  0  0  0  0
    4.9422   44.8898   59.4762 C   0  0  0  0  0  0  0  0  0  0  0  0
   -0.2893   45.5973   58.3103 C   0  0  0  0  0  0  0  0  0  0  0  0
  1  3  1  0  0  0  0
  2  1  1  6  0  0  0
  2  6  1  0  0  0  0
  2 34  1  0  0  0  0
  3  4  2  0  0  0  0
  3 28  1  0  0  0  0
  5 13  1  0  0  0  0
  6  7  1  0  0  0  0
  7  8  1  0  0  0  0
  8  9  1  0  0  0  0
  8 10  1  0  0  0  0
 11 13  2  0  0  0  0
 11 24  1  0  0  0  0
 12 34  1  0  0  0  0
 13 15  1  0  0  0  0
 14 34  1  0  0  0  0
 15 16  1  0  0  0  0
 16 17  1  0  0  0  0
 16 18  2  0  0  0  0
 17 20  1  0  0  0  0
 17 24  2  0  0  0  0
 19 21  1  0  0  0  0
 19 20  1  0  0  0  0
 20 22  1  0  0  0  0
 22 23  1  0  0  0  0
 22 26  1  1  0  0  0
 23 25  1  0  0  0  0
 24 25  1  0  0  0  0
 26 27  1  0  0  0  0
 27 31  1  0  0  0  0
 28 29  2  0  0  0  0
 28 33  1  0  0  0  0
 29 30  1  0  0  0  0
 30 31  2  0  0  0  0
 31 32  1  0  0  0  0
 32 33  2  0  0  0  0
M  END
>  <CHROM.1>
155.25819562,-104.84801433,113.40961324,69.17397318,9.53117127,-165.10539290
70.90066054,-131.93413836,103.52279776,-129.33757544,5.06530350,44.65277530
57.42538565,2.51950753,0.11787524,1.22809480

>  <Name>
ligand

>  <RI>
0

>  <Rbt.Current_Directory>
/home/itssahil/PROJECTS/Mol_Feturizer/New_Systems/rnas/3SUH

>  <Rbt.Executable>
rbdock ($Id: //depot/dev/client3/rdock/2013.1/src/exe/rbdock.cxx#4 $)

>  <Rbt.Library>
libRbt.so (2013.1, Build901 2013/11/27)

>  <Rbt.Parameter_File>
/export/apps/rDock/src/rDock_2013.1_src/data/scripts/dock_solv.prm

>  <Rbt.Receptor>
prm/blind_docking_100.prm

>  <SCORE>
-13.0149

>  <SCORE.INTER>
-13.1356

>  <SCORE.INTER.CONST>
1

>  <SCORE.INTER.POLAR>
0

>  <SCORE.INTER.ROT>
10

>  <SCORE.INTER.SOLV>
13.8758

>  <SCORE.INTER.VDW>
-23.649

>  <SCORE.INTER.norm>
-0.386342

>  <SCORE.INTRA>
0.120707

>  <SCORE.INTRA.DIHEDRAL>
1.57198

>  <SCORE.INTRA.DIHEDRAL.0>
12.2703

>  <SCORE.INTRA.POLAR>
0

>  <SCORE.INTRA.POLAR.0>
0

>  <SCORE.INTRA.REPUL>
0

>  <SCORE.INTRA.REPUL.0>
0

>  <SCORE.INTRA.SOLV>
1.9069

>  <SCORE.INTRA.SOLV.lig_0>
-64.3214

>  <SCORE.INTRA.VDW>
-1.61873

>  <SCORE.INTRA.VDW.0>
-1.67301

>  <SCORE.INTRA.norm>
0.0035502

>  <SCORE.RESTR>
0

>  <SCORE.RESTR.CAVITY>
0

>  <SCORE.RESTR.norm>
0

>  <SCORE.SYSTEM>
0

>  <SCORE.SYSTEM.CONST>
0

>  <SCORE.SYSTEM.DIHEDRAL>
0

>  <SCORE.SYSTEM.SOLV>
0

>  <SCORE.SYSTEM.norm>
0

>  <SCORE.heavy>
34

>  <SCORE.norm>
-0.382791

>  <RMSD>
16.505

$$$$
ligand
 OpenBabel11021811483D
libRbt.so/2013.1/901 2013/11/27
 34 36  0  0  0  0  0  0  0  0999 V2000
    2.5086   45.9590   59.3654 N   0  0  0  0  0  0  0  0  0  0  0  0
    1.3211   45.9389   60.2509 C   0  0  1  0  0  0  0  0  0  0  0  0
    2.9892   47.0668   58.7859 C   0  0  0  0  0  0  0  0  0  0  0  0
    2.4986   48.1911   58.9218 O   0  0  0  0  0  0  0  0  0  0  0  0
   11.2347   44.6031   59.3875 N   0  0  0  0  0  0  0  0  0  0  0  0
    0.9538   44.4857   60.5955 C   0  0  0  0  0  0  0  0  0  0  0  0
    0.5012   43.7075   59.3525 C   0  0  0  0  0  0  0  0  0  0  0  0
    0.9201   42.2319   59.4370 C   0  0  0  0  0  0  0  0  0  0  0  0
    2.1490   41.9857   59.4485 O   0  0  0  0  0  0  0  0  0  0  0  0
    0.0016   41.3820   59.4910 O   0  0  0  0  0  0  0  0  0  0  0  0
   10.8169   45.6770   57.3799 N   0  0  0  0  0  0  0  0  0  0  0  0
    0.5933   46.8416   62.3493 O   0  0  0  0  0  0  0  0  0  0  0  0
   10.7820   44.5665   58.1369 C   0  0  0  0  0  0  0  0  0  0  0  0
    2.6948   47.2397   61.7056 O   0  0  0  0  0  0  0  0  0  0  0  0
   10.2727   43.3669   57.6238 N   0  0  0  0  0  0  0  0  0  0  0  0
    9.7985   43.3419   56.3191 C   0  0  0  0  0  0  0  0  0  0  0  0
    9.8194   44.5142   55.5750 C   0  0  0  0  0  0  0  0  0  0  0  0
    9.3378   42.3043   55.8501 O   0  0  0  0  0  0  0  0  0  0  0  0
    9.6237   43.4378   53.5001 C   0  0  0  0  0  0  0  0  0  0  0  0
    9.4191   44.5210   54.2435 N   0  0  0  0  0  0  0  0  0  0  0  0
    8.7397   43.0141   52.7589 O   0  0  0  0  0  0  0  0  0  0  0  0
    8.9665   45.7741   53.6295 C   0  0  2  0  0  0  0  0  0  0  0  0
    9.9939   46.8682   53.9307 C   0  0  0  0  0  0  0  0  0  0  0  0
   10.3629   45.6709   56.1174 C   0  0  0  0  0  0  0  0  0  0  0  0
   10.4235   46.8398   55.3506 N   0  0  0  0  0  0  0  0  0  0  0  0
    7.5919   46.1741   54.1767 C   0  0  0  0  0  0  0  0  0  0  0  0
    7.6336   46.2038   55.6439 N   0  0  0  0  0  0  0  0  0  0  0  0
    4.2638   46.8519   57.9498 C   0  0  0  0  0  0  0  0  0  0  0  0
    5.0882   45.7544   58.1855 C   0  0  0  0  0  0  0  0  0  0  0  0
    6.2112   45.5309   57.3914 C   0  0  0  0  0  0  0  0  0  0  0  0
    6.5470   46.4271   56.3822 C   0  0  0  0  0  0  0  0  0  0  0  0
    5.7297   47.5285   56.1512 C   0  0  0  0  0  0  0  0  0  0  0  0
    4.5863   47.7336   56.9220 C   0  0  0  0  0  0  0  0  0  0  0  0
    1.5538   46.7407   61.5481 C   0  0  0  0  0  0  0  0  0  0  0  0
  1  3  1  0  0  0  0
  2  1  1  6  0  0  0
  2  6  1  0  0  0  0
  2 34  1  0  0  0  0
  3  4  2  0  0  0  0
  3 28  1  0  0  0  0
  5 13  1  0  0  0  0
  6  7  1  0  0  0  0
  7  8  1  0  0  0  0
  8  9  1  0  0  0  0
  8 10  1  0  0  0  0
 11 13  2  0  0  0  0
 11 24  1  0  0  0  0
 12 34  1  0  0  0  0
 13 15  1  0  0  0  0
 14 34  1  0  0  0  0
 15 16  1  0  0  0  0
 16 17  1  0  0  0  0
 16 18  2  0  0  0  0
 17 20  1  0  0  0  0
 17 24  2  0  0  0  0
 19 21  1  0  0  0  0
 19 20  1  0  0  0  0
 20 22  1  0  0  0  0
 22 23  1  0  0  0  0
 22 26  1  1  0  0  0
 23 25  1  0  0  0  0
 24 25  1  0  0  0  0
 26 27  1  0  0  0  0
 27 31  1  0  0  0  0
 28 29  2  0  0  0  0
 28 33  1  0  0  0  0
 29 30  1  0  0  0  0
 30 31  2  0  0  0  0
 31 32  1  0  0  0  0
 32 33  2  0  0  0  0
M  END
>  <CHROM.1>
173.06893200,-65.32333493,176.97833711,146.35457787,-64.10182808,135.40014508
53.25687356,-175.02170248,126.98434549,-22.31835955,5.99029354,45.19696255
57.49605874,-3.00173259,-0.51388275,-2.93495517

>  <Name>
ligand

>  <RI>
0

>  <Rbt.Current_Directory>
/home/itssahil/PROJECTS/Mol_Feturizer/New_Systems/rnas/3SUH

>  <Rbt.Executable>
rbdock ($Id: //depot/dev/client3/rdock/2013.1/src/exe/rbdock.cxx#4 $)

>  <Rbt.Library>
libRbt.so (2013.1, Build901 2013/11/27)

>  <Rbt.Parameter_File>
/export/apps/rDock/src/rDock_2013.1_src/data/scripts/dock_solv.prm

>  <Rbt.Receptor>
prm/blind_docking_80.prm

>  <SCORE>
-7.16978

>  <SCORE.INTER>
-5.76805

>  <SCORE.INTER.CONST>
1

>  <SCORE.INTER.POLAR>
0

>  <SCORE.INTER.ROT>
10

>  <SCORE.INTER.SOLV>
10.0886

>  <SCORE.INTER.VDW>
-17.4749

>  <SCORE.INTER.norm>
-0.169648

>  <SCORE.INTRA>
-1.40173

>  <SCORE.INTRA.DIHEDRAL>
-1.94944

>  <SCORE.INTRA.DIHEDRAL.0>
12.2703

>  <SCORE.INTRA.POLAR>
0

>  <SCORE.INTRA.POLAR.0>
0

>  <SCORE.INTRA.REPUL>
0

>  <SCORE.INTRA.REPUL.0>
0

>  <SCORE.INTRA.SOLV>
1.98435

>  <SCORE.INTRA.SOLV.lig_0>
-64.3214

>  <SCORE.INTRA.VDW>
-1.41918

>  <SCORE.INTRA.VDW.0>
-1.67301

>  <SCORE.INTRA.norm>
-0.0412273

>  <SCORE.RESTR>
0

>  <SCORE.RESTR.CAVITY>
0

>  <SCORE.RESTR.norm>
0

>  <SCORE.SYSTEM>
0

>  <SCORE.SYSTEM.CONST>
0

>  <SCORE.SYSTEM.DIHEDRAL>
0

>  <SCORE.SYSTEM.SOLV>
0

>  <SCORE.SYSTEM.norm>
0

>  <SCORE.heavy>
34

>  <SCORE.norm>
-0.210876

>  <RMSD>
16.536

$$$$
ligand
 OpenBabel11021811483D
libRbt.so/2013.1/901 2013/11/27
 34 36  0  0  0  0  0  0  0  0999 V2000
    2.1704   45.0457   59.3259 N   0  0  0  0  0  0  0  0  0  0  0  0
    1.2023   45.0403   60.4473 C   0  0  1  0  0  0  0  0  0  0  0  0
    2.5544   43.9453   58.6657 C   0  0  0  0  0  0  0  0  0  0  0  0
    2.1484   42.8071   58.9165 O   0  0  0  0  0  0  0  0  0  0  0  0
   11.3299   44.4096   59.1472 N   0  0  0  0  0  0  0  0  0  0  0  0
    1.8796   45.5719   61.7217 C   0  0  0  0  0  0  0  0  0  0  0  0
    2.7578   46.7954   61.4264 C   0  0  0  0  0  0  0  0  0  0  0  0
    4.1603   46.3744   60.9619 C   0  0  0  0  0  0  0  0  0  0  0  0
    4.8775   45.7637   61.7889 O   0  0  0  0  0  0  0  0  0  0  0  0
    4.4837   46.6703   59.7887 O   0  0  0  0  0  0  0  0  0  0  0  0
   10.6848   45.5232   57.2231 N   0  0  0  0  0  0  0  0  0  0  0  0
   -0.4879   45.8567   58.9558 O   0  0  0  0  0  0  0  0  0  0  0  0
   10.7282   44.3999   57.9605 C   0  0  0  0  0  0  0  0  0  0  0  0
   -0.5447   46.5369   61.0826 O   0  0  0  0  0  0  0  0  0  0  0  0
   10.1455   43.2149   57.4936 N   0  0  0  0  0  0  0  0  0  0  0  0
    9.5161   43.2180   56.2561 C   0  0  0  0  0  0  0  0  0  0  0  0
    9.4612   44.4030   55.5342 C   0  0  0  0  0  0  0  0  0  0  0  0
    8.9889   42.1936   55.8297 O   0  0  0  0  0  0  0  0  0  0  0  0
    9.0015   43.3655   53.4813 C   0  0  0  0  0  0  0  0  0  0  0  0
    8.9023   44.4375   54.2615 N   0  0  0  0  0  0  0  0  0  0  0  0
   10.0653   43.0919   52.9299 O   0  0  0  0  0  0  0  0  0  0  0  0
    8.3941   45.7059   53.7276 C   0  0  2  0  0  0  0  0  0  0  0  0
    9.4642   46.7837   53.9195 C   0  0  0  0  0  0  0  0  0  0  0  0
   10.0809   45.5441   56.0252 C   0  0  0  0  0  0  0  0  0  0  0  0
   10.0626   46.7257   55.2759 N   0  0  0  0  0  0  0  0  0  0  0  0
    7.1013   46.1104   54.4443 C   0  0  0  0  0  0  0  0  0  0  0  0
    6.1430   44.9992   54.3996 N   0  0  0  0  0  0  0  0  0  0  0  0
    3.5301   44.2027   57.5031 C   0  0  0  0  0  0  0  0  0  0  0  0
    3.0539   44.5809   56.2501 C   0  0  0  0  0  0  0  0  0  0  0  0
    3.9409   44.8675   55.2143 C   0  0  0  0  0  0  0  0  0  0  0  0
    5.3119   44.7353   55.4073 C   0  0  0  0  0  0  0  0  0  0  0  0
    5.7888   44.3491   56.6555 C   0  0  0  0  0  0  0  0  0  0  0  0
    4.9036   44.0966   57.7026 C   0  0  0  0  0  0  0  0  0  0  0  0
   -0.0517   45.8817   60.1322 C   0  0  0  0  0  0  0  0  0  0  0  0
  1  3  1  0  0  0  0
  2  1  1  6  0  0  0
  2  6  1  0  0  0  0
  2 34  1  0  0  0  0
  3  4  2  0  0  0  0
  3 28  1  0  0  0  0
  5 13  1  0  0  0  0
  6  7  1  0  0  0  0
  7  8  1  0  0  0  0
  8  9  1  0  0  0  0
  8 10  1  0  0  0  0
 11 13  2  0  0  0  0
 11 24  1  0  0  0  0
 12 34  1  0  0  0  0
 13 15  1  0  0  0  0
 14 34  1  0  0  0  0
 15 16  1  0  0  0  0
 16 17  1  0  0  0  0
 16 18  2  0  0  0  0
 17 20  1  0  0  0  0
 17 24  2  0  0  0  0
 19 21  1  0  0  0  0
 19 20  1  0  0  0  0
 20 22  1  0  0  0  0
 22 23  1  0  0  0  0
 22 26  1  1  0  0  0
 23 25  1  0  0  0  0
 24 25  1  0  0  0  0
 26 27  1  0  0  0  0
 27 31  1  0  0  0  0
 28 29  2  0  0  0  0
 28 33  1  0  0  0  0
 29 30  1  0  0  0  0
 30 31  2  0  0  0  0
 31 32  1  0  0  0  0
 32 33  2  0  0  0  0
M  END
>  <CHROM.1>
118.90435894,42.32492466,37.03803398,-84.93961347,-64.79328994,-75.38150105
-52.64427878,144.44590709,115.20006615,-83.45299100,5.90488699,44.92522420
57.38903271,2.58662597,-0.02600211,1.40437084

>  <Name>
ligand

>  <RI>
0

>  <Rbt.Current_Directory>
/home/itssahil/PROJECTS/Mol_Feturizer/New_Systems/rnas/3SUH

>  <Rbt.Executable>
rbdock ($Id: //depot/dev/client3/rdock/2013.1/src/exe/rbdock.cxx#4 $)

>  <Rbt.Library>
libRbt.so (2013.1, Build901 2013/11/27)

>  <Rbt.Parameter_File>
/export/apps/rDock/src/rDock_2013.1_src/data/scripts/dock_solv.prm

>  <Rbt.Receptor>
prm/blind_docking_80.prm

>  <SCORE>
-13.4725

>  <SCORE.INTER>
-11.3865

>  <SCORE.INTER.CONST>
1

>  <SCORE.INTER.POLAR>
0

>  <SCORE.INTER.ROT>
10

>  <SCORE.INTER.SOLV>
10.2467

>  <SCORE.INTER.VDW>
-21.2732

>  <SCORE.INTER.norm>
-0.334898

>  <SCORE.INTRA>
-2.08593

>  <SCORE.INTRA.DIHEDRAL>
-0.578608

>  <SCORE.INTRA.DIHEDRAL.0>
12.2703

>  <SCORE.INTRA.POLAR>
0

>  <SCORE.INTRA.POLAR.0>
0

>  <SCORE.INTRA.REPUL>
0

>  <SCORE.INTRA.REPUL.0>
0

>  <SCORE.INTRA.SOLV>
0.0459363

>  <SCORE.INTRA.SOLV.lig_0>
-64.3214

>  <SCORE.INTRA.VDW>
-1.8196

>  <SCORE.INTRA.VDW.0>
-1.67301

>  <SCORE.INTRA.norm>
-0.061351

>  <SCORE.RESTR>
0

>  <SCORE.RESTR.CAVITY>
0

>  <SCORE.RESTR.norm>
0

>  <SCORE.SYSTEM>
0

>  <SCORE.SYSTEM.CONST>
0

>  <SCORE.SYSTEM.DIHEDRAL>
0

>  <SCORE.SYSTEM.SOLV>
0

>  <SCORE.SYSTEM.norm>
0

>  <SCORE.heavy>
34

>  <SCORE.norm>
-0.396249

>  <RMSD>
16.542

$$$$
ligand
 OpenBabel11021811483D
libRbt.so/2013.1/901 2013/11/27
 34 36  0  0  0  0  0  0  0  0999 V2000
    3.3862   46.3687   59.4917 N   0  0  0  0  0  0  0  0  0  0  0  0
    1.9917   46.6560   59.9011 C   0  0  1  0  0  0  0  0  0  0  0  0
    4.4457   46.5103   60.2989 C   0  0  0  0  0  0  0  0  0  0  0  0
    4.3810   46.8960   61.4695 O   0  0  0  0  0  0  0  0  0  0  0  0
    3.3759   42.6683   55.6524 N   0  0  0  0  0  0  0  0  0  0  0  0
    1.1137   46.8535   58.6540 C   0  0  0  0  0  0  0  0  0  0  0  0
    1.8657   47.6044   57.5468 C   0  0  0  0  0  0  0  0  0  0  0  0
    2.2417   49.0251   57.9946 C   0  0  0  0  0  0  0  0  0  0  0  0
    1.5390   49.9671   57.5587 O   0  0  0  0  0  0  0  0  0  0  0  0
    3.2224   49.1378   58.7654 O   0  0  0  0  0  0  0  0  0  0  0  0
    5.6624   42.6048   55.2967 N   0  0  0  0  0  0  0  0  0  0  0  0
    0.9532   45.8529   61.9071 O   0  0  0  0  0  0  0  0  0  0  0  0
    4.5555   43.2840   55.6443 C   0  0  0  0  0  0  0  0  0  0  0  0
    1.4258   44.3726   60.3027 O   0  0  0  0  0  0  0  0  0  0  0  0
    4.6286   44.6368   55.9998 N   0  0  0  0  0  0  0  0  0  0  0  0
    5.8654   45.2674   55.9924 C   0  0  0  0  0  0  0  0  0  0  0  0
    6.9932   44.5287   55.6595 C   0  0  0  0  0  0  0  0  0  0  0  0
    5.9565   46.4505   56.3102 O   0  0  0  0  0  0  0  0  0  0  0  0
    8.3217   46.3999   55.1736 C   0  0  0  0  0  0  0  0  0  0  0  0
    8.2420   45.1340   55.5721 N   0  0  0  0  0  0  0  0  0  0  0  0
    9.0903   47.1814   55.7294 O   0  0  0  0  0  0  0  0  0  0  0  0
    9.4534   44.3207   55.7241 C   0  0  2  0  0  0  0  0  0  0  0  0
    9.3394   43.0945   54.8147 C   0  0  0  0  0  0  0  0  0  0  0  0
    6.8656   43.1982   55.2841 C   0  0  0  0  0  0  0  0  0  0  0  0
    7.9976   42.4679   54.9063 N   0  0  0  0  0  0  0  0  0  0  0  0
    9.6268   43.8833   57.1826 C   0  0  0  0  0  0  0  0  0  0  0  0
    9.4513   45.0398   58.0696 N   0  0  0  0  0  0  0  0  0  0  0  0
    5.7902   46.1021   59.6700 C   0  0  0  0  0  0  0  0  0  0  0  0
    6.6073   47.0548   59.0662 C   0  0  0  0  0  0  0  0  0  0  0  0
    7.8489   46.6935   58.5470 C   0  0  0  0  0  0  0  0  0  0  0  0
    8.2671   45.3676   58.5855 C   0  0  0  0  0  0  0  0  0  0  0  0
    7.4484   44.4134   59.1801 C   0  0  0  0  0  0  0  0  0  0  0  0
    6.2217   44.7801   59.7317 C   0  0  0  0  0  0  0  0  0  0  0  0
    1.4048   45.5330   60.7809 C   0  0  0  0  0  0  0  0  0  0  0  0
  1  3  1  0  0  0  0
  2  1  1  6  0  0  0
  2  6  1  0  0  0  0
  2 34  1  0  0  0  0
  3  4  2  0  0  0  0
  3 28  1  0  0  0  0
  5 13  1  0  0  0  0
  6  7  1  0  0  0  0
  7  8  1  0  0  0  0
  8  9  1  0  0  0  0
  8 10  1  0  0  0  0
 11 13  2  0  0  0  0
 11 24  1  0  0  0  0
 12 34  1  0  0  0  0
 13 15  1  0  0  0  0
 14 34  1  0  0  0  0
 15 16  1  0  0  0  0
 16 17  1  0  0  0  0
 16 18  2  0  0  0  0
 17 20  1  0  0  0  0
 17 24  2  0  0  0  0
 19 21  1  0  0  0  0
 19 20  1  0  0  0  0
 20 22  1  0  0  0  0
 22 23  1  0  0  0  0
 22 26  1  1  0  0  0
 23 25  1  0  0  0  0
 24 25  1  0  0  0  0
 26 27  1  0  0  0  0
 27 31  1  0  0  0  0
 28 29  2  0  0  0  0
 28 33  1  0  0  0  0
 29 30  1  0  0  0  0
 30 31  2  0  0  0  0
 31 32  1  0  0  0  0
 32 33  2  0  0  0  0
M  END
>  <CHROM.1>
160.87793662,-37.92020085,124.26912667,-63.21506865,-102.43723629,138.41580747
-47.94287793,91.29328130,-133.61458687,94.64338828,5.39153797,45.61907709
57.72715191,-2.52555773,-0.17751235,-2.43719518

>  <Name>
ligand

>  <RI>
0

>  <Rbt.Current_Directory>
/home/itssahil/PROJECTS/Mol_Feturizer/New_Systems/rnas/3SUH

>  <Rbt.Executable>
rbdock ($Id: //depot/dev/client3/rdock/2013.1/src/exe/rbdock.cxx#4 $)

>  <Rbt.Library>
libRbt.so (2013.1, Build901 2013/11/27)

>  <Rbt.Parameter_File>
/export/apps/rDock/src/rDock_2013.1_src/data/scripts/dock_solv.prm

>  <Rbt.Receptor>
prm/blind_docking_100.prm

>  <SCORE>
-11.4254

>  <SCORE.INTER>
-6.14087

>  <SCORE.INTER.CONST>
1

>  <SCORE.INTER.POLAR>
0

>  <SCORE.INTER.ROT>
10

>  <SCORE.INTER.SOLV>
13.3633

>  <SCORE.INTER.VDW>
-18.815

>  <SCORE.INTER.norm>
-0.180614

>  <SCORE.INTRA>
-5.28456

>  <SCORE.INTRA.DIHEDRAL>
-2.80764

>  <SCORE.INTRA.DIHEDRAL.0>
12.2703

>  <SCORE.INTRA.POLAR>
0

>  <SCORE.INTRA.POLAR.0>
0

>  <SCORE.INTRA.REPUL>
0

>  <SCORE.INTRA.REPUL.0>
0

>  <SCORE.INTRA.SOLV>
1.6452

>  <SCORE.INTRA.SOLV.lig_0>
-64.3214

>  <SCORE.INTRA.VDW>
-4.70334

>  <SCORE.INTRA.VDW.0>
-1.67301

>  <SCORE.INTRA.norm>
-0.155428

>  <SCORE.RESTR>
0

>  <SCORE.RESTR.CAVITY>
0

>  <SCORE.RESTR.norm>
0

>  <SCORE.SYSTEM>
0

>  <SCORE.SYSTEM.CONST>
0

>  <SCORE.SYSTEM.DIHEDRAL>
0

>  <SCORE.SYSTEM.SOLV>
0

>  <SCORE.SYSTEM.norm>
0

>  <SCORE.heavy>
34

>  <SCORE.norm>
-0.336042

>  <RMSD>
16.611

$$$$
ligand
 OpenBabel11021811483D
libRbt.so/2013.1/901 2013/11/27
 34 36  0  0  0  0  0  0  0  0999 V2000
    2.6342   46.1871   60.0183 N   0  0  0  0  0  0  0  0  0  0  0  0
    1.3089   46.3974   60.6460 C   0  0  1  0  0  0  0  0  0  0  0  0
    3.7634   46.7669   60.4459 C   0  0  0  0  0  0  0  0  0  0  0  0
    3.8275   47.5398   61.4059 O   0  0  0  0  0  0  0  0  0  0  0  0
    3.7727   39.7728   54.7187 N   0  0  0  0  0  0  0  0  0  0  0  0
    0.2145   45.7524   59.7791 C   0  0  0  0  0  0  0  0  0  0  0  0
    0.0263   46.5049   58.4548 C   0  0  0  0  0  0  0  0  0  0  0  0
    1.2716   46.3823   57.5634 C   0  0  0  0  0  0  0  0  0  0  0  0
    2.0343   47.3753   57.5062 O   0  0  0  0  0  0  0  0  0  0  0  0
    1.4348   45.2966   56.9605 O   0  0  0  0  0  0  0  0  0  0  0  0
    5.6301   41.1140   54.3880 N   0  0  0  0  0  0  0  0  0  0  0  0
    0.1473   45.8668   62.6751 O   0  0  0  0  0  0  0  0  0  0  0  0
    4.3783   40.9503   54.8500 C   0  0  0  0  0  0  0  0  0  0  0  0
    2.3165   45.3519   62.5400 O   0  0  0  0  0  0  0  0  0  0  0  0
    3.7009   42.0076   55.4704 N   0  0  0  0  0  0  0  0  0  0  0  0
    4.3446   43.2302   55.6062 C   0  0  0  0  0  0  0  0  0  0  0  0
    5.6490   43.3564   55.1469 C   0  0  0  0  0  0  0  0  0  0  0  0
    3.7749   44.1695   56.1559 O   0  0  0  0  0  0  0  0  0  0  0  0
    5.6061   45.7002   55.0639 C   0  0  0  0  0  0  0  0  0  0  0  0
    6.3084   44.5794   55.1994 N   0  0  0  0  0  0  0  0  0  0  0  0
    6.0312   46.7609   55.5161 O   0  0  0  0  0  0  0  0  0  0  0  0
    7.7751   44.6121   55.2013 C   0  0  2  0  0  0  0  0  0  0  0  0
    8.2879   43.7262   54.0630 C   0  0  0  0  0  0  0  0  0  0  0  0
    6.2671   42.2884   54.5107 C   0  0  0  0  0  0  0  0  0  0  0  0
    7.5655   42.4313   54.0092 N   0  0  0  0  0  0  0  0  0  0  0  0
    8.3213   44.1164   56.5446 C   0  0  0  0  0  0  0  0  0  0  0  0
    8.3629   45.2287   57.5019 N   0  0  0  0  0  0  0  0  0  0  0  0
    5.0282   46.3580   59.6693 C   0  0  0  0  0  0  0  0  0  0  0  0
    5.4334   45.0261   59.6276 C   0  0  0  0  0  0  0  0  0  0  0  0
    6.5465   44.6495   58.8787 C   0  0  0  0  0  0  0  0  0  0  0  0
    7.2927   45.6071   58.2000 C   0  0  0  0  0  0  0  0  0  0  0  0
    6.8946   46.9388   58.2479 C   0  0  0  0  0  0  0  0  0  0  0  0
    5.7605   47.3116   58.9679 C   0  0  0  0  0  0  0  0  0  0  0  0
    1.2491   45.8223   62.0763 C   0  0  0  0  0  0  0  0  0  0  0  0
  1  3  1  0  0  0  0
  2  1  1  6  0  0  0
  2  6  1  0  0  0  0
  2 34  1  0  0  0  0
  3  4  2  0  0  0  0
  3 28  1  0  0  0  0
  5 13  1  0  0  0  0
  6  7  1  0  0  0  0
  7  8  1  0  0  0  0
  8  9  1  0  0  0  0
  8 10  1  0  0  0  0
 11 13  2  0  0  0  0
 11 24  1  0  0  0  0
 12 34  1  0  0  0  0
 13 15  1  0  0  0  0
 14 34  1  0  0  0  0
 15 16  1  0  0  0  0
 16 17  1  0  0  0  0
 16 18  2  0  0  0  0
 17 20  1  0  0  0  0
 17 24  2  0  0  0  0
 19 21  1  0  0  0  0
 19 20  1  0  0  0  0
 20 22  1  0  0  0  0
 22 23  1  0  0  0  0
 22 26  1  1  0  0  0
 23 25  1  0  0  0  0
 24 25  1  0  0  0  0
 26 27  1  0  0  0  0
 27 31  1  0  0  0  0
 28 29  2  0  0  0  0
 28 33  1  0  0  0  0
 29 30  1  0  0  0  0
 30 31  2  0  0  0  0
 31 32  1  0  0  0  0
 32 33  2  0  0  0  0
M  END
>  <CHROM.1>
171.57673430,-69.19175160,-175.55920671,66.21803026,-103.09727460,156.46143992
-85.33170419,82.88383938,49.24986229,-60.13575818,4.42394729,44.88491467
57.59414410,-2.22049464,-0.26764876,-2.28214009

>  <Name>
ligand

>  <RI>
0

>  <Rbt.Current_Directory>
/home/itssahil/PROJECTS/Mol_Feturizer/New_Systems/rnas/3SUH

>  <Rbt.Executable>
rbdock ($Id: //depot/dev/client3/rdock/2013.1/src/exe/rbdock.cxx#4 $)

>  <Rbt.Library>
libRbt.so (2013.1, Build901 2013/11/27)

>  <Rbt.Parameter_File>
/export/apps/rDock/src/rDock_2013.1_src/data/scripts/dock_solv.prm

>  <Rbt.Receptor>
prm/blind_docking_100.prm

>  <SCORE>
-17.3385

>  <SCORE.INTER>
-12.5878

>  <SCORE.INTER.CONST>
1

>  <SCORE.INTER.POLAR>
0

>  <SCORE.INTER.ROT>
10

>  <SCORE.INTER.SOLV>
6.83324

>  <SCORE.INTER.VDW>
-20.9363

>  <SCORE.INTER.norm>
-0.370231

>  <SCORE.INTRA>
-4.75068

>  <SCORE.INTRA.DIHEDRAL>
-3.21071

>  <SCORE.INTRA.DIHEDRAL.0>
12.2703

>  <SCORE.INTRA.POLAR>
0

>  <SCORE.INTRA.POLAR.0>
0

>  <SCORE.INTRA.REPUL>
0

>  <SCORE.INTRA.REPUL.0>
0

>  <SCORE.INTRA.SOLV>
0.6785

>  <SCORE.INTRA.SOLV.lig_0>
-64.3214

>  <SCORE.INTRA.VDW>
-3.48458

>  <SCORE.INTRA.VDW.0>
-1.67301

>  <SCORE.INTRA.norm>
-0.139726

>  <SCORE.RESTR>
0

>  <SCORE.RESTR.CAVITY>
0

>  <SCORE.RESTR.norm>
0

>  <SCORE.SYSTEM>
0

>  <SCORE.SYSTEM.CONST>
0

>  <SCORE.SYSTEM.DIHEDRAL>
0

>  <SCORE.SYSTEM.SOLV>
0

>  <SCORE.SYSTEM.norm>
0

>  <SCORE.heavy>
34

>  <SCORE.norm>
-0.509957

>  <RMSD>
16.775

$$$$
ligand
 OpenBabel11021811483D
libRbt.so/2013.1/901 2013/11/27
 34 36  0  0  0  0  0  0  0  0999 V2000
    2.8741   45.4631   58.6996 N   0  0  0  0  0  0  0  0  0  0  0  0
    1.9675   45.3990   59.8696 C   0  0  1  0  0  0  0  0  0  0  0  0
    2.7083   46.3057   57.6717 C   0  0  0  0  0  0  0  0  0  0  0  0
    1.7846   47.1193   57.5820 O   0  0  0  0  0  0  0  0  0  0  0  0
    6.5923   45.6800   60.4084 N   0  0  0  0  0  0  0  0  0  0  0  0
    1.9807   46.7457   60.6122 C   0  0  0  0  0  0  0  0  0  0  0  0
    3.3882   47.1036   61.1081 C   0  0  0  0  0  0  0  0  0  0  0  0
    3.5084   48.6063   61.4040 C   0  0  0  0  0  0  0  0  0  0  0  0
    3.7336   48.9394   62.5912 O   0  0  0  0  0  0  0  0  0  0  0  0
    3.3749   49.3892   60.4355 O   0  0  0  0  0  0  0  0  0  0  0  0
    8.0721   45.7710   58.6307 N   0  0  0  0  0  0  0  0  0  0  0  0
   -0.2249   45.9769   59.0903 O   0  0  0  0  0  0  0  0  0  0  0  0
    6.9287   45.3175   59.1731 C   0  0  0  0  0  0  0  0  0  0  0  0
    0.1999   43.8302   59.5378 O   0  0  0  0  0  0  0  0  0  0  0  0
    6.0835   44.4652   58.4514 N   0  0  0  0  0  0  0  0  0  0  0  0
    6.4423   44.0977   57.1615 C   0  0  0  0  0  0  0  0  0  0  0  0
    7.6139   44.6094   56.6194 C   0  0  0  0  0  0  0  0  0  0  0  0
    5.7124   43.3593   56.5049 O   0  0  0  0  0  0  0  0  0  0  0  0
    7.7848   42.9814   54.9393 C   0  0  0  0  0  0  0  0  0  0  0  0
    8.0479   44.2155   55.3585 N   0  0  0  0  0  0  0  0  0  0  0  0
    7.1997   42.7960   53.8746 O   0  0  0  0  0  0  0  0  0  0  0  0
    8.9518   45.0860   54.5988 C   0  0  2  0  0  0  0  0  0  0  0  0
   10.1121   45.5017   55.5067 C   0  0  0  0  0  0  0  0  0  0  0  0
    8.4343   45.4261   57.3857 C   0  0  0  0  0  0  0  0  0  0  0  0
    9.6364   45.9049   56.8531 N   0  0  0  0  0  0  0  0  0  0  0  0
    8.2050   46.3253   54.0938 C   0  0  0  0  0  0  0  0  0  0  0  0
    6.8170   45.9696   53.7739 N   0  0  0  0  0  0  0  0  0  0  0  0
    3.8055   46.2274   56.5948 C   0  0  0  0  0  0  0  0  0  0  0  0
    4.8358   47.1642   56.5647 C   0  0  0  0  0  0  0  0  0  0  0  0
    5.8585   47.0596   55.6240 C   0  0  0  0  0  0  0  0  0  0  0  0
    5.8379   46.0433   54.6748 C   0  0  0  0  0  0  0  0  0  0  0  0
    4.8050   45.1122   54.6977 C   0  0  0  0  0  0  0  0  0  0  0  0
    3.8005   45.1952   55.6609 C   0  0  0  0  0  0  0  0  0  0  0  0
    0.5232   45.0408   59.4625 C   0  0  0  0  0  0  0  0  0  0  0  0
  1  3  1  0  0  0  0
  2  1  1  6  0  0  0
  2  6  1  0  0  0  0
  2 34  1  0  0  0  0
  3  4  2  0  0  0  0
  3 28  1  0  0  0  0
  5 13  1  0  0  0  0
  6  7  1  0  0  0  0
  7  8  1  0  0  0  0
  8  9  1  0  0  0  0
  8 10  1  0  0  0  0
 11 13  2  0  0  0  0
 11 24  1  0  0  0  0
 12 34  1  0  0  0  0
 13 15  1  0  0  0  0
 14 34  1  0  0  0  0
 15 16  1  0  0  0  0
 16 17  1  0  0  0  0
 16 18  2  0  0  0  0
 17 20  1  0  0  0  0
 17 24  2  0  0  0  0
 19 21  1  0  0  0  0
 19 20  1  0  0  0  0
 20 22  1  0  0  0  0
 22 23  1  0  0  0  0
 22 26  1  1  0  0  0
 23 25  1  0  0  0  0
 24 25  1  0  0  0  0
 26 27  1  0  0  0  0
 27 31  1  0  0  0  0
 28 29  2  0  0  0  0
 28 33  1  0  0  0  0
 29 30  1  0  0  0  0
 30 31  2  0  0  0  0
 31 32  1  0  0  0  0
 32 33  2  0  0  0  0
M  END
>  <CHROM.1>
-61.92255995,-59.75780384,-84.75232091,160.48589693,116.30488629,125.09432049
-33.98405512,90.02021611,35.20169612,-100.03053893,5.16494523,45.71233232
57.55901365,2.43601002,0.13834812,1.03542077

>  <Name>
ligand

>  <RI>
0

>  <Rbt.Current_Directory>
/home/itssahil/PROJECTS/Mol_Feturizer/New_Systems/rnas/3SUH

>  <Rbt.Executable>
rbdock ($Id: //depot/dev/client3/rdock/2013.1/src/exe/rbdock.cxx#4 $)

>  <Rbt.Library>
libRbt.so (2013.1, Build901 2013/11/27)

>  <Rbt.Parameter_File>
/export/apps/rDock/src/rDock_2013.1_src/data/scripts/dock_solv.prm

>  <Rbt.Receptor>
prm/blind_docking_100.prm

>  <SCORE>
-11.5314

>  <SCORE.INTER>
-8.24106

>  <SCORE.INTER.CONST>
1

>  <SCORE.INTER.POLAR>
0

>  <SCORE.INTER.ROT>
10

>  <SCORE.INTER.SOLV>
11.7856

>  <SCORE.INTER.VDW>
-19.6892

>  <SCORE.INTER.norm>
-0.242384

>  <SCORE.INTRA>
-3.31144

>  <SCORE.INTRA.DIHEDRAL>
-1.75109

>  <SCORE.INTRA.DIHEDRAL.0>
12.2703

>  <SCORE.INTRA.POLAR>
0

>  <SCORE.INTRA.POLAR.0>
0

>  <SCORE.INTRA.REPUL>
0

>  <SCORE.INTRA.REPUL.0>
0

>  <SCORE.INTRA.SOLV>
3.91475

>  <SCORE.INTRA.SOLV.lig_0>
-64.3214

>  <SCORE.INTRA.VDW>
-4.39326

>  <SCORE.INTRA.VDW.0>
-1.67301

>  <SCORE.INTRA.norm>
-0.0973952

>  <SCORE.RESTR>
0.0210901

>  <SCORE.RESTR.CAVITY>
0.0210901

>  <SCORE.RESTR.norm>
0.000620298

>  <SCORE.SYSTEM>
0

>  <SCORE.SYSTEM.CONST>
0

>  <SCORE.SYSTEM.DIHEDRAL>
0

>  <SCORE.SYSTEM.SOLV>
0

>  <SCORE.SYSTEM.norm>
0

>  <SCORE.heavy>
34

>  <SCORE.norm>
-0.339159

>  <RMSD>
16.814

$$$$
ligand
 OpenBabel11021811483D
libRbt.so/2013.1/901 2013/11/27
 34 36  0  0  0  0  0  0  0  0999 V2000
    3.2797   46.5515   58.9348 N   0  0  0  0  0  0  0  0  0  0  0  0
    2.0974   46.5302   59.8272 C   0  0  1  0  0  0  0  0  0  0  0  0
    3.8917   47.6730   58.5327 C   0  0  0  0  0  0  0  0  0  0  0  0
    3.5407   48.8109   58.8571 O   0  0  0  0  0  0  0  0  0  0  0  0
    7.0966   44.6764   60.1367 N   0  0  0  0  0  0  0  0  0  0  0  0
    1.0304   45.5823   59.2544 C   0  0  0  0  0  0  0  0  0  0  0  0
    1.5141   44.1258   59.2470 C   0  0  0  0  0  0  0  0  0  0  0  0
    2.6117   43.9096   58.1941 C   0  0  0  0  0  0  0  0  0  0  0  0
    2.4902   44.5215   57.1069 O   0  0  0  0  0  0  0  0  0  0  0  0
    3.5501   43.1387   58.5007 O   0  0  0  0  0  0  0  0  0  0  0  0
    8.3818   44.7289   58.2121 N   0  0  0  0  0  0  0  0  0  0  0  0
    3.6786   45.9222   61.5236 O   0  0  0  0  0  0  0  0  0  0  0  0
    7.1964   44.5384   58.8170 C   0  0  0  0  0  0  0  0  0  0  0  0
    1.5124   45.9504   62.0671 O   0  0  0  0  0  0  0  0  0  0  0  0
    6.0606   44.1955   58.0728 N   0  0  0  0  0  0  0  0  0  0  0  0
    6.1756   44.0591   56.6959 C   0  0  0  0  0  0  0  0  0  0  0  0
    7.4072   44.2942   56.0989 C   0  0  0  0  0  0  0  0  0  0  0  0
    5.1914   43.7690   56.0204 O   0  0  0  0  0  0  0  0  0  0  0  0
    6.8891   43.1540   54.1156 C   0  0  0  0  0  0  0  0  0  0  0  0
    7.5859   44.1030   54.7333 N   0  0  0  0  0  0  0  0  0  0  0  0
    6.8366   43.1177   52.8883 O   0  0  0  0  0  0  0  0  0  0  0  0
    8.6719   44.8040   54.0397 C   0  0  2  0  0  0  0  0  0  0  0  0
    9.9690   44.6022   54.8272 C   0  0  0  0  0  0  0  0  0  0  0  0
    8.5111   44.6013   56.8828 C   0  0  0  0  0  0  0  0  0  0  0  0
    9.7607   44.7942   56.2836 N   0  0  0  0  0  0  0  0  0  0  0  0
    8.3543   46.2983   53.9174 C   0  0  0  0  0  0  0  0  0  0  0  0
    8.4505   46.9336   55.2375 N   0  0  0  0  0  0  0  0  0  0  0  0
    5.1319   47.4456   57.6495 C   0  0  0  0  0  0  0  0  0  0  0  0
    4.9915   47.0858   56.3114 C   0  0  0  0  0  0  0  0  0  0  0  0
    6.1134   46.9347   55.4990 C   0  0  0  0  0  0  0  0  0  0  0  0
    7.3897   47.0976   56.0272 C   0  0  0  0  0  0  0  0  0  0  0  0
    7.5321   47.4482   57.3655 C   0  0  0  0  0  0  0  0  0  0  0  0
    6.4089   47.6345   58.1702 C   0  0  0  0  0  0  0  0  0  0  0  0
    2.4641   46.0983   61.2621 C   0  0  0  0  0  0  0  0  0  0  0  0
  1  3  1  0  0  0  0
  2  1  1  6  0  0  0
  2  6  1  0  0  0  0
  2 34  1  0  0  0  0
  3  4  2  0  0  0  0
  3 28  1  0  0  0  0
  5 13  1  0  0  0  0
  6  7  1  0  0  0  0
  7  8  1  0  0  0  0
  8  9  1  0  0  0  0
  8 10  1  0  0  0  0
 11 13  2  0  0  0  0
 11 24  1  0  0  0  0
 12 34  1  0  0  0  0
 13 15  1  0  0  0  0
 14 34  1  0  0  0  0
 15 16  1  0  0  0  0
 16 17  1  0  0  0  0
 16 18  2  0  0  0  0
 17 20  1  0  0  0  0
 17 24  2  0  0  0  0
 19 21  1  0  0  0  0
 19 20  1  0  0  0  0
 20 22  1  0  0  0  0
 22 23  1  0  0  0  0
 22 26  1  1  0  0  0
 23 25  1  0  0  0  0
 24 25  1  0  0  0  0
 26 27  1  0  0  0  0
 27 31  1  0  0  0  0
 28 29  2  0  0  0  0
 28 33  1  0  0  0  0
 29 30  1  0  0  0  0
 30 31  2  0  0  0  0
 31 32  1  0  0  0  0
 32 33  2  0  0  0  0
M  END
>  <CHROM.1>
132.99574420,65.32208005,5.12155400,-70.66149617,-37.84694647,166.64193529
70.96086269,-94.18001772,-14.08235382,76.28002934,5.57582353,45.39678855
57.40957649,-2.59794787,-0.50500293,-2.44732483

>  <Name>
ligand

>  <RI>
0

>  <Rbt.Current_Directory>
/home/itssahil/PROJECTS/Mol_Feturizer/New_Systems/rnas/3SUH

>  <Rbt.Executable>
rbdock ($Id: //depot/dev/client3/rdock/2013.1/src/exe/rbdock.cxx#4 $)

>  <Rbt.Library>
libRbt.so (2013.1, Build901 2013/11/27)

>  <Rbt.Parameter_File>
/export/apps/rDock/src/rDock_2013.1_src/data/scripts/dock_solv.prm

>  <Rbt.Receptor>
prm/blind_docking_100.prm

>  <SCORE>
-12.5721

>  <SCORE.INTER>
-9.01947

>  <SCORE.INTER.CONST>
1

>  <SCORE.INTER.POLAR>
0

>  <SCORE.INTER.ROT>
10

>  <SCORE.INTER.SOLV>
11.5244

>  <SCORE.INTER.VDW>
-20.1211

>  <SCORE.INTER.norm>
-0.265279

>  <SCORE.INTRA>
-3.55263

>  <SCORE.INTRA.DIHEDRAL>
-3.25459

>  <SCORE.INTRA.DIHEDRAL.0>
12.2703

>  <SCORE.INTRA.POLAR>
0

>  <SCORE.INTRA.POLAR.0>
0

>  <SCORE.INTRA.REPUL>
0

>  <SCORE.INTRA.REPUL.0>
0

>  <SCORE.INTRA.SOLV>
3.39989

>  <SCORE.INTRA.SOLV.lig_0>
-64.3214

>  <SCORE.INTRA.VDW>
-3.62528

>  <SCORE.INTRA.VDW.0>
-1.67301

>  <SCORE.INTRA.norm>
-0.104489

>  <SCORE.RESTR>
0

>  <SCORE.RESTR.CAVITY>
0

>  <SCORE.RESTR.norm>
0

>  <SCORE.SYSTEM>
0

>  <SCORE.SYSTEM.CONST>
0

>  <SCORE.SYSTEM.DIHEDRAL>
0

>  <SCORE.SYSTEM.SOLV>
0

>  <SCORE.SYSTEM.norm>
0

>  <SCORE.heavy>
34

>  <SCORE.norm>
-0.369768

>  <RMSD>
16.838

$$$$
ligand
 OpenBabel11021811483D
libRbt.so/2013.1/901 2013/11/27
 34 36  0  0  0  0  0  0  0  0999 V2000
    2.3273   45.2894   59.4114 N   0  0  0  0  0  0  0  0  0  0  0  0
    0.9192   45.3785   59.8632 C   0  0  1  0  0  0  0  0  0  0  0  0
    3.3809   45.5571   60.1939 C   0  0  0  0  0  0  0  0  0  0  0  0
    3.2987   45.9086   61.3741 O   0  0  0  0  0  0  0  0  0  0  0  0
    5.9770   41.0031   54.5235 N   0  0  0  0  0  0  0  0  0  0  0  0
    0.3687   46.7854   59.5754 C   0  0  0  0  0  0  0  0  0  0  0  0
    0.4347   47.1227   58.0796 C   0  0  0  0  0  0  0  0  0  0  0  0
    1.8884   47.1787   57.5857 C   0  0  0  0  0  0  0  0  0  0  0  0
    2.6295   48.0566   58.0867 O   0  0  0  0  0  0  0  0  0  0  0  0
    2.2274   46.3401   56.7193 O   0  0  0  0  0  0  0  0  0  0  0  0
    7.9029   42.0166   55.3122 N   0  0  0  0  0  0  0  0  0  0  0  0
   -0.8226   44.7209   58.3528 O   0  0  0  0  0  0  0  0  0  0  0  0
    6.7397   42.0870   54.6419 C   0  0  0  0  0  0  0  0  0  0  0  0
    0.2147   43.1243   59.5205 O   0  0  0  0  0  0  0  0  0  0  0  0
    6.3186   43.2916   54.0647 N   0  0  0  0  0  0  0  0  0  0  0  0
    7.1201   44.4172   54.1989 C   0  0  0  0  0  0  0  0  0  0  0  0
    8.2999   44.3181   54.9247 C   0  0  0  0  0  0  0  0  0  0  0  0
    6.7673   45.4876   53.7102 O   0  0  0  0  0  0  0  0  0  0  0  0
    9.2588   46.2552   54.0134 C   0  0  0  0  0  0  0  0  0  0  0  0
    9.1671   45.4002   55.0275 N   0  0  0  0  0  0  0  0  0  0  0  0
    9.2121   47.4669   54.2133 O   0  0  0  0  0  0  0  0  0  0  0  0
   10.1050   45.4725   56.1532 C   0  0  2  0  0  0  0  0  0  0  0  0
   10.8351   44.1322   56.2713 C   0  0  0  0  0  0  0  0  0  0  0  0
    8.6898   43.0943   55.4516 C   0  0  0  0  0  0  0  0  0  0  0  0
    9.9006   42.9867   56.1447 N   0  0  0  0  0  0  0  0  0  0  0  0
    9.3585   45.7848   57.4546 C   0  0  0  0  0  0  0  0  0  0  0  0
    8.4368   44.6869   57.7714 N   0  0  0  0  0  0  0  0  0  0  0  0
    4.7494   45.3456   59.5214 C   0  0  0  0  0  0  0  0  0  0  0  0
    5.9245   45.6939   60.1830 C   0  0  0  0  0  0  0  0  0  0  0  0
    7.1646   45.4504   59.5958 C   0  0  0  0  0  0  0  0  0  0  0  0
    7.2417   44.8976   58.3219 C   0  0  0  0  0  0  0  0  0  0  0  0
    6.0690   44.5575   57.6561 C   0  0  0  0  0  0  0  0  0  0  0  0
    4.8289   44.7678   58.2575 C   0  0  0  0  0  0  0  0  0  0  0  0
    0.0264   44.3190   59.1847 C   0  0  0  0  0  0  0  0  0  0  0  0
  1  3  1  0  0  0  0
  2  1  1  6  0  0  0
  2  6  1  0  0  0  0
  2 34  1  0  0  0  0
  3  4  2  0  0  0  0
  3 28  1  0  0  0  0
  5 13  1  0  0  0  0
  6  7  1  0  0  0  0
  7  8  1  0  0  0  0
  8  9  1  0  0  0  0
  8 10  1  0  0  0  0
 11 13  2  0  0  0  0
 11 24  1  0  0  0  0
 12 34  1  0  0  0  0
 13 15  1  0  0  0  0
 14 34  1  0  0  0  0
 15 16  1  0  0  0  0
 16 17  1  0  0  0  0
 16 18  2  0  0  0  0
 17 20  1  0  0  0  0
 17 24  2  0  0  0  0
 19 21  1  0  0  0  0
 19 20  1  0  0  0  0
 20 22  1  0  0  0  0
 22 23  1  0  0  0  0
 22 26  1  1  0  0  0
 23 25  1  0  0  0  0
 24 25  1  0  0  0  0
 26 27  1  0  0  0  0
 27 31  1  0  0  0  0
 28 29  2  0  0  0  0
 28 33  1  0  0  0  0
 29 30  1  0  0  0  0
 30 31  2  0  0  0  0
 31 32  1  0  0  0  0
 32 33  2  0  0  0  0
M  END
>  <CHROM.1>
91.43003847,59.09820523,-110.42074934,-64.10480050,-63.08587636,132.50092667
63.71569553,-143.51933980,-63.65161532,174.57260009,5.43164339,44.99040644
57.19387948,-2.68866787,-0.17648546,-2.21469286

>  <Name>
ligand

>  <RI>
0

>  <Rbt.Current_Directory>
/home/itssahil/PROJECTS/Mol_Feturizer/New_Systems/rnas/3SUH

>  <Rbt.Executable>
rbdock ($Id: //depot/dev/client3/rdock/2013.1/src/exe/rbdock.cxx#4 $)

>  <Rbt.Library>
libRbt.so (2013.1, Build901 2013/11/27)

>  <Rbt.Parameter_File>
/export/apps/rDock/src/rDock_2013.1_src/data/scripts/dock_solv.prm

>  <Rbt.Receptor>
prm/blind_docking_80.prm

>  <SCORE>
-12.2881

>  <SCORE.INTER>
-10.7243

>  <SCORE.INTER.CONST>
1

>  <SCORE.INTER.POLAR>
0

>  <SCORE.INTER.ROT>
10

>  <SCORE.INTER.SOLV>
14.1135

>  <SCORE.INTER.VDW>
-22.1207

>  <SCORE.INTER.norm>
-0.315421

>  <SCORE.INTRA>
-1.56381

>  <SCORE.INTRA.DIHEDRAL>
-4.43581

>  <SCORE.INTRA.DIHEDRAL.0>
12.2703

>  <SCORE.INTRA.POLAR>
0

>  <SCORE.INTRA.POLAR.0>
0

>  <SCORE.INTRA.REPUL>
0

>  <SCORE.INTRA.REPUL.0>
0

>  <SCORE.INTRA.SOLV>
2.40159

>  <SCORE.INTRA.SOLV.lig_0>
-64.3214

>  <SCORE.INTRA.VDW>
-0.5467

>  <SCORE.INTRA.VDW.0>
-1.67301

>  <SCORE.INTRA.norm>
-0.0459944

>  <SCORE.RESTR>
0

>  <SCORE.RESTR.CAVITY>
0

>  <SCORE.RESTR.norm>
0

>  <SCORE.SYSTEM>
0

>  <SCORE.SYSTEM.CONST>
0

>  <SCORE.SYSTEM.DIHEDRAL>
0

>  <SCORE.SYSTEM.SOLV>
0

>  <SCORE.SYSTEM.norm>
0

>  <SCORE.heavy>
34

>  <SCORE.norm>
-0.361415

>  <RMSD>
16.861

$$$$
ligand
 OpenBabel11021811483D
libRbt.so/2013.1/901 2013/11/27
 34 36  0  0  0  0  0  0  0  0999 V2000
    3.1924   44.4230   58.2003 N   0  0  0  0  0  0  0  0  0  0  0  0
    1.8427   44.0065   58.6472 C   0  0  1  0  0  0  0  0  0  0  0  0
    4.0380   45.1426   58.9494 C   0  0  0  0  0  0  0  0  0  0  0  0
    3.7893   45.5401   60.0910 O   0  0  0  0  0  0  0  0  0  0  0  0
    5.8219   40.1367   54.6682 N   0  0  0  0  0  0  0  0  0  0  0  0
    1.9023   42.5821   59.2241 C   0  0  0  0  0  0  0  0  0  0  0  0
    0.5031   42.0517   59.5651 C   0  0  0  0  0  0  0  0  0  0  0  0
    0.5404   40.5495   59.8849 C   0  0  0  0  0  0  0  0  0  0  0  0
    0.1264   39.7655   58.9989 O   0  0  0  0  0  0  0  0  0  0  0  0
    0.9847   40.2179   61.0080 O   0  0  0  0  0  0  0  0  0  0  0  0
    7.5165   41.6120   54.1110 N   0  0  0  0  0  0  0  0  0  0  0  0
    1.4707   44.7124   60.9079 O   0  0  0  0  0  0  0  0  0  0  0  0
    6.2807   41.3831   54.5885 C   0  0  0  0  0  0  0  0  0  0  0  0
    0.6061   45.9523   59.2635 O   0  0  0  0  0  0  0  0  0  0  0  0
    5.4671   42.4442   55.0051 N   0  0  0  0  0  0  0  0  0  0  0  0
    5.9582   43.7401   54.9220 C   0  0  0  0  0  0  0  0  0  0  0  0
    7.2505   43.9392   54.4543 C   0  0  0  0  0  0  0  0  0  0  0  0
    5.2673   44.6865   55.2908 O   0  0  0  0  0  0  0  0  0  0  0  0
    6.9338   46.2082   53.9507 C   0  0  0  0  0  0  0  0  0  0  0  0
    7.7595   45.2226   54.2892 N   0  0  0  0  0  0  0  0  0  0  0  0
    6.1821   46.0883   52.9858 O   0  0  0  0  0  0  0  0  0  0  0  0
    9.2115   45.4321   54.2927 C   0  0  2  0  0  0  0  0  0  0  0  0
    9.8554   44.4263   53.3350 C   0  0  0  0  0  0  0  0  0  0  0  0
    8.0070   42.8577   54.0238 C   0  0  0  0  0  0  0  0  0  0  0  0
    9.2925   43.0648   53.5114 N   0  0  0  0  0  0  0  0  0  0  0  0
    9.7762   45.2531   55.7061 C   0  0  0  0  0  0  0  0  0  0  0  0
    9.1086   46.1820   56.6263 N   0  0  0  0  0  0  0  0  0  0  0  0
    5.4050   45.4116   58.2946 C   0  0  0  0  0  0  0  0  0  0  0  0
    5.6942   46.6590   57.7469 C   0  0  0  0  0  0  0  0  0  0  0  0
    6.9513   46.9182   57.2045 C   0  0  0  0  0  0  0  0  0  0  0  0
    7.9177   45.9188   57.1632 C   0  0  0  0  0  0  0  0  0  0  0  0
    7.6275   44.6697   57.7016 C   0  0  0  0  0  0  0  0  0  0  0  0
    6.3822   44.4203   58.2766 C   0  0  0  0  0  0  0  0  0  0  0  0
    1.2585   44.9723   59.6988 C   0  0  0  0  0  0  0  0  0  0  0  0
  1  3  1  0  0  0  0
  2  1  1  1  0  0  0
  2  6  1  0  0  0  0
  2 34  1  0  0  0  0
  3  4  2  0  0  0  0
  3 28  1  0  0  0  0
  5 13  1  0  0  0  0
  6  7  1  0  0  0  0
  7  8  1  0  0  0  0
  8  9  1  0  0  0  0
  8 10  1  0  0  0  0
 11 13  2  0  0  0  0
 11 24  1  0  0  0  0
 12 34  1  0  0  0  0
 13 15  1  0  0  0  0
 14 34  1  0  0  0  0
 15 16  1  0  0  0  0
 16 17  1  0  0  0  0
 16 18  2  0  0  0  0
 17 20  1  0  0  0  0
 17 24  2  0  0  0  0
 19 21  1  0  0  0  0
 19 20  1  0  0  0  0
 20 22  1  0  0  0  0
 22 23  1  0  0  0  0
 22 26  1  1  0  0  0
 23 25  1  0  0  0  0
 24 25  1  0  0  0  0
 26 27  1  0  0  0  0
 27 31  1  0  0  0  0
 28 29  2  0  0  0  0
 28 33  1  0  0  0  0
 29 30  1  0  0  0  0
 30 31  2  0  0  0  0
 31 32  1  0  0  0  0
 32 33  2  0  0  0  0
M  END
>  <CHROM.1>
-95.49081054,-174.04420224,-91.48827070,169.19706849,-103.59572731,-51.55873786
-57.32969899,81.73935764,-135.68928520,103.34445921,5.19115051,43.99057530
56.87105347,-3.05481356,-0.66777292,-2.67341213

>  <Name>
ligand

>  <RI>
0

>  <Rbt.Current_Directory>
/home/itssahil/PROJECTS/Mol_Feturizer/New_Systems/rnas/3SUH

>  <Rbt.Executable>
rbdock ($Id: //depot/dev/client3/rdock/2013.1/src/exe/rbdock.cxx#4 $)

>  <Rbt.Library>
libRbt.so (2013.1, Build901 2013/11/27)

>  <Rbt.Parameter_File>
/export/apps/rDock/src/rDock_2013.1_src/data/scripts/dock_solv.prm

>  <Rbt.Receptor>
prm/blind_docking_100.prm

>  <SCORE>
-12.3572

>  <SCORE.INTER>
-8.2943

>  <SCORE.INTER.CONST>
1

>  <SCORE.INTER.POLAR>
0

>  <SCORE.INTER.ROT>
10

>  <SCORE.INTER.SOLV>
13.0755

>  <SCORE.INTER.VDW>
-20.1547

>  <SCORE.INTER.norm>
-0.24395

>  <SCORE.INTRA>
-4.06289

>  <SCORE.INTRA.DIHEDRAL>
-3.99297

>  <SCORE.INTRA.DIHEDRAL.0>
12.2703

>  <SCORE.INTRA.POLAR>
0

>  <SCORE.INTRA.POLAR.0>
0

>  <SCORE.INTRA.REPUL>
0.0283635

>  <SCORE.INTRA.REPUL.0>
0

>  <SCORE.INTRA.SOLV>
0.863928

>  <SCORE.INTRA.SOLV.lig_0>
-64.3214

>  <SCORE.INTRA.VDW>
-2.64018

>  <SCORE.INTRA.VDW.0>
-1.67301

>  <SCORE.INTRA.norm>
-0.119497

>  <SCORE.RESTR>
0

>  <SCORE.RESTR.CAVITY>
0

>  <SCORE.RESTR.norm>
0

>  <SCORE.SYSTEM>
0

>  <SCORE.SYSTEM.CONST>
0

>  <SCORE.SYSTEM.DIHEDRAL>
0

>  <SCORE.SYSTEM.SOLV>
0

>  <SCORE.SYSTEM.norm>
0

>  <SCORE.heavy>
34

>  <SCORE.norm>
-0.363447

>  <RMSD>
16.975

$$$$
ligand
 OpenBabel11021811483D
libRbt.so/2013.1/901 2013/11/27
 34 36  0  0  0  0  0  0  0  0999 V2000
    4.5997   46.9042   59.0511 N   0  0  0  0  0  0  0  0  0  0  0  0
    3.3005   47.3122   59.6345 C   0  0  1  0  0  0  0  0  0  0  0  0
    5.6249   46.4290   59.7703 C   0  0  0  0  0  0  0  0  0  0  0  0
    5.6044   46.2795   60.9952 O   0  0  0  0  0  0  0  0  0  0  0  0
    3.5396   44.7651   55.6245 N   0  0  0  0  0  0  0  0  0  0  0  0
    2.6714   46.1258   60.3841 C   0  0  0  0  0  0  0  0  0  0  0  0
    2.2045   45.0298   59.4167 C   0  0  0  0  0  0  0  0  0  0  0  0
    1.0421   45.5200   58.5398 C   0  0  0  0  0  0  0  0  0  0  0  0
    1.3369   46.0484   57.4421 O   0  0  0  0  0  0  0  0  0  0  0  0
   -0.1164   45.3531   58.9856 O   0  0  0  0  0  0  0  0  0  0  0  0
    5.5446   44.0147   54.7441 N   0  0  0  0  0  0  0  0  0  0  0  0
    3.1459   49.6493   60.1462 O   0  0  0  0  0  0  0  0  0  0  0  0
    4.8209   44.9799   55.3373 C   0  0  0  0  0  0  0  0  0  0  0  0
    3.8659   48.2679   61.7469 O   0  0  0  0  0  0  0  0  0  0  0  0
    5.4010   46.2136   55.6585 N   0  0  0  0  0  0  0  0  0  0  0  0
    6.7401   46.4246   55.3586 C   0  0  0  0  0  0  0  0  0  0  0  0
    7.4673   45.3955   54.7751 C   0  0  0  0  0  0  0  0  0  0  0  0
    7.2740   47.4947   55.6399 O   0  0  0  0  0  0  0  0  0  0  0  0
    9.1814   46.7865   53.9818 C   0  0  0  0  0  0  0  0  0  0  0  0
    8.7913   45.5844   54.3947 N   0  0  0  0  0  0  0  0  0  0  0  0
    9.3170   47.0204   52.7829 O   0  0  0  0  0  0  0  0  0  0  0  0
    9.6798   44.4244   54.2634 C   0  0  2  0  0  0  0  0  0  0  0  0
    8.9789   43.3623   53.4126 C   0  0  0  0  0  0  0  0  0  0  0  0
    6.8396   44.2014   54.4472 C   0  0  0  0  0  0  0  0  0  0  0  0
    7.5633   43.1820   53.8189 N   0  0  0  0  0  0  0  0  0  0  0  0
   10.0249   43.8538   55.6432 C   0  0  0  0  0  0  0  0  0  0  0  0
   10.1057   44.9442   56.6229 N   0  0  0  0  0  0  0  0  0  0  0  0
    6.8559   46.0215   58.9406 C   0  0  0  0  0  0  0  0  0  0  0  0
    6.9578   44.7383   58.4089 C   0  0  0  0  0  0  0  0  0  0  0  0
    8.0458   44.3882   57.6118 C   0  0  0  0  0  0  0  0  0  0  0  0
    9.0660   45.3034   57.3751 C   0  0  0  0  0  0  0  0  0  0  0  0
    8.9703   46.5825   57.9127 C   0  0  0  0  0  0  0  0  0  0  0  0
    7.8647   46.9449   58.6809 C   0  0  0  0  0  0  0  0  0  0  0  0
    3.4480   48.5148   60.5893 C   0  0  0  0  0  0  0  0  0  0  0  0
  1  3  1  0  0  0  0
  2  1  1  1  0  0  0
  2  6  1  0  0  0  0
  2 34  1  0  0  0  0
  3  4  2  0  0  0  0
  3 28  1  0  0  0  0
  5 13  1  0  0  0  0
  6  7  1  0  0  0  0
  7  8  1  0  0  0  0
  8  9  1  0  0  0  0
  8 10  1  0  0  0  0
 11 13  2  0  0  0  0
 11 24  1  0  0  0  0
 12 34  1  0  0  0  0
 13 15  1  0  0  0  0
 14 34  1  0  0  0  0
 15 16  1  0  0  0  0
 16 17  1  0  0  0  0
 16 18  2  0  0  0  0
 17 20  1  0  0  0  0
 17 24  2  0  0  0  0
 19 21  1  0  0  0  0
 19 20  1  0  0  0  0
 20 22  1  0  0  0  0
 22 23  1  0  0  0  0
 22 26  1  1  0  0  0
 23 25  1  0  0  0  0
 24 25  1  0  0  0  0
 26 27  1  0  0  0  0
 27 31  1  0  0  0  0
 28 29  2  0  0  0  0
 28 33  1  0  0  0  0
 29 30  1  0  0  0  0
 30 31  2  0  0  0  0
 31 32  1  0  0  0  0
 32 33  2  0  0  0  0
M  END
>  <CHROM.1>
-58.27307989,-69.76570091,100.34149280,-66.31340172,90.97772999,-101.54802028
-33.95821608,93.77572490,23.06487163,-87.51961406,5.97660858,45.86641611
57.13400181,-2.41965460,-0.12798636,-2.05115227

>  <Name>
ligand

>  <RI>
0

>  <Rbt.Current_Directory>
/home/itssahil/PROJECTS/Mol_Feturizer/New_Systems/rnas/3SUH

>  <Rbt.Executable>
rbdock ($Id: //depot/dev/client3/rdock/2013.1/src/exe/rbdock.cxx#4 $)

>  <Rbt.Library>
libRbt.so (2013.1, Build901 2013/11/27)

>  <Rbt.Parameter_File>
/export/apps/rDock/src/rDock_2013.1_src/data/scripts/dock_solv.prm

>  <Rbt.Receptor>
prm/blind_docking_100.prm

>  <SCORE>
-10.4505

>  <SCORE.INTER>
-6.25309

>  <SCORE.INTER.CONST>
1

>  <SCORE.INTER.POLAR>
0

>  <SCORE.INTER.ROT>
10

>  <SCORE.INTER.SOLV>
9.09838

>  <SCORE.INTER.VDW>
-17.4682

>  <SCORE.INTER.norm>
-0.183915

>  <SCORE.INTRA>
-4.21375

>  <SCORE.INTRA.DIHEDRAL>
-2.7468

>  <SCORE.INTRA.DIHEDRAL.0>
12.2703

>  <SCORE.INTRA.POLAR>
0

>  <SCORE.INTRA.POLAR.0>
0

>  <SCORE.INTRA.REPUL>
0

>  <SCORE.INTRA.REPUL.0>
0

>  <SCORE.INTRA.SOLV>
3.23712

>  <SCORE.INTRA.SOLV.lig_0>
-64.3214

>  <SCORE.INTRA.VDW>
-4.45891

>  <SCORE.INTRA.VDW.0>
-1.67301

>  <SCORE.INTRA.norm>
-0.123934

>  <SCORE.RESTR>
0.0163076

>  <SCORE.RESTR.CAVITY>
0.0163076

>  <SCORE.RESTR.norm>
0.000479636

>  <SCORE.SYSTEM>
0

>  <SCORE.SYSTEM.CONST>
0

>  <SCORE.SYSTEM.DIHEDRAL>
0

>  <SCORE.SYSTEM.SOLV>
0

>  <SCORE.SYSTEM.norm>
0

>  <SCORE.heavy>
34

>  <SCORE.norm>
-0.307369

>  <RMSD>
17.035

$$$$
ligand
 OpenBabel11021811483D
libRbt.so/2013.1/901 2013/11/27
 34 36  0  0  0  0  0  0  0  0999 V2000
    2.7035   45.2833   57.3314 N   0  0  0  0  0  0  0  0  0  0  0  0
    1.3947   44.9557   57.9433 C   0  0  1  0  0  0  0  0  0  0  0  0
    2.9517   45.2138   56.0170 C   0  0  0  0  0  0  0  0  0  0  0  0
    2.1225   44.8689   55.1704 O   0  0  0  0  0  0  0  0  0  0  0  0
    6.1055   44.9240   60.6858 N   0  0  0  0  0  0  0  0  0  0  0  0
    1.6120   44.3141   59.3240 C   0  0  0  0  0  0  0  0  0  0  0  0
    2.3831   45.2485   60.2661 C   0  0  0  0  0  0  0  0  0  0  0  0
    1.4347   46.2199   60.9852 C   0  0  0  0  0  0  0  0  0  0  0  0
    1.9323   47.2801   61.4317 O   0  0  0  0  0  0  0  0  0  0  0  0
    0.2317   45.8818   61.0703 O   0  0  0  0  0  0  0  0  0  0  0  0
    7.9709   45.5425   59.4626 N   0  0  0  0  0  0  0  0  0  0  0  0
    1.0491   47.3252   58.0615 O   0  0  0  0  0  0  0  0  0  0  0  0
    6.7920   44.9016   59.5462 C   0  0  0  0  0  0  0  0  0  0  0  0
   -0.7380   45.9935   58.2079 O   0  0  0  0  0  0  0  0  0  0  0  0
    6.2751   44.2082   58.4446 N   0  0  0  0  0  0  0  0  0  0  0  0
    6.9978   44.1959   57.2592 C   0  0  0  0  0  0  0  0  0  0  0  0
    8.1963   44.8946   57.1967 C   0  0  0  0  0  0  0  0  0  0  0  0
    6.5603   43.6032   56.2762 O   0  0  0  0  0  0  0  0  0  0  0  0
    8.9971   43.7502   55.3122 C   0  0  0  0  0  0  0  0  0  0  0  0
    8.9868   44.8539   56.0536 N   0  0  0  0  0  0  0  0  0  0  0  0
    8.9886   43.8230   54.0854 O   0  0  0  0  0  0  0  0  0  0  0  0
    9.9403   45.9380   55.7932 C   0  0  2  0  0  0  0  0  0  0  0  0
   10.7654   46.1813   57.0594 C   0  0  0  0  0  0  0  0  0  0  0  0
    8.6824   45.5410   58.3251 C   0  0  0  0  0  0  0  0  0  0  0  0
    9.9117   46.2072   58.2726 N   0  0  0  0  0  0  0  0  0  0  0  0
    9.2005   47.2180   55.3896 C   0  0  0  0  0  0  0  0  0  0  0  0
    8.1347   46.8924   54.4339 N   0  0  0  0  0  0  0  0  0  0  0  0
    4.3695   45.6521   55.6079 C   0  0  0  0  0  0  0  0  0  0  0  0
    4.9981   45.0765   54.5063 C   0  0  0  0  0  0  0  0  0  0  0  0
    6.2586   45.5135   54.1041 C   0  0  0  0  0  0  0  0  0  0  0  0
    6.9233   46.4992   54.8258 C   0  0  0  0  0  0  0  0  0  0  0  0
    6.3008   47.0688   55.9315 C   0  0  0  0  0  0  0  0  0  0  0  0
    5.0248   46.6573   56.3136 C   0  0  0  0  0  0  0  0  0  0  0  0
    0.4936   46.2002   58.0813 C   0  0  0  0  0  0  0  0  0  0  0  0
  1  3  1  0  0  0  0
  2  1  1  1  0  0  0
  2  6  1  0  0  0  0
  2 34  1  0  0  0  0
  3  4  2  0  0  0  0
  3 28  1  0  0  0  0
  5 13  1  0  0  0  0
  6  7  1  0  0  0  0
  7  8  1  0  0  0  0
  8  9  1  0  0  0  0
  8 10  1  0  0  0  0
 11 13  2  0  0  0  0
 11 24  1  0  0  0  0
 12 34  1  0  0  0  0
 13 15  1  0  0  0  0
 14 34  1  0  0  0  0
 15 16  1  0  0  0  0
 16 17  1  0  0  0  0
 16 18  2  0  0  0  0
 17 20  1  0  0  0  0
 17 24  2  0  0  0  0
 19 21  1  0  0  0  0
 19 20  1  0  0  0  0
 20 22  1  0  0  0  0
 22 23  1  0  0  0  0
 22 26  1  1  0  0  0
 23 25  1  0  0  0  0
 24 25  1  0  0  0  0
 26 27  1  0  0  0  0
 27 31  1  0  0  0  0
 28 29  2  0  0  0  0
 28 33  1  0  0  0  0
 29 30  1  0  0  0  0
 30 31  2  0  0  0  0
 31 32  1  0  0  0  0
 32 33  2  0  0  0  0
M  END
>  <CHROM.1>
145.59866064,59.08950136,-20.54408327,85.75968446,-157.80077723,138.98862740
-43.66213700,85.32931321,-141.91927536,148.76989678,5.33701317,45.52026116
57.35990366,2.75264870,-0.03884646,1.52077414

>  <Name>
ligand

>  <RI>
0

>  <Rbt.Current_Directory>
/home/itssahil/PROJECTS/Mol_Feturizer/New_Systems/rnas/3SUH

>  <Rbt.Executable>
rbdock ($Id: //depot/dev/client3/rdock/2013.1/src/exe/rbdock.cxx#4 $)

>  <Rbt.Library>
libRbt.so (2013.1, Build901 2013/11/27)

>  <Rbt.Parameter_File>
/export/apps/rDock/src/rDock_2013.1_src/data/scripts/dock_solv.prm

>  <Rbt.Receptor>
prm/blind_docking_100.prm

>  <SCORE>
-12.3402

>  <SCORE.INTER>
-8.24161

>  <SCORE.INTER.CONST>
1

>  <SCORE.INTER.POLAR>
0

>  <SCORE.INTER.ROT>
10

>  <SCORE.INTER.SOLV>
14.7298

>  <SCORE.INTER.VDW>
-20.671

>  <SCORE.INTER.norm>
-0.2424

>  <SCORE.INTRA>
-4.09863

>  <SCORE.INTRA.DIHEDRAL>
-1.65307

>  <SCORE.INTRA.DIHEDRAL.0>
12.2703

>  <SCORE.INTRA.POLAR>
0

>  <SCORE.INTRA.POLAR.0>
0

>  <SCORE.INTRA.REPUL>
0

>  <SCORE.INTRA.REPUL.0>
0

>  <SCORE.INTRA.SOLV>
2.58983

>  <SCORE.INTRA.SOLV.lig_0>
-64.3214

>  <SCORE.INTRA.VDW>
-4.56701

>  <SCORE.INTRA.VDW.0>
-1.67301

>  <SCORE.INTRA.norm>
-0.120548

>  <SCORE.RESTR>
0

>  <SCORE.RESTR.CAVITY>
0

>  <SCORE.RESTR.norm>
0

>  <SCORE.SYSTEM>
0

>  <SCORE.SYSTEM.CONST>
0

>  <SCORE.SYSTEM.DIHEDRAL>
0

>  <SCORE.SYSTEM.SOLV>
0

>  <SCORE.SYSTEM.norm>
0

>  <SCORE.heavy>
34

>  <SCORE.norm>
-0.362948

>  <RMSD>
17.068

$$$$
ligand
 OpenBabel11021811483D
libRbt.so/2013.1/901 2013/11/27
 34 36  0  0  0  0  0  0  0  0999 V2000
    3.0628   45.0108   58.1244 N   0  0  0  0  0  0  0  0  0  0  0  0
    1.8800   44.5744   58.9024 C   0  0  1  0  0  0  0  0  0  0  0  0
    2.9896   45.6843   56.9689 C   0  0  0  0  0  0  0  0  0  0  0  0
    1.9333   46.0148   56.4227 O   0  0  0  0  0  0  0  0  0  0  0  0
    7.2746   44.8109   59.7192 N   0  0  0  0  0  0  0  0  0  0  0  0
    1.8963   43.0447   59.0596 C   0  0  0  0  0  0  0  0  0  0  0  0
    0.5806   42.5237   59.6535 C   0  0  0  0  0  0  0  0  0  0  0  0
    0.5234   40.9889   59.6180 C   0  0  0  0  0  0  0  0  0  0  0  0
   -0.1486   40.4625   58.7002 O   0  0  0  0  0  0  0  0  0  0  0  0
    1.1554   40.3753   60.5084 O   0  0  0  0  0  0  0  0  0  0  0  0
    8.6526   45.1847   57.8972 N   0  0  0  0  0  0  0  0  0  0  0  0
    2.9094   45.6022   60.8081 O   0  0  0  0  0  0  0  0  0  0  0  0
    7.5301   44.6630   58.4218 C   0  0  0  0  0  0  0  0  0  0  0  0
    0.6876   45.3733   60.8090 O   0  0  0  0  0  0  0  0  0  0  0  0
    6.6224   43.9633   57.6167 N   0  0  0  0  0  0  0  0  0  0  0  0
    6.8971   43.8195   56.2634 C   0  0  0  0  0  0  0  0  0  0  0  0
    8.0493   44.3981   55.7474 C   0  0  0  0  0  0  0  0  0  0  0  0
    6.1113   43.2188   55.5349 O   0  0  0  0  0  0  0  0  0  0  0  0
    8.0802   43.0841   53.8045 C   0  0  0  0  0  0  0  0  0  0  0  0
    8.3999   44.2220   54.4135 N   0  0  0  0  0  0  0  0  0  0  0  0
    7.3694   43.0918   52.8020 O   0  0  0  0  0  0  0  0  0  0  0  0
    9.2823   45.1961   53.7617 C   0  0  2  0  0  0  0  0  0  0  0  0
   10.5032   45.4283   54.6555 C   0  0  0  0  0  0  0  0  0  0  0  0
    8.9338   45.0554   56.5918 C   0  0  0  0  0  0  0  0  0  0  0  0
   10.1160   45.5993   56.0776 N   0  0  0  0  0  0  0  0  0  0  0  0
    8.5416   46.5166   53.5244 C   0  0  0  0  0  0  0  0  0  0  0  0
    8.0536   47.0464   54.8036 N   0  0  0  0  0  0  0  0  0  0  0  0
    4.3514   46.0765   56.3677 C   0  0  0  0  0  0  0  0  0  0  0  0
    5.2785   46.7917   57.1220 C   0  0  0  0  0  0  0  0  0  0  0  0
    6.5320   47.0976   56.5959 C   0  0  0  0  0  0  0  0  0  0  0  0
    6.8553   46.7309   55.2938 C   0  0  0  0  0  0  0  0  0  0  0  0
    5.9274   46.0245   54.5360 C   0  0  0  0  0  0  0  0  0  0  0  0
    4.6863   45.6869   55.0740 C   0  0  0  0  0  0  0  0  0  0  0  0
    1.8238   45.2420   60.2920 C   0  0  0  0  0  0  0  0  0  0  0  0
  1  3  1  0  0  0  0
  2  1  1  1  0  0  0
  2  6  1  0  0  0  0
  2 34  1  0  0  0  0
  3  4  2  0  0  0  0
  3 28  1  0  0  0  0
  5 13  1  0  0  0  0
  6  7  1  0  0  0  0
  7  8  1  0  0  0  0
  8  9  1  0  0  0  0
  8 10  1  0  0  0  0
 11 13  2  0  0  0  0
 11 24  1  0  0  0  0
 12 34  1  0  0  0  0
 13 15  1  0  0  0  0
 14 34  1  0  0  0  0
 15 16  1  0  0  0  0
 16 17  1  0  0  0  0
 16 18  2  0  0  0  0
 17 20  1  0  0  0  0
 17 24  2  0  0  0  0
 19 21  1  0  0  0  0
 19 20  1  0  0  0  0
 20 22  1  0  0  0  0
 22 23  1  0  0  0  0
 22 26  1  1  0  0  0
 23 25  1  0  0  0  0
 24 25  1  0  0  0  0
 26 27  1  0  0  0  0
 27 31  1  0  0  0  0
 28 29  2  0  0  0  0
 28 33  1  0  0  0  0
 29 30  1  0  0  0  0
 30 31  2  0  0  0  0
 31 32  1  0  0  0  0
 32 33  2  0  0  0  0
M  END
>  <CHROM.1>
120.82850892,-170.59043426,-26.89896443,171.74054093,-100.66923443,121.11067709
58.15960865,-89.56631519,170.28217762,-54.28041127,5.31409745,44.59415449
56.99446012,-3.12190469,-0.61309939,-2.68526726

>  <Name>
ligand

>  <RI>
0

>  <Rbt.Current_Directory>
/home/itssahil/PROJECTS/Mol_Feturizer/New_Systems/rnas/3SUH

>  <Rbt.Executable>
rbdock ($Id: //depot/dev/client3/rdock/2013.1/src/exe/rbdock.cxx#4 $)

>  <Rbt.Library>
libRbt.so (2013.1, Build901 2013/11/27)

>  <Rbt.Parameter_File>
/export/apps/rDock/src/rDock_2013.1_src/data/scripts/dock_solv.prm

>  <Rbt.Receptor>
prm/blind_docking_100.prm

>  <SCORE>
-10.8016

>  <SCORE.INTER>
-7.4638

>  <SCORE.INTER.CONST>
1

>  <SCORE.INTER.POLAR>
0

>  <SCORE.INTER.ROT>
10

>  <SCORE.INTER.SOLV>
13.2503

>  <SCORE.INTER.VDW>
-19.6593

>  <SCORE.INTER.norm>
-0.219523

>  <SCORE.INTRA>
-3.40832

>  <SCORE.INTRA.DIHEDRAL>
-3.39857

>  <SCORE.INTRA.DIHEDRAL.0>
12.2703

>  <SCORE.INTRA.POLAR>
0

>  <SCORE.INTRA.POLAR.0>
0

>  <SCORE.INTRA.REPUL>
0

>  <SCORE.INTRA.REPUL.0>
0

>  <SCORE.INTRA.SOLV>
2.60491

>  <SCORE.INTRA.SOLV.lig_0>
-64.3214

>  <SCORE.INTRA.VDW>
-3.01149

>  <SCORE.INTRA.VDW.0>
-1.67301

>  <SCORE.INTRA.norm>
-0.100245

>  <SCORE.RESTR>
0.0705546

>  <SCORE.RESTR.CAVITY>
0.0705546

>  <SCORE.RESTR.norm>
0.00207514

>  <SCORE.SYSTEM>
0

>  <SCORE.SYSTEM.CONST>
0

>  <SCORE.SYSTEM.DIHEDRAL>
0

>  <SCORE.SYSTEM.SOLV>
0

>  <SCORE.SYSTEM.norm>
0

>  <SCORE.heavy>
34

>  <SCORE.norm>
-0.317693

>  <RMSD>
17.087

$$$$
ligand
 OpenBabel11021811483D
libRbt.so/2013.1/901 2013/11/27
 34 36  0  0  0  0  0  0  0  0999 V2000
    3.9403   45.6924   59.5263 N   0  0  0  0  0  0  0  0  0  0  0  0
    2.6523   45.8934   60.2304 C   0  0  1  0  0  0  0  0  0  0  0  0
    4.6054   46.6677   58.8935 C   0  0  0  0  0  0  0  0  0  0  0  0
    4.2219   47.8387   58.8238 O   0  0  0  0  0  0  0  0  0  0  0  0
    4.7637   39.8846   54.6223 N   0  0  0  0  0  0  0  0  0  0  0  0
    1.6046   44.9057   59.6900 C   0  0  0  0  0  0  0  0  0  0  0  0
    1.2020   45.2422   58.2478 C   0  0  0  0  0  0  0  0  0  0  0  0
    2.3467   44.9456   57.2670 C   0  0  0  0  0  0  0  0  0  0  0  0
    2.6815   45.8649   56.4836 O   0  0  0  0  0  0  0  0  0  0  0  0
    2.8638   43.8062   57.3241 O   0  0  0  0  0  0  0  0  0  0  0  0
    6.7261   40.9901   54.0882 N   0  0  0  0  0  0  0  0  0  0  0  0
    1.7487   45.5182   62.4191 O   0  0  0  0  0  0  0  0  0  0  0  0
    5.4806   41.0052   54.5940 C   0  0  0  0  0  0  0  0  0  0  0  0
    3.9561   45.7999   62.2271 O   0  0  0  0  0  0  0  0  0  0  0  0
    4.9260   42.1902   55.0939 N   0  0  0  0  0  0  0  0  0  0  0  0
    5.6851   43.3523   55.0637 C   0  0  0  0  0  0  0  0  0  0  0  0
    6.9796   43.2953   54.5641 C   0  0  0  0  0  0  0  0  0  0  0  0
    5.2243   44.4018   55.5056 O   0  0  0  0  0  0  0  0  0  0  0  0
    7.1528   45.6050   54.1934 C   0  0  0  0  0  0  0  0  0  0  0  0
    7.7516   44.4462   54.4509 N   0  0  0  0  0  0  0  0  0  0  0  0
    7.7424   46.6669   54.3812 O   0  0  0  0  0  0  0  0  0  0  0  0
    9.2142   44.3369   54.4168 C   0  0  2  0  0  0  0  0  0  0  0  0
    9.6037   43.2746   53.3857 C   0  0  0  0  0  0  0  0  0  0  0  0
    7.4737   42.1036   54.0513 C   0  0  0  0  0  0  0  0  0  0  0  0
    8.7623   42.0587   53.5078 N   0  0  0  0  0  0  0  0  0  0  0  0
    9.7563   43.9566   55.7988 C   0  0  0  0  0  0  0  0  0  0  0  0
    9.6026   45.0901   56.7191 N   0  0  0  0  0  0  0  0  0  0  0  0
    5.9481   46.2335   58.2783 C   0  0  0  0  0  0  0  0  0  0  0  0
    6.8451   47.1830   57.7948 C   0  0  0  0  0  0  0  0  0  0  0  0
    8.0834   46.7922   57.2893 C   0  0  0  0  0  0  0  0  0  0  0  0
    8.4197   45.4444   57.2202 C   0  0  0  0  0  0  0  0  0  0  0  0
    7.5215   44.4942   57.6944 C   0  0  0  0  0  0  0  0  0  0  0  0
    6.2970   44.8867   58.2331 C   0  0  0  0  0  0  0  0  0  0  0  0
    2.7950   45.7208   61.7567 C   0  0  0  0  0  0  0  0  0  0  0  0
  1  3  1  0  0  0  0
  2  1  1  6  0  0  0
  2  6  1  0  0  0  0
  2 34  1  0  0  0  0
  3  4  2  0  0  0  0
  3 28  1  0  0  0  0
  5 13  1  0  0  0  0
  6  7  1  0  0  0  0
  7  8  1  0  0  0  0
  8  9  1  0  0  0  0
  8 10  1  0  0  0  0
 11 13  2  0  0  0  0
 11 24  1  0  0  0  0
 12 34  1  0  0  0  0
 13 15  1  0  0  0  0
 14 34  1  0  0  0  0
 15 16  1  0  0  0  0
 16 17  1  0  0  0  0
 16 18  2  0  0  0  0
 17 20  1  0  0  0  0
 17 24  2  0  0  0  0
 19 21  1  0  0  0  0
 19 20  1  0  0  0  0
 20 22  1  0  0  0  0
 22 23  1  0  0  0  0
 22 26  1  1  0  0  0
 23 25  1  0  0  0  0
 24 25  1  0  0  0  0
 26 27  1  0  0  0  0
 27 31  1  0  0  0  0
 28 29  2  0  0  0  0
 28 33  1  0  0  0  0
 29 30  1  0  0  0  0
 30 31  2  0  0  0  0
 31 32  1  0  0  0  0
 32 33  2  0  0  0  0
M  END
>  <CHROM.1>
125.29137909,-69.02215795,-161.74057212,70.26784983,-128.19372380,163.58610428
-70.50396064,73.91274706,-137.43275182,-168.97172530,5.65429275,44.59633214
56.90016693,-2.34067561,-0.42404134,-2.36685236

>  <Name>
ligand

>  <RI>
0

>  <Rbt.Current_Directory>
/home/itssahil/PROJECTS/Mol_Feturizer/New_Systems/rnas/3SUH

>  <Rbt.Executable>
rbdock ($Id: //depot/dev/client3/rdock/2013.1/src/exe/rbdock.cxx#4 $)

>  <Rbt.Library>
libRbt.so (2013.1, Build901 2013/11/27)

>  <Rbt.Parameter_File>
/export/apps/rDock/src/rDock_2013.1_src/data/scripts/dock_solv.prm

>  <Rbt.Receptor>
prm/blind_docking_100.prm

>  <SCORE>
-14.5317

>  <SCORE.INTER>
-9.07559

>  <SCORE.INTER.CONST>
1

>  <SCORE.INTER.POLAR>
0

>  <SCORE.INTER.ROT>
10

>  <SCORE.INTER.SOLV>
8.07304

>  <SCORE.INTER.VDW>
-19.0081

>  <SCORE.INTER.norm>
-0.266929

>  <SCORE.INTRA>
-5.45815

>  <SCORE.INTRA.DIHEDRAL>
-3.61326

>  <SCORE.INTRA.DIHEDRAL.0>
12.2703

>  <SCORE.INTRA.POLAR>
0

>  <SCORE.INTRA.POLAR.0>
0

>  <SCORE.INTRA.REPUL>
0

>  <SCORE.INTRA.REPUL.0>
0

>  <SCORE.INTRA.SOLV>
1.54196

>  <SCORE.INTRA.SOLV.lig_0>
-64.3214

>  <SCORE.INTRA.VDW>
-4.4225

>  <SCORE.INTRA.VDW.0>
-1.67301

>  <SCORE.INTRA.norm>
-0.160534

>  <SCORE.RESTR>
0.00202493

>  <SCORE.RESTR.CAVITY>
0.00202493

>  <SCORE.RESTR.norm>
5.95568e-05

>  <SCORE.SYSTEM>
0

>  <SCORE.SYSTEM.CONST>
0

>  <SCORE.SYSTEM.DIHEDRAL>
0

>  <SCORE.SYSTEM.SOLV>
0

>  <SCORE.SYSTEM.norm>
0

>  <SCORE.heavy>
34

>  <SCORE.norm>
-0.427403

>  <RMSD>
17.115

$$$$
ligand
 OpenBabel11021811483D
libRbt.so/2013.1/901 2013/11/27
 34 36  0  0  0  0  0  0  0  0999 V2000
    1.8657   46.3083   58.1913 N   0  0  0  0  0  0  0  0  0  0  0  0
    0.4337   46.0353   58.4552 C   0  0  1  0  0  0  0  0  0  0  0  0
    2.3515   47.5193   57.8888 C   0  0  0  0  0  0  0  0  0  0  0  0
    1.6644   48.5402   57.7942 O   0  0  0  0  0  0  0  0  0  0  0  0
    6.3842   41.5445   53.8688 N   0  0  0  0  0  0  0  0  0  0  0  0
    0.2201   44.5252   58.6533 C   0  0  0  0  0  0  0  0  0  0  0  0
    1.2531   43.9305   59.6201 C   0  0  0  0  0  0  0  0  0  0  0  0
    1.3224   42.4014   59.4886 C   0  0  0  0  0  0  0  0  0  0  0  0
    2.4139   41.9078   59.1198 O   0  0  0  0  0  0  0  0  0  0  0  0
    0.2825   41.7592   59.7623 O   0  0  0  0  0  0  0  0  0  0  0  0
    8.0603   42.6656   55.0056 N   0  0  0  0  0  0  0  0  0  0  0  0
    0.4859   46.5880   60.7875 O   0  0  0  0  0  0  0  0  0  0  0  0
    7.0203   42.6780   54.1537 C   0  0  0  0  0  0  0  0  0  0  0  0
   -1.0441   47.5882   59.5039 O   0  0  0  0  0  0  0  0  0  0  0  0
    6.5961   43.8735   53.5602 N   0  0  0  0  0  0  0  0  0  0  0  0
    7.2643   45.0508   53.8687 C   0  0  0  0  0  0  0  0  0  0  0  0
    8.3139   45.0083   54.7770 C   0  0  0  0  0  0  0  0  0  0  0  0
    6.9044   46.1136   53.3687 O   0  0  0  0  0  0  0  0  0  0  0  0
    9.2369   47.0598   54.1123 C   0  0  0  0  0  0  0  0  0  0  0  0
    9.0554   46.1490   55.0638 N   0  0  0  0  0  0  0  0  0  0  0  0
   10.0461   46.8643   53.2082 O   0  0  0  0  0  0  0  0  0  0  0  0
    9.7873   46.2373   56.3322 C   0  0  2  0  0  0  0  0  0  0  0  0
   10.6018   44.9549   56.5199 C   0  0  0  0  0  0  0  0  0  0  0  0
    8.7173   43.7937   55.3150 C   0  0  0  0  0  0  0  0  0  0  0  0
    9.8035   43.7469   56.1959 N   0  0  0  0  0  0  0  0  0  0  0  0
    8.8142   46.4219   57.5016 C   0  0  0  0  0  0  0  0  0  0  0  0
    7.9909   47.6163   57.2756 N   0  0  0  0  0  0  0  0  0  0  0  0
    3.8794   47.5704   57.7074 C   0  0  0  0  0  0  0  0  0  0  0  0
    4.6977   48.0479   58.7282 C   0  0  0  0  0  0  0  0  0  0  0  0
    6.0837   48.0416   58.5839 C   0  0  0  0  0  0  0  0  0  0  0  0
    6.6642   47.5999   57.3998 C   0  0  0  0  0  0  0  0  0  0  0  0
    5.8480   47.1310   56.3759 C   0  0  0  0  0  0  0  0  0  0  0  0
    4.4630   47.1037   56.5330 C   0  0  0  0  0  0  0  0  0  0  0  0
   -0.0830   46.8025   59.6898 C   0  0  0  0  0  0  0  0  0  0  0  0
  1  3  1  0  0  0  0
  2  1  1  1  0  0  0
  2  6  1  0  0  0  0
  2 34  1  0  0  0  0
  3  4  2  0  0  0  0
  3 28  1  0  0  0  0
  5 13  1  0  0  0  0
  6  7  1  0  0  0  0
  7  8  1  0  0  0  0
  8  9  1  0  0  0  0
  8 10  1  0  0  0  0
 11 13  2  0  0  0  0
 11 24  1  0  0  0  0
 12 34  1  0  0  0  0
 13 15  1  0  0  0  0
 14 34  1  0  0  0  0
 15 16  1  0  0  0  0
 16 17  1  0  0  0  0
 16 18  2  0  0  0  0
 17 20  1  0  0  0  0
 17 24  2  0  0  0  0
 19 21  1  0  0  0  0
 19 20  1  0  0  0  0
 20 22  1  0  0  0  0
 22 23  1  0  0  0  0
 22 26  1  1  0  0  0
 23 25  1  0  0  0  0
 24 25  1  0  0  0  0
 26 27  1  0  0  0  0
 27 31  1  0  0  0  0
 28 29  2  0  0  0  0
 28 33  1  0  0  0  0
 29 30  1  0  0  0  0
 30 31  2  0  0  0  0
 31 32  1  0  0  0  0
 32 33  2  0  0  0  0
M  END
>  <CHROM.1>
175.33314387,47.47382476,-58.90482933,-162.52685607,117.90219578,-76.30780069
-56.89372496,130.97030179,97.74580747,-100.73271256,5.15581979,45.53568342
56.91133541,-3.02933471,-0.48338483,-2.95627207

>  <Name>
ligand

>  <RI>
0

>  <Rbt.Current_Directory>
/home/itssahil/PROJECTS/Mol_Feturizer/New_Systems/rnas/3SUH

>  <Rbt.Executable>
rbdock ($Id: //depot/dev/client3/rdock/2013.1/src/exe/rbdock.cxx#4 $)

>  <Rbt.Library>
libRbt.so (2013.1, Build901 2013/11/27)

>  <Rbt.Parameter_File>
/export/apps/rDock/src/rDock_2013.1_src/data/scripts/dock_solv.prm

>  <Rbt.Receptor>
prm/blind_docking_80.prm

>  <SCORE>
-14.0932

>  <SCORE.INTER>
-10.0355

>  <SCORE.INTER.CONST>
1

>  <SCORE.INTER.POLAR>
0

>  <SCORE.INTER.ROT>
10

>  <SCORE.INTER.SOLV>
14.5081

>  <SCORE.INTER.VDW>
-21.7931

>  <SCORE.INTER.norm>
-0.295162

>  <SCORE.INTRA>
-4.08878

>  <SCORE.INTRA.DIHEDRAL>
-3.20893

>  <SCORE.INTRA.DIHEDRAL.0>
12.2703

>  <SCORE.INTRA.POLAR>
0

>  <SCORE.INTRA.POLAR.0>
0

>  <SCORE.INTRA.REPUL>
0

>  <SCORE.INTRA.REPUL.0>
0

>  <SCORE.INTRA.SOLV>
-0.210212

>  <SCORE.INTRA.SOLV.lig_0>
-64.3214

>  <SCORE.INTRA.VDW>
-2.37921

>  <SCORE.INTRA.VDW.0>
-1.67301

>  <SCORE.INTRA.norm>
-0.120258

>  <SCORE.RESTR>
0.0311181

>  <SCORE.RESTR.CAVITY>
0.0311181

>  <SCORE.RESTR.norm>
0.000915239

>  <SCORE.SYSTEM>
0

>  <SCORE.SYSTEM.CONST>
0

>  <SCORE.SYSTEM.DIHEDRAL>
0

>  <SCORE.SYSTEM.SOLV>
0

>  <SCORE.SYSTEM.norm>
0

>  <SCORE.heavy>
34

>  <SCORE.norm>
-0.414505

>  <RMSD>
17.169

$$$$
ligand
 OpenBabel11021811483D
libRbt.so/2013.1/901 2013/11/27
 34 36  0  0  0  0  0  0  0  0999 V2000
    8.4993   45.7119   58.4919 N   0  0  0  0  0  0  0  0  0  0  0  0
    9.8385   45.5860   57.8711 C   0  0  1  0  0  0  0  0  0  0  0  0
    8.0340   44.8857   59.4379 C   0  0  0  0  0  0  0  0  0  0  0  0
    8.6645   43.9289   59.8965 O   0  0  0  0  0  0  0  0  0  0  0  0
    3.7153   44.9779   54.7196 N   0  0  0  0  0  0  0  0  0  0  0  0
    9.7061   44.9659   56.4700 C   0  0  0  0  0  0  0  0  0  0  0  0
    9.3936   43.4651   56.5436 C   0  0  0  0  0  0  0  0  0  0  0  0
    9.1590   42.8765   55.1441 C   0  0  0  0  0  0  0  0  0  0  0  0
    9.9931   43.1661   54.2545 O   0  0  0  0  0  0  0  0  0  0  0  0
    8.1516   42.1473   54.9952 O   0  0  0  0  0  0  0  0  0  0  0  0
    2.2941   45.9844   56.2446 N   0  0  0  0  0  0  0  0  0  0  0  0
   11.7157   47.0259   58.2594 O   0  0  0  0  0  0  0  0  0  0  0  0
    3.1072   44.9697   55.9031 C   0  0  0  0  0  0  0  0  0  0  0  0
    9.9339   47.8792   57.2175 O   0  0  0  0  0  0  0  0  0  0  0  0
    3.3233   43.8998   56.7808 N   0  0  0  0  0  0  0  0  0  0  0  0
    2.6874   43.9044   58.0150 C   0  0  0  0  0  0  0  0  0  0  0  0
    1.8795   44.9832   58.3495 C   0  0  0  0  0  0  0  0  0  0  0  0
    2.8692   42.9823   58.8060 O   0  0  0  0  0  0  0  0  0  0  0  0
    0.7280   43.8510   60.0507 C   0  0  0  0  0  0  0  0  0  0  0  0
    1.1690   44.9986   59.5446 N   0  0  0  0  0  0  0  0  0  0  0  0
    0.0561   43.0841   59.3645 O   0  0  0  0  0  0  0  0  0  0  0  0
    0.7466   46.2804   60.1198 C   0  0  2  0  0  0  0  0  0  0  0  0
    0.0617   47.1069   59.0284 C   0  0  0  0  0  0  0  0  0  0  0  0
    1.6716   46.0051   57.4330 C   0  0  0  0  0  0  0  0  0  0  0  0
    0.8221   47.0693   57.7549 N   0  0  0  0  0  0  0  0  0  0  0  0
    1.9533   47.0408   60.6804 C   0  0  0  0  0  0  0  0  0  0  0  0
    2.8448   46.1069   61.3792 N   0  0  0  0  0  0  0  0  0  0  0  0
    6.6350   45.2440   59.9709 C   0  0  0  0  0  0  0  0  0  0  0  0
    5.6096   45.5871   59.0929 C   0  0  0  0  0  0  0  0  0  0  0  0
    4.3295   45.8569   59.5727 C   0  0  0  0  0  0  0  0  0  0  0  0
    4.0720   45.8307   60.9392 C   0  0  0  0  0  0  0  0  0  0  0  0
    5.0970   45.4969   61.8181 C   0  0  0  0  0  0  0  0  0  0  0  0
    6.3692   45.1920   61.3363 C   0  0  0  0  0  0  0  0  0  0  0  0
   10.5610   46.9456   57.7748 C   0  0  0  0  0  0  0  0  0  0  0  0
  1  3  1  0  0  0  0
  2  1  1  6  0  0  0
  2  6  1  0  0  0  0
  2 34  1  0  0  0  0
  3  4  2  0  0  0  0
  3 28  1  0  0  0  0
  5 13  1  0  0  0  0
  6  7  1  0  0  0  0
  7  8  1  0  0  0  0
  8  9  1  0  0  0  0
  8 10  1  0  0  0  0
 11 13  2  0  0  0  0
 11 24  1  0  0  0  0
 12 34  1  0  0  0  0
 13 15  1  0  0  0  0
 14 34  1  0  0  0  0
 15 16  1  0  0  0  0
 16 17  1  0  0  0  0
 16 18  2  0  0  0  0
 17 20  1  0  0  0  0
 17 24  2  0  0  0  0
 19 21  1  0  0  0  0
 19 20  1  0  0  0  0
 20 22  1  0  0  0  0
 22 23  1  0  0  0  0
 22 26  1  6  0  0  0
 23 25  1  0  0  0  0
 24 25  1  0  0  0  0
 26 27  1  0  0  0  0
 27 31  1  0  0  0  0
 28 29  2  0  0  0  0
 28 33  1  0  0  0  0
 29 30  1  0  0  0  0
 30 31  2  0  0  0  0
 31 32  1  0  0  0  0
 32 33  2  0  0  0  0
M  END
>  <CHROM.1>
103.03747988,-73.70239980,126.69928212,175.73980745,47.45661771,-52.83037062
-41.36690219,113.83690298,-31.30236196,45.05184883,5.22347650,45.11602361
58.27660491,-0.23853879,0.07603004,1.10354588

>  <Name>
ligand

>  <RI>
0

>  <Rbt.Current_Directory>
/home/itssahil/PROJECTS/Mol_Feturizer/New_Systems/rnas/3SUH

>  <Rbt.Executable>
rbdock ($Id: //depot/dev/client3/rdock/2013.1/src/exe/rbdock.cxx#4 $)

>  <Rbt.Library>
libRbt.so (2013.1, Build901 2013/11/27)

>  <Rbt.Parameter_File>
/export/apps/rDock/src/rDock_2013.1_src/data/scripts/dock_solv.prm

>  <Rbt.Receptor>
prm/blind_docking_80.prm

>  <SCORE>
-14.0806

>  <SCORE.INTER>
-11.0192

>  <SCORE.INTER.CONST>
1

>  <SCORE.INTER.POLAR>
0

>  <SCORE.INTER.ROT>
10

>  <SCORE.INTER.SOLV>
19.0804

>  <SCORE.INTER.VDW>
-23.9729

>  <SCORE.INTER.norm>
-0.324093

>  <SCORE.INTRA>
-3.06139

>  <SCORE.INTRA.DIHEDRAL>
-1.77778

>  <SCORE.INTRA.DIHEDRAL.0>
12.2703

>  <SCORE.INTRA.POLAR>
0

>  <SCORE.INTRA.POLAR.0>
0

>  <SCORE.INTRA.REPUL>
0

>  <SCORE.INTRA.REPUL.0>
0

>  <SCORE.INTRA.SOLV>
0.48973

>  <SCORE.INTRA.SOLV.lig_0>
-64.3214

>  <SCORE.INTRA.VDW>
-2.41736

>  <SCORE.INTRA.VDW.0>
-1.67301

>  <SCORE.INTRA.norm>
-0.0900409

>  <SCORE.RESTR>
0

>  <SCORE.RESTR.CAVITY>
0

>  <SCORE.RESTR.norm>
0

>  <SCORE.SYSTEM>
0

>  <SCORE.SYSTEM.CONST>
0

>  <SCORE.SYSTEM.DIHEDRAL>
0

>  <SCORE.SYSTEM.SOLV>
0

>  <SCORE.SYSTEM.norm>
0

>  <SCORE.heavy>
34

>  <SCORE.norm>
-0.414134

>  <RMSD>
17.351

$$$$
ligand
 OpenBabel11021811483D
libRbt.so/2013.1/901 2013/11/27
 34 36  0  0  0  0  0  0  0  0999 V2000
    2.7629   45.0342   57.1395 N   0  0  0  0  0  0  0  0  0  0  0  0
    1.4555   45.1310   57.8296 C   0  0  1  0  0  0  0  0  0  0  0  0
    2.9088   44.6381   55.8684 C   0  0  0  0  0  0  0  0  0  0  0  0
    1.9752   44.3086   55.1315 O   0  0  0  0  0  0  0  0  0  0  0  0
    5.1535   48.3088   58.6223 N   0  0  0  0  0  0  0  0  0  0  0  0
    1.5932   44.6305   59.2773 C   0  0  0  0  0  0  0  0  0  0  0  0
    1.4236   43.1079   59.3672 C   0  0  0  0  0  0  0  0  0  0  0  0
    2.6034   42.3769   58.7084 C   0  0  0  0  0  0  0  0  0  0  0  0
    2.4161   41.1881   58.3580 O   0  0  0  0  0  0  0  0  0  0  0  0
    3.6663   43.0241   58.5672 O   0  0  0  0  0  0  0  0  0  0  0  0
    7.1718   48.0794   57.5122 N   0  0  0  0  0  0  0  0  0  0  0  0
    1.5995   47.4579   57.2704 O   0  0  0  0  0  0  0  0  0  0  0  0
    6.0822   47.5287   58.0752 C   0  0  0  0  0  0  0  0  0  0  0  0
   -0.2043   46.7537   58.3837 O   0  0  0  0  0  0  0  0  0  0  0  0
    5.9116   46.1387   58.0930 N   0  0  0  0  0  0  0  0  0  0  0  0
    6.8848   45.3349   57.5148 C   0  0  0  0  0  0  0  0  0  0  0  0
    7.9821   45.9371   56.9135 C   0  0  0  0  0  0  0  0  0  0  0  0
    6.7526   44.1136   57.5089 O   0  0  0  0  0  0  0  0  0  0  0  0
    9.3150   44.0073   56.9509 C   0  0  0  0  0  0  0  0  0  0  0  0
    9.0143   45.1713   56.3830 N   0  0  0  0  0  0  0  0  0  0  0  0
   10.4876   43.6721   57.1030 O   0  0  0  0  0  0  0  0  0  0  0  0
    9.8784   45.7408   55.3432 C   0  0  2  0  0  0  0  0  0  0  0  0
   10.3582   47.1196   55.8039 C   0  0  0  0  0  0  0  0  0  0  0  0
    8.1220   47.3179   56.9490 C   0  0  0  0  0  0  0  0  0  0  0  0
    9.2504   47.9200   56.3814 N   0  0  0  0  0  0  0  0  0  0  0  0
    9.1167   45.8610   54.0188 C   0  0  0  0  0  0  0  0  0  0  0  0
    8.2149   44.7133   53.8614 N   0  0  0  0  0  0  0  0  0  0  0  0
    4.3581   44.6662   55.3502 C   0  0  0  0  0  0  0  0  0  0  0  0
    5.0879   43.4866   55.2245 C   0  0  0  0  0  0  0  0  0  0  0  0
    6.3799   43.5073   54.7030 C   0  0  0  0  0  0  0  0  0  0  0  0
    6.9727   44.7131   54.3437 C   0  0  0  0  0  0  0  0  0  0  0  0
    6.2486   45.8930   54.4769 C   0  0  0  0  0  0  0  0  0  0  0  0
    4.9430   45.8693   54.9652 C   0  0  0  0  0  0  0  0  0  0  0  0
    0.9049   46.5720   57.8249 C   0  0  0  0  0  0  0  0  0  0  0  0
  1  3  1  0  0  0  0
  2  1  1  1  0  0  0
  2  6  1  0  0  0  0
  2 34  1  0  0  0  0
  3  4  2  0  0  0  0
  3 28  1  0  0  0  0
  5 13  1  0  0  0  0
  6  7  1  0  0  0  0
  7  8  1  0  0  0  0
  8  9  1  0  0  0  0
  8 10  1  0  0  0  0
 11 13  2  0  0  0  0
 11 24  1  0  0  0  0
 12 34  1  0  0  0  0
 13 15  1  0  0  0  0
 14 34  1  0  0  0  0
 15 16  1  0  0  0  0
 16 17  1  0  0  0  0
 16 18  2  0  0  0  0
 17 20  1  0  0  0  0
 17 24  2  0  0  0  0
 19 21  1  0  0  0  0
 19 20  1  0  0  0  0
 20 22  1  0  0  0  0
 22 23  1  0  0  0  0
 22 26  1  6  0  0  0
 23 25  1  0  0  0  0
 24 25  1  0  0  0  0
 26 27  1  0  0  0  0
 27 31  1  0  0  0  0
 28 29  2  0  0  0  0
 28 33  1  0  0  0  0
 29 30  1  0  0  0  0
 30 31  2  0  0  0  0
 31 32  1  0  0  0  0
 32 33  2  0  0  0  0
M  END
>  <CHROM.1>
140.04143344,-85.77283548,-0.43261694,68.80243064,-159.30100169,-138.55677468
-36.69245231,87.89396975,-151.89326941,103.40046829,5.45099005,45.24896972
56.81195376,3.04023747,-0.29089370,-3.00088604

>  <Name>
ligand

>  <RI>
0

>  <Rbt.Current_Directory>
/home/itssahil/PROJECTS/Mol_Feturizer/New_Systems/rnas/3SUH

>  <Rbt.Executable>
rbdock ($Id: //depot/dev/client3/rdock/2013.1/src/exe/rbdock.cxx#4 $)

>  <Rbt.Library>
libRbt.so (2013.1, Build901 2013/11/27)

>  <Rbt.Parameter_File>
/export/apps/rDock/src/rDock_2013.1_src/data/scripts/dock_solv.prm

>  <Rbt.Receptor>
prm/blind_docking_100.prm

>  <SCORE>
-12.527

>  <SCORE.INTER>
-9.0672

>  <SCORE.INTER.CONST>
1

>  <SCORE.INTER.POLAR>
0

>  <SCORE.INTER.ROT>
10

>  <SCORE.INTER.SOLV>
14.636

>  <SCORE.INTER.VDW>
-21.1901

>  <SCORE.INTER.norm>
-0.266682

>  <SCORE.INTRA>
-3.46386

>  <SCORE.INTRA.DIHEDRAL>
0.250264

>  <SCORE.INTRA.DIHEDRAL.0>
12.2703

>  <SCORE.INTRA.POLAR>
0

>  <SCORE.INTRA.POLAR.0>
0

>  <SCORE.INTRA.REPUL>
0

>  <SCORE.INTRA.REPUL.0>
0

>  <SCORE.INTRA.SOLV>
1.64675

>  <SCORE.INTRA.SOLV.lig_0>
-64.3214

>  <SCORE.INTRA.VDW>
-4.41237

>  <SCORE.INTRA.VDW.0>
-1.67301

>  <SCORE.INTRA.norm>
-0.101878

>  <SCORE.RESTR>
0.00406259

>  <SCORE.RESTR.CAVITY>
0.00406259

>  <SCORE.RESTR.norm>
0.000119488

>  <SCORE.SYSTEM>
0

>  <SCORE.SYSTEM.CONST>
0

>  <SCORE.SYSTEM.DIHEDRAL>
0

>  <SCORE.SYSTEM.SOLV>
0

>  <SCORE.SYSTEM.norm>
0

>  <SCORE.heavy>
34

>  <SCORE.norm>
-0.368441

>  <RMSD>
17.483

$$$$
ligand
 OpenBabel11021811483D
libRbt.so/2013.1/901 2013/11/27
 34 36  0  0  0  0  0  0  0  0999 V2000
    9.3786   47.3199   56.8987 N   0  0  0  0  0  0  0  0  0  0  0  0
   10.4465   47.6935   55.9423 C   0  0  1  0  0  0  0  0  0  0  0  0
    8.0697   47.4129   56.6302 C   0  0  0  0  0  0  0  0  0  0  0  0
    7.6067   47.8203   55.5612 O   0  0  0  0  0  0  0  0  0  0  0  0
    3.6505   44.6670   55.5562 N   0  0  0  0  0  0  0  0  0  0  0  0
   11.7630   47.0033   56.3369 C   0  0  0  0  0  0  0  0  0  0  0  0
   12.1347   47.2890   57.7983 C   0  0  0  0  0  0  0  0  0  0  0  0
   11.5661   46.2142   58.7372 C   0  0  0  0  0  0  0  0  0  0  0  0
   10.8442   45.3283   58.2221 O   0  0  0  0  0  0  0  0  0  0  0  0
   11.8680   46.3006   59.9497 O   0  0  0  0  0  0  0  0  0  0  0  0
    3.4454   46.1345   57.3347 N   0  0  0  0  0  0  0  0  0  0  0  0
    9.5901   46.1859   54.2866 O   0  0  0  0  0  0  0  0  0  0  0  0
    3.2720   44.9095   56.8086 C   0  0  0  0  0  0  0  0  0  0  0  0
   10.2971   48.1950   53.6139 O   0  0  0  0  0  0  0  0  0  0  0  0
    2.6958   43.8812   57.5651 N   0  0  0  0  0  0  0  0  0  0  0  0
    2.3091   44.1446   58.8722 C   0  0  0  0  0  0  0  0  0  0  0  0
    2.5317   45.4115   59.3955 C   0  0  0  0  0  0  0  0  0  0  0  0
    1.8108   43.2562   59.5590 O   0  0  0  0  0  0  0  0  0  0  0  0
    0.9927   45.1766   61.1501 C   0  0  0  0  0  0  0  0  0  0  0  0
    2.0992   45.7407   60.6753 N   0  0  0  0  0  0  0  0  0  0  0  0
    0.8079   45.0893   62.3619 O   0  0  0  0  0  0  0  0  0  0  0  0
    2.7463   46.8412   61.3980 C   0  0  2  0  0  0  0  0  0  0  0  0
    2.8122   48.0623   60.4772 C   0  0  0  0  0  0  0  0  0  0  0  0
    3.0777   46.4065   58.5959 C   0  0  0  0  0  0  0  0  0  0  0  0
    3.2603   47.6944   59.1114 N   0  0  0  0  0  0  0  0  0  0  0  0
    4.1563   46.4363   61.8415 C   0  0  0  0  0  0  0  0  0  0  0  0
    4.7535   45.5464   60.8382 N   0  0  0  0  0  0  0  0  0  0  0  0
    7.1468   46.9180   57.7585 C   0  0  0  0  0  0  0  0  0  0  0  0
    6.7079   45.5964   57.7855 C   0  0  0  0  0  0  0  0  0  0  0  0
    5.9182   45.1356   58.8370 C   0  0  0  0  0  0  0  0  0  0  0  0
    5.5215   46.0027   59.8494 C   0  0  0  0  0  0  0  0  0  0  0  0
    5.9515   47.3251   59.8194 C   0  0  0  0  0  0  0  0  0  0  0  0
    6.7710   47.7780   58.7865 C   0  0  0  0  0  0  0  0  0  0  0  0
   10.0774   47.3241   54.4907 C   0  0  0  0  0  0  0  0  0  0  0  0
  1  3  1  0  0  0  0
  2  1  1  1  0  0  0
  2  6  1  0  0  0  0
  2 34  1  0  0  0  0
  3  4  2  0  0  0  0
  3 28  1  0  0  0  0
  5 13  1  0  0  0  0
  6  7  1  0  0  0  0
  7  8  1  0  0  0  0
  8  9  1  0  0  0  0
  8 10  1  0  0  0  0
 11 13  2  0  0  0  0
 11 24  1  0  0  0  0
 12 34  1  0  0  0  0
 13 15  1  0  0  0  0
 14 34  1  0  0  0  0
 15 16  1  0  0  0  0
 16 17  1  0  0  0  0
 16 18  2  0  0  0  0
 17 20  1  0  0  0  0
 17 24  2  0  0  0  0
 19 21  1  0  0  0  0
 19 20  1  0  0  0  0
 20 22  1  0  0  0  0
 22 23  1  0  0  0  0
 22 26  1  6  0  0  0
 23 25  1  0  0  0  0
 24 25  1  0  0  0  0
 26 27  1  0  0  0  0
 27 31  1  0  0  0  0
 28 29  2  0  0  0  0
 28 33  1  0  0  0  0
 29 30  1  0  0  0  0
 30 31  2  0  0  0  0
 31 32  1  0  0  0  0
 32 33  2  0  0  0  0
M  END
>  <CHROM.1>
-159.25275747,-53.72457592,-45.37257607,91.36659290,-3.74472887,156.54658405
34.15559637,93.26628331,-171.93903221,-91.93470796,6.10324653,46.23402891
58.30524720,-0.40969964,0.19754028,1.55052045

>  <Name>
ligand

>  <RI>
0

>  <Rbt.Current_Directory>
/home/itssahil/PROJECTS/Mol_Feturizer/New_Systems/rnas/3SUH

>  <Rbt.Executable>
rbdock ($Id: //depot/dev/client3/rdock/2013.1/src/exe/rbdock.cxx#4 $)

>  <Rbt.Library>
libRbt.so (2013.1, Build901 2013/11/27)

>  <Rbt.Parameter_File>
/export/apps/rDock/src/rDock_2013.1_src/data/scripts/dock_solv.prm

>  <Rbt.Receptor>
prm/blind_docking_80.prm

>  <SCORE>
-6.94214

>  <SCORE.INTER>
-7.65547

>  <SCORE.INTER.CONST>
1

>  <SCORE.INTER.POLAR>
0

>  <SCORE.INTER.ROT>
10

>  <SCORE.INTER.SOLV>
13.6199

>  <SCORE.INTER.VDW>
-19.9103

>  <SCORE.INTER.norm>
-0.225161

>  <SCORE.INTRA>
0.710041

>  <SCORE.INTRA.DIHEDRAL>
0.285971

>  <SCORE.INTRA.DIHEDRAL.0>
12.2703

>  <SCORE.INTRA.POLAR>
0

>  <SCORE.INTRA.POLAR.0>
0

>  <SCORE.INTRA.REPUL>
0

>  <SCORE.INTRA.REPUL.0>
0

>  <SCORE.INTRA.SOLV>
3.66532

>  <SCORE.INTRA.SOLV.lig_0>
-64.3214

>  <SCORE.INTRA.VDW>
-1.26561

>  <SCORE.INTRA.VDW.0>
-1.67301

>  <SCORE.INTRA.norm>
0.0208836

>  <SCORE.RESTR>
0.00328619

>  <SCORE.RESTR.CAVITY>
0.00328619

>  <SCORE.RESTR.norm>
9.66526e-05

>  <SCORE.SYSTEM>
0

>  <SCORE.SYSTEM.CONST>
0

>  <SCORE.SYSTEM.DIHEDRAL>
0

>  <SCORE.SYSTEM.SOLV>
0

>  <SCORE.SYSTEM.norm>
0

>  <SCORE.heavy>
34

>  <SCORE.norm>
-0.204181

>  <RMSD>
17.592

$$$$
ligand
 OpenBabel11021811483D
libRbt.so/2013.1/901 2013/11/27
 34 36  0  0  0  0  0  0  0  0999 V2000
    4.5558   39.4724   55.0524 N   0  0  0  0  0  0  0  0  0  0  0  0
    3.4674   38.5074   54.7711 C   0  0  1  0  0  0  0  0  0  0  0  0
    5.2351   40.1292   54.1032 C   0  0  0  0  0  0  0  0  0  0  0  0
    5.0337   40.0045   52.8919 O   0  0  0  0  0  0  0  0  0  0  0  0
    4.2445   46.7741   60.6273 N   0  0  0  0  0  0  0  0  0  0  0  0
    2.8567   38.0124   56.0930 C   0  0  0  0  0  0  0  0  0  0  0  0
    2.4832   39.1808   57.0152 C   0  0  0  0  0  0  0  0  0  0  0  0
    1.6660   38.6971   58.2229 C   0  0  0  0  0  0  0  0  0  0  0  0
    1.6786   39.4181   59.2481 O   0  0  0  0  0  0  0  0  0  0  0  0
    1.0443   37.6175   58.0933 O   0  0  0  0  0  0  0  0  0  0  0  0
    6.1724   47.1473   59.4016 N   0  0  0  0  0  0  0  0  0  0  0  0
    1.4487   38.3627   53.4861 O   0  0  0  0  0  0  0  0  0  0  0  0
    5.4078   46.3359   60.1529 C   0  0  0  0  0  0  0  0  0  0  0  0
    2.4695   40.3448   53.6208 O   0  0  0  0  0  0  0  0  0  0  0  0
    5.8218   45.0298   60.4435 N   0  0  0  0  0  0  0  0  0  0  0  0
    7.0352   44.5818   59.9389 C   0  0  0  0  0  0  0  0  0  0  0  0
    7.7855   45.4344   59.1399 C   0  0  0  0  0  0  0  0  0  0  0  0
    7.4150   43.4369   60.1716 O   0  0  0  0  0  0  0  0  0  0  0  0
    9.7924   44.2514   59.4142 C   0  0  0  0  0  0  0  0  0  0  0  0
    9.0375   45.0537   58.6697 N   0  0  0  0  0  0  0  0  0  0  0  0
   10.6437   44.7182   60.1677 O   0  0  0  0  0  0  0  0  0  0  0  0
    9.5856   45.6935   57.4688 C   0  0  2  0  0  0  0  0  0  0  0  0
    9.4613   47.2117   57.6206 C   0  0  0  0  0  0  0  0  0  0  0  0
    7.3476   46.7309   58.9060 C   0  0  0  0  0  0  0  0  0  0  0  0
    8.1265   47.6028   58.1372 N   0  0  0  0  0  0  0  0  0  0  0  0
    8.8331   45.2234   56.2192 C   0  0  0  0  0  0  0  0  0  0  0  0
    9.1315   43.8085   55.9657 N   0  0  0  0  0  0  0  0  0  0  0  0
    6.2862   41.1198   54.6359 C   0  0  0  0  0  0  0  0  0  0  0  0
    7.6372   40.7815   54.6444 C   0  0  0  0  0  0  0  0  0  0  0  0
    8.5928   41.6999   55.0748 C   0  0  0  0  0  0  0  0  0  0  0  0
    8.2036   42.9501   55.5439 C   0  0  0  0  0  0  0  0  0  0  0  0
    6.8541   43.2863   55.5445 C   0  0  0  0  0  0  0  0  0  0  0  0
    5.9005   42.3812   55.0806 C   0  0  0  0  0  0  0  0  0  0  0  0
    2.3651   39.1219   53.8839 C   0  0  0  0  0  0  0  0  0  0  0  0
  1  3  1  0  0  0  0
  2  1  1  1  0  0  0
  2  6  1  0  0  0  0
  2 34  1  0  0  0  0
  3  4  2  0  0  0  0
  3 28  1  0  0  0  0
  5 13  1  0  0  0  0
  6  7  1  0  0  0  0
  7  8  1  0  0  0  0
  8  9  1  0  0  0  0
  8 10  1  0  0  0  0
 11 13  2  0  0  0  0
 11 24  1  0  0  0  0
 12 34  1  0  0  0  0
 13 15  1  0  0  0  0
 14 34  1  0  0  0  0
 15 16  1  0  0  0  0
 16 17  1  0  0  0  0
 16 18  2  0  0  0  0
 17 20  1  0  0  0  0
 17 24  2  0  0  0  0
 19 21  1  0  0  0  0
 19 20  1  0  0  0  0
 20 22  1  0  0  0  0
 22 23  1  0  0  0  0
 22 26  1  6  0  0  0
 23 25  1  0  0  0  0
 24 25  1  0  0  0  0
 26 27  1  0  0  0  0
 27 31  1  0  0  0  0
 28 29  2  0  0  0  0
 28 33  1  0  0  0  0
 29 30  1  0  0  0  0
 30 31  2  0  0  0  0
 31 32  1  0  0  0  0
 32 33  2  0  0  0  0
M  END
>  <CHROM.1>
-176.52018153,50.57350057,174.05844932,170.54175663,156.70250621,-94.97378289
-68.66469289,140.89924307,167.55275233,101.55799508,5.92350301,42.59508503
57.06852735,-2.34279021,0.58415268,0.96341228

>  <Name>
ligand

>  <RI>
0

>  <Rbt.Current_Directory>
/home/itssahil/PROJECTS/Mol_Feturizer/New_Systems/rnas/3SUH

>  <Rbt.Executable>
rbdock ($Id: //depot/dev/client3/rdock/2013.1/src/exe/rbdock.cxx#4 $)

>  <Rbt.Library>
libRbt.so (2013.1, Build901 2013/11/27)

>  <Rbt.Parameter_File>
/export/apps/rDock/src/rDock_2013.1_src/data/scripts/dock_solv.prm

>  <Rbt.Receptor>
prm/blind_docking_100.prm

>  <SCORE>
-16.5153

>  <SCORE.INTER>
-14.3642

>  <SCORE.INTER.CONST>
1

>  <SCORE.INTER.POLAR>
0

>  <SCORE.INTER.ROT>
10

>  <SCORE.INTER.SOLV>
16.0505

>  <SCORE.INTER.VDW>
-25.193

>  <SCORE.INTER.norm>
-0.422477

>  <SCORE.INTRA>
-2.19791

>  <SCORE.INTRA.DIHEDRAL>
-4.15522

>  <SCORE.INTRA.DIHEDRAL.0>
12.2703

>  <SCORE.INTRA.POLAR>
0

>  <SCORE.INTRA.POLAR.0>
0

>  <SCORE.INTRA.REPUL>
0

>  <SCORE.INTRA.REPUL.0>
0

>  <SCORE.INTRA.SOLV>
-0.490989

>  <SCORE.INTRA.SOLV.lig_0>
-64.3214

>  <SCORE.INTRA.VDW>
0.125196

>  <SCORE.INTRA.VDW.0>
-1.67301

>  <SCORE.INTRA.norm>
-0.0646444

>  <SCORE.RESTR>
0.0468461

>  <SCORE.RESTR.CAVITY>
0.0468461

>  <SCORE.RESTR.norm>
0.00137783

>  <SCORE.SYSTEM>
0

>  <SCORE.SYSTEM.CONST>
0

>  <SCORE.SYSTEM.DIHEDRAL>
0

>  <SCORE.SYSTEM.SOLV>
0

>  <SCORE.SYSTEM.norm>
0

>  <SCORE.heavy>
34

>  <SCORE.norm>
-0.485743

>  <RMSD>
17.613

$$$$
ligand
 OpenBabel11021811483D
libRbt.so/2013.1/901 2013/11/27
 34 36  0  0  0  0  0  0  0  0999 V2000
    8.0294   43.9992   56.2423 N   0  0  0  0  0  0  0  0  0  0  0  0
    8.7299   43.3538   55.1075 C   0  0  1  0  0  0  0  0  0  0  0  0
    8.5197   44.0562   57.4874 C   0  0  0  0  0  0  0  0  0  0  0  0
    9.6050   43.5783   57.8296 O   0  0  0  0  0  0  0  0  0  0  0  0
    3.7284   44.6264   55.5637 N   0  0  0  0  0  0  0  0  0  0  0  0
    7.8181   43.3477   53.8691 C   0  0  0  0  0  0  0  0  0  0  0  0
    6.6046   42.4289   54.0656 C   0  0  0  0  0  0  0  0  0  0  0  0
    7.0117   40.9488   54.0039 C   0  0  0  0  0  0  0  0  0  0  0  0
    7.1478   40.4398   52.8666 O   0  0  0  0  0  0  0  0  0  0  0  0
    7.1805   40.3593   55.0960 O   0  0  0  0  0  0  0  0  0  0  0  0
    3.5352   46.0393   57.3870 N   0  0  0  0  0  0  0  0  0  0  0  0
   10.7202   44.5381   55.7273 O   0  0  0  0  0  0  0  0  0  0  0  0
    3.3272   44.8410   56.8140 C   0  0  0  0  0  0  0  0  0  0  0  0
   10.3856   44.1053   53.5617 O   0  0  0  0  0  0  0  0  0  0  0  0
    2.6913   43.8116   57.5194 N   0  0  0  0  0  0  0  0  0  0  0  0
    2.2814   44.0456   58.8251 C   0  0  0  0  0  0  0  0  0  0  0  0
    2.5401   45.2838   59.3980 C   0  0  0  0  0  0  0  0  0  0  0  0
    1.7306   43.1551   59.4676 O   0  0  0  0  0  0  0  0  0  0  0  0
    0.9477   45.0515   61.1046 C   0  0  0  0  0  0  0  0  0  0  0  0
    2.0877   45.5863   60.6775 N   0  0  0  0  0  0  0  0  0  0  0  0
    0.6752   45.0392   62.3029 O   0  0  0  0  0  0  0  0  0  0  0  0
    2.7587   46.6344   61.4542 C   0  0  2  0  0  0  0  0  0  0  0  0
    2.8968   47.8826   60.5788 C   0  0  0  0  0  0  0  0  0  0  0  0
    3.1457   46.2827   58.6476 C   0  0  0  0  0  0  0  0  0  0  0  0
    3.3655   47.5439   59.2124 N   0  0  0  0  0  0  0  0  0  0  0  0
    4.1395   46.1580   61.9179 C   0  0  0  0  0  0  0  0  0  0  0  0
    5.1833   46.8353   61.1388 N   0  0  0  0  0  0  0  0  0  0  0  0
    7.6380   44.8231   58.4894 C   0  0  0  0  0  0  0  0  0  0  0  0
    6.9618   45.9765   58.0990 C   0  0  0  0  0  0  0  0  0  0  0  0
    6.1203   46.6382   58.9909 C   0  0  0  0  0  0  0  0  0  0  0  0
    5.9809   46.1794   60.2965 C   0  0  0  0  0  0  0  0  0  0  0  0
    6.6624   45.0329   60.6908 C   0  0  0  0  0  0  0  0  0  0  0  0
    7.4767   44.3499   59.7886 C   0  0  0  0  0  0  0  0  0  0  0  0
   10.0606   44.0592   54.7733 C   0  0  0  0  0  0  0  0  0  0  0  0
  1  3  1  0  0  0  0
  2  1  1  1  0  0  0
  2  6  1  0  0  0  0
  2 34  1  0  0  0  0
  3  4  2  0  0  0  0
  3 28  1  0  0  0  0
  5 13  1  0  0  0  0
  6  7  1  0  0  0  0
  7  8  1  0  0  0  0
  8  9  1  0  0  0  0
  8 10  1  0  0  0  0
 11 13  2  0  0  0  0
 11 24  1  0  0  0  0
 12 34  1  0  0  0  0
 13 15  1  0  0  0  0
 14 34  1  0  0  0  0
 15 16  1  0  0  0  0
 16 17  1  0  0  0  0
 16 18  2  0  0  0  0
 17 20  1  0  0  0  0
 17 24  2  0  0  0  0
 19 21  1  0  0  0  0
 19 20  1  0  0  0  0
 20 22  1  0  0  0  0
 22 23  1  0  0  0  0
 22 26  1  6  0  0  0
 23 25  1  0  0  0  0
 24 25  1  0  0  0  0
 26 27  1  0  0  0  0
 27 31  1  0  0  0  0
 28 29  2  0  0  0  0
 28 33  1  0  0  0  0
 29 30  1  0  0  0  0
 30 31  2  0  0  0  0
 31 32  1  0  0  0  0
 32 33  2  0  0  0  0
M  END
>  <CHROM.1>
174.19366396,-67.44303900,34.94933637,-72.94192181,-81.39079410,163.10135493
106.86850532,-113.80254671,128.58737284,-38.25929058,5.53124054,44.55843904
57.85845256,-0.80640543,0.19707609,0.91614828

>  <Name>
ligand

>  <RI>
0

>  <Rbt.Current_Directory>
/home/itssahil/PROJECTS/Mol_Feturizer/New_Systems/rnas/3SUH

>  <Rbt.Executable>
rbdock ($Id: //depot/dev/client3/rdock/2013.1/src/exe/rbdock.cxx#4 $)

>  <Rbt.Library>
libRbt.so (2013.1, Build901 2013/11/27)

>  <Rbt.Parameter_File>
/export/apps/rDock/src/rDock_2013.1_src/data/scripts/dock_solv.prm

>  <Rbt.Receptor>
prm/blind_docking_100.prm

>  <SCORE>
-6.1537

>  <SCORE.INTER>
-8.59753

>  <SCORE.INTER.CONST>
1

>  <SCORE.INTER.POLAR>
0

>  <SCORE.INTER.ROT>
10

>  <SCORE.INTER.SOLV>
12.2544

>  <SCORE.INTER.VDW>
-20.0832

>  <SCORE.INTER.norm>
-0.252868

>  <SCORE.INTRA>
2.29536

>  <SCORE.INTRA.DIHEDRAL>
0.73894

>  <SCORE.INTRA.DIHEDRAL.0>
12.2703

>  <SCORE.INTRA.POLAR>
0

>  <SCORE.INTRA.POLAR.0>
0

>  <SCORE.INTRA.REPUL>
0

>  <SCORE.INTRA.REPUL.0>
0

>  <SCORE.INTRA.SOLV>
2.81936

>  <SCORE.INTRA.SOLV.lig_0>
-64.3214

>  <SCORE.INTRA.VDW>
0.516212

>  <SCORE.INTRA.VDW.0>
-1.67301

>  <SCORE.INTRA.norm>
0.0675106

>  <SCORE.RESTR>
0.148471

>  <SCORE.RESTR.CAVITY>
0.148471

>  <SCORE.RESTR.norm>
0.0043668

>  <SCORE.SYSTEM>
0

>  <SCORE.SYSTEM.CONST>
0

>  <SCORE.SYSTEM.DIHEDRAL>
0

>  <SCORE.SYSTEM.SOLV>
0

>  <SCORE.SYSTEM.norm>
0

>  <SCORE.heavy>
34

>  <SCORE.norm>
-0.180991

>  <RMSD>
17.791

$$$$
ligand
 OpenBabel11021811483D
libRbt.so/2013.1/901 2013/11/27
 34 36  0  0  0  0  0  0  0  0999 V2000
    8.5055   44.8568   56.2616 N   0  0  0  0  0  0  0  0  0  0  0  0
    9.4911   44.7186   55.1642 C   0  0  1  0  0  0  0  0  0  0  0  0
    8.7925   44.6498   57.5534 C   0  0  0  0  0  0  0  0  0  0  0  0
    9.9049   44.3203   57.9742 O   0  0  0  0  0  0  0  0  0  0  0  0
    3.6204   44.6791   55.4706 N   0  0  0  0  0  0  0  0  0  0  0  0
    8.9450   43.7606   54.0922 C   0  0  0  0  0  0  0  0  0  0  0  0
    8.5580   42.4023   54.6926 C   0  0  0  0  0  0  0  0  0  0  0  0
    7.0573   42.3443   55.0162 C   0  0  0  0  0  0  0  0  0  0  0  0
    6.6310   43.1284   55.8962 O   0  0  0  0  0  0  0  0  0  0  0  0
    6.3685   41.5185   54.3740 O   0  0  0  0  0  0  0  0  0  0  0  0
    3.3434   46.2667   57.1322 N   0  0  0  0  0  0  0  0  0  0  0  0
    8.9173   46.6896   53.9259 O   0  0  0  0  0  0  0  0  0  0  0  0
    3.2557   44.9930   56.7111 C   0  0  0  0  0  0  0  0  0  0  0  0
   11.0215   46.4742   54.6436 O   0  0  0  0  0  0  0  0  0  0  0  0
    2.7836   43.9883   57.5651 N   0  0  0  0  0  0  0  0  0  0  0  0
    2.4105   44.3267   58.8588 C   0  0  0  0  0  0  0  0  0  0  0  0
    2.5437   45.6458   59.2722 C   0  0  0  0  0  0  0  0  0  0  0  0
    2.0030   43.4614   59.6297 O   0  0  0  0  0  0  0  0  0  0  0  0
    1.0738   45.4358   61.0882 C   0  0  0  0  0  0  0  0  0  0  0  0
    2.1189   46.0438   60.5349 N   0  0  0  0  0  0  0  0  0  0  0  0
   -0.0408   45.9518   61.0483 O   0  0  0  0  0  0  0  0  0  0  0  0
    2.6936   47.2469   61.1467 C   0  0  2  0  0  0  0  0  0  0  0  0
    2.6375   48.3900   60.1300 C   0  0  0  0  0  0  0  0  0  0  0  0
    2.9873   46.6115   58.3790 C   0  0  0  0  0  0  0  0  0  0  0  0
    3.0787   47.9477   58.7842 N   0  0  0  0  0  0  0  0  0  0  0  0
    4.1424   46.9911   61.5757 C   0  0  0  0  0  0  0  0  0  0  0  0
    4.5427   45.6351   61.1807 N   0  0  0  0  0  0  0  0  0  0  0  0
    7.6210   44.9040   58.5193 C   0  0  0  0  0  0  0  0  0  0  0  0
    7.4165   44.0728   59.6180 C   0  0  0  0  0  0  0  0  0  0  0  0
    6.3896   44.3368   60.5222 C   0  0  0  0  0  0  0  0  0  0  0  0
    5.5282   45.4085   60.3128 C   0  0  0  0  0  0  0  0  0  0  0  0
    5.7255   46.2343   59.2112 C   0  0  0  0  0  0  0  0  0  0  0  0
    6.7745   45.9919   58.3255 C   0  0  0  0  0  0  0  0  0  0  0  0
    9.8364   46.0784   54.5229 C   0  0  0  0  0  0  0  0  0  0  0  0
  1  3  1  0  0  0  0
  2  1  1  1  0  0  0
  2  6  1  0  0  0  0
  2 34  1  0  0  0  0
  3  4  2  0  0  0  0
  3 28  1  0  0  0  0
  5 13  1  0  0  0  0
  6  7  1  0  0  0  0
  7  8  1  0  0  0  0
  8  9  1  0  0  0  0
  8 10  1  0  0  0  0
 11 13  2  0  0  0  0
 11 24  1  0  0  0  0
 12 34  1  0  0  0  0
 13 15  1  0  0  0  0
 14 34  1  0  0  0  0
 15 16  1  0  0  0  0
 16 17  1  0  0  0  0
 16 18  2  0  0  0  0
 17 20  1  0  0  0  0
 17 24  2  0  0  0  0
 19 21  1  0  0  0  0
 19 20  1  0  0  0  0
 20 22  1  0  0  0  0
 22 23  1  0  0  0  0
 22 26  1  6  0  0  0
 23 25  1  0  0  0  0
 24 25  1  0  0  0  0
 26 27  1  0  0  0  0
 27 31  1  0  0  0  0
 28 29  2  0  0  0  0
 28 33  1  0  0  0  0
 29 30  1  0  0  0  0
 30 31  2  0  0  0  0
 31 32  1  0  0  0  0
 32 33  2  0  0  0  0
M  END
>  <CHROM.1>
126.39822279,-55.19089622,-64.49147305,95.98225005,-64.39076898,-99.22925331
2.91990905,117.32204370,141.68955874,141.16496146,5.49393396,45.14516872
57.86370528,-0.62169516,0.26104959,0.91771235

>  <Name>
ligand

>  <RI>
0

>  <Rbt.Current_Directory>
/home/itssahil/PROJECTS/Mol_Feturizer/New_Systems/rnas/3SUH

>  <Rbt.Executable>
rbdock ($Id: //depot/dev/client3/rdock/2013.1/src/exe/rbdock.cxx#4 $)

>  <Rbt.Library>
libRbt.so (2013.1, Build901 2013/11/27)

>  <Rbt.Parameter_File>
/export/apps/rDock/src/rDock_2013.1_src/data/scripts/dock_solv.prm

>  <Rbt.Receptor>
prm/blind_docking_100.prm

>  <SCORE>
-6.57429

>  <SCORE.INTER>
-7.4527

>  <SCORE.INTER.CONST>
1

>  <SCORE.INTER.POLAR>
0

>  <SCORE.INTER.ROT>
10

>  <SCORE.INTER.SOLV>
9.87007

>  <SCORE.INTER.VDW>
-18.5252

>  <SCORE.INTER.norm>
-0.219197

>  <SCORE.INTRA>
0.878413

>  <SCORE.INTRA.DIHEDRAL>
5.56173

>  <SCORE.INTRA.DIHEDRAL.0>
12.2703

>  <SCORE.INTRA.POLAR>
0

>  <SCORE.INTRA.POLAR.0>
0

>  <SCORE.INTRA.REPUL>
0

>  <SCORE.INTRA.REPUL.0>
0

>  <SCORE.INTRA.SOLV>
2.83751

>  <SCORE.INTRA.SOLV.lig_0>
-64.3214

>  <SCORE.INTRA.VDW>
-3.3212

>  <SCORE.INTRA.VDW.0>
-1.67301

>  <SCORE.INTRA.norm>
0.0258357

>  <SCORE.RESTR>
0

>  <SCORE.RESTR.CAVITY>
0

>  <SCORE.RESTR.norm>
0

>  <SCORE.SYSTEM>
0

>  <SCORE.SYSTEM.CONST>
0

>  <SCORE.SYSTEM.DIHEDRAL>
0

>  <SCORE.SYSTEM.SOLV>
0

>  <SCORE.SYSTEM.norm>
0

>  <SCORE.heavy>
34

>  <SCORE.norm>
-0.193362

>  <RMSD>
17.808

$$$$
ligand
 OpenBabel11021811483D
libRbt.so/2013.1/901 2013/11/27
 34 36  0  0  0  0  0  0  0  0999 V2000
    7.9152   45.3161   56.1579 N   0  0  0  0  0  0  0  0  0  0  0  0
    8.7461   45.0662   54.9571 C   0  0  1  0  0  0  0  0  0  0  0  0
    8.3419   45.1282   57.4135 C   0  0  0  0  0  0  0  0  0  0  0  0
    9.4700   44.7257   57.7114 O   0  0  0  0  0  0  0  0  0  0  0  0
    3.5392   44.5995   56.0408 N   0  0  0  0  0  0  0  0  0  0  0  0
    7.9121   44.3377   53.8898 C   0  0  0  0  0  0  0  0  0  0  0  0
    7.3546   43.0090   54.4183 C   0  0  0  0  0  0  0  0  0  0  0  0
    8.4865   42.0321   54.7715 C   0  0  0  0  0  0  0  0  0  0  0  0
    9.0706   42.2052   55.8669 O   0  0  0  0  0  0  0  0  0  0  0  0
    8.7411   41.1316   53.9391 O   0  0  0  0  0  0  0  0  0  0  0  0
    3.4128   46.4813   57.3829 N   0  0  0  0  0  0  0  0  0  0  0  0
    9.0393   47.4456   54.9552 O   0  0  0  0  0  0  0  0  0  0  0  0
    3.1816   45.1714   57.1878 C   0  0  0  0  0  0  0  0  0  0  0  0
   10.0298   46.2630   53.3399 O   0  0  0  0  0  0  0  0  0  0  0  0
    2.5670   44.3979   58.1805 N   0  0  0  0  0  0  0  0  0  0  0  0
    2.2027   45.0043   59.3752 C   0  0  0  0  0  0  0  0  0  0  0  0
    2.4847   46.3518   59.5569 C   0  0  0  0  0  0  0  0  0  0  0  0
    1.6714   44.3446   60.2649 O   0  0  0  0  0  0  0  0  0  0  0  0
    0.9509   46.6429   61.3076 C   0  0  0  0  0  0  0  0  0  0  0  0
    2.0772   47.0168   60.7081 N   0  0  0  0  0  0  0  0  0  0  0  0
    0.9132   46.4942   62.5270 O   0  0  0  0  0  0  0  0  0  0  0  0
    2.7776   48.2359   61.1268 C   0  0  2  0  0  0  0  0  0  0  0  0
    2.8896   49.1761   59.9240 C   0  0  0  0  0  0  0  0  0  0  0  0
    3.0674   47.0835   58.5310 C   0  0  0  0  0  0  0  0  0  0  0  0
    3.3103   48.4511   58.6997 N   0  0  0  0  0  0  0  0  0  0  0  0
    4.1720   47.8960   61.6643 C   0  0  0  0  0  0  0  0  0  0  0  0
    4.4948   46.4984   61.3519 N   0  0  0  0  0  0  0  0  0  0  0  0
    7.3195   45.5041   58.5013 C   0  0  0  0  0  0  0  0  0  0  0  0
    6.7782   46.7864   58.5511 C   0  0  0  0  0  0  0  0  0  0  0  0
    5.8117   47.1088   59.5017 C   0  0  0  0  0  0  0  0  0  0  0  0
    5.4091   46.1657   60.4413 C   0  0  0  0  0  0  0  0  0  0  0  0
    5.9552   44.8873   60.3986 C   0  0  0  0  0  0  0  0  0  0  0  0
    6.8961   44.5532   59.4256 C   0  0  0  0  0  0  0  0  0  0  0  0
    9.3207   46.3719   54.3699 C   0  0  0  0  0  0  0  0  0  0  0  0
  1  3  1  0  0  0  0
  2  1  1  1  0  0  0
  2  6  1  0  0  0  0
  2 34  1  0  0  0  0
  3  4  2  0  0  0  0
  3 28  1  0  0  0  0
  5 13  1  0  0  0  0
  6  7  1  0  0  0  0
  7  8  1  0  0  0  0
  8  9  1  0  0  0  0
  8 10  1  0  0  0  0
 11 13  2  0  0  0  0
 11 24  1  0  0  0  0
 12 34  1  0  0  0  0
 13 15  1  0  0  0  0
 14 34  1  0  0  0  0
 15 16  1  0  0  0  0
 16 17  1  0  0  0  0
 16 18  2  0  0  0  0
 17 20  1  0  0  0  0
 17 24  2  0  0  0  0
 19 21  1  0  0  0  0
 19 20  1  0  0  0  0
 20 22  1  0  0  0  0
 22 23  1  0  0  0  0
 22 26  1  6  0  0  0
 23 25  1  0  0  0  0
 24 25  1  0  0  0  0
 26 27  1  0  0  0  0
 27 31  1  0  0  0  0
 28 29  2  0  0  0  0
 28 33  1  0  0  0  0
 29 30  1  0  0  0  0
 30 31  2  0  0  0  0
 31 32  1  0  0  0  0
 32 33  2  0  0  0  0
M  END
>  <CHROM.1>
136.67277787,-58.18720118,0.48000967,-63.16863636,79.35414106,134.27037213
11.34758829,109.07639715,-18.05380274,-56.58496411,5.50657064,45.61498845
57.96393040,-0.61110972,0.51703790,0.53208626

>  <Name>
ligand

>  <RI>
0

>  <Rbt.Current_Directory>
/home/itssahil/PROJECTS/Mol_Feturizer/New_Systems/rnas/3SUH

>  <Rbt.Executable>
rbdock ($Id: //depot/dev/client3/rdock/2013.1/src/exe/rbdock.cxx#4 $)

>  <Rbt.Library>
libRbt.so (2013.1, Build901 2013/11/27)

>  <Rbt.Parameter_File>
/export/apps/rDock/src/rDock_2013.1_src/data/scripts/dock_solv.prm

>  <Rbt.Receptor>
prm/blind_docking_100.prm

>  <SCORE>
-8.90815

>  <SCORE.INTER>
-8.10819

>  <SCORE.INTER.CONST>
1

>  <SCORE.INTER.POLAR>
0

>  <SCORE.INTER.ROT>
10

>  <SCORE.INTER.SOLV>
7.42348

>  <SCORE.INTER.VDW>
-18.1466

>  <SCORE.INTER.norm>
-0.238476

>  <SCORE.INTRA>
-0.799967

>  <SCORE.INTRA.DIHEDRAL>
0.96656

>  <SCORE.INTRA.DIHEDRAL.0>
12.2703

>  <SCORE.INTRA.POLAR>
0

>  <SCORE.INTRA.POLAR.0>
0

>  <SCORE.INTRA.REPUL>
0

>  <SCORE.INTRA.REPUL.0>
0

>  <SCORE.INTRA.SOLV>
3.23936

>  <SCORE.INTRA.SOLV.lig_0>
-64.3214

>  <SCORE.INTRA.VDW>
-2.90293

>  <SCORE.INTRA.VDW.0>
-1.67301

>  <SCORE.INTRA.norm>
-0.0235285

>  <SCORE.RESTR>
0

>  <SCORE.RESTR.CAVITY>
0

>  <SCORE.RESTR.norm>
0

>  <SCORE.SYSTEM>
0

>  <SCORE.SYSTEM.CONST>
0

>  <SCORE.SYSTEM.DIHEDRAL>
0

>  <SCORE.SYSTEM.SOLV>
0

>  <SCORE.SYSTEM.norm>
0

>  <SCORE.heavy>
34

>  <SCORE.norm>
-0.262004

>  <RMSD>
17.865

$$$$
ligand
 OpenBabel11021811483D
libRbt.so/2013.1/901 2013/11/27
 34 36  0  0  0  0  0  0  0  0999 V2000
    8.4707   46.2632   55.7886 N   0  0  0  0  0  0  0  0  0  0  0  0
    9.8395   45.8486   55.4020 C   0  0  1  0  0  0  0  0  0  0  0  0
    7.3888   45.4853   55.6535 C   0  0  0  0  0  0  0  0  0  0  0  0
    7.4088   44.3407   55.1923 O   0  0  0  0  0  0  0  0  0  0  0  0
    3.6390   42.5011   56.2110 N   0  0  0  0  0  0  0  0  0  0  0  0
   10.2561   44.6097   56.2124 C   0  0  0  0  0  0  0  0  0  0  0  0
   10.2108   44.8808   57.7223 C   0  0  0  0  0  0  0  0  0  0  0  0
   10.8226   43.7158   58.5152 C   0  0  0  0  0  0  0  0  0  0  0  0
   11.9386   43.9121   59.0510 O   0  0  0  0  0  0  0  0  0  0  0  0
   10.1592   42.6549   58.5704 O   0  0  0  0  0  0  0  0  0  0  0  0
    2.3505   44.0443   57.3585 N   0  0  0  0  0  0  0  0  0  0  0  0
   10.5642   46.3725   53.1776 O   0  0  0  0  0  0  0  0  0  0  0  0
    3.5264   43.4221   57.1647 C   0  0  0  0  0  0  0  0  0  0  0  0
    9.4026   44.4904   53.4890 O   0  0  0  0  0  0  0  0  0  0  0  0
    4.6388   43.7324   57.9571 N   0  0  0  0  0  0  0  0  0  0  0  0
    4.5108   44.6984   58.9459 C   0  0  0  0  0  0  0  0  0  0  0  0
    3.2913   45.3449   59.0986 C   0  0  0  0  0  0  0  0  0  0  0  0
    5.4750   44.9951   59.6469 O   0  0  0  0  0  0  0  0  0  0  0  0
    3.7386   46.1054   61.2720 C   0  0  0  0  0  0  0  0  0  0  0  0
    3.0968   46.2690   60.1191 N   0  0  0  0  0  0  0  0  0  0  0  0
    3.1797   45.5692   62.2262 O   0  0  0  0  0  0  0  0  0  0  0  0
    2.0474   47.2855   59.9857 C   0  0  2  0  0  0  0  0  0  0  0  0
    0.7446   46.5956   59.5732 C   0  0  0  0  0  0  0  0  0  0  0  0
    2.2090   44.9802   58.3093 C   0  0  0  0  0  0  0  0  0  0  0  0
    0.9691   45.6017   58.4946 N   0  0  0  0  0  0  0  0  0  0  0  0
    2.4451   48.3334   58.9405 C   0  0  0  0  0  0  0  0  0  0  0  0
    2.5497   47.6997   57.6204 N   0  0  0  0  0  0  0  0  0  0  0  0
    6.0808   46.1102   56.1717 C   0  0  0  0  0  0  0  0  0  0  0  0
    4.8582   45.7710   55.5973 C   0  0  0  0  0  0  0  0  0  0  0  0
    3.6702   46.2947   56.1036 C   0  0  0  0  0  0  0  0  0  0  0  0
    3.6956   47.1983   57.1607 C   0  0  0  0  0  0  0  0  0  0  0  0
    4.9164   47.5450   57.7297 C   0  0  0  0  0  0  0  0  0  0  0  0
    6.1026   46.9941   57.2469 C   0  0  0  0  0  0  0  0  0  0  0  0
    9.9473   45.5466   53.8931 C   0  0  0  0  0  0  0  0  0  0  0  0
  1  3  1  0  0  0  0
  2  1  1  6  0  0  0
  2  6  1  0  0  0  0
  2 34  1  0  0  0  0
  3  4  2  0  0  0  0
  3 28  1  0  0  0  0
  5 13  1  0  0  0  0
  6  7  1  0  0  0  0
  7  8  1  0  0  0  0
  8  9  1  0  0  0  0
  8 10  1  0  0  0  0
 11 13  2  0  0  0  0
 11 24  1  0  0  0  0
 12 34  1  0  0  0  0
 13 15  1  0  0  0  0
 14 34  1  0  0  0  0
 15 16  1  0  0  0  0
 16 17  1  0  0  0  0
 16 18  2  0  0  0  0
 17 20  1  0  0  0  0
 17 24  2  0  0  0  0
 19 21  1  0  0  0  0
 19 20  1  0  0  0  0
 20 22  1  0  0  0  0
 22 23  1  0  0  0  0
 22 26  1  6  0  0  0
 23 25  1  0  0  0  0
 24 25  1  0  0  0  0
 26 27  1  0  0  0  0
 27 31  1  0  0  0  0
 28 29  2  0  0  0  0
 28 33  1  0  0  0  0
 29 30  1  0  0  0  0
 30 31  2  0  0  0  0
 31 32  1  0  0  0  0
 32 33  2  0  0  0  0
M  END
>  <CHROM.1>
-60.52000145,-58.44672269,107.36642344,-171.61522724,108.02697045,-97.35426752
64.03396839,-91.53463602,161.95966539,150.35026145,5.80123134,45.40789349
57.53821349,0.35938036,0.25016106,-1.35495551

>  <Name>
ligand

>  <RI>
0

>  <Rbt.Current_Directory>
/home/itssahil/PROJECTS/Mol_Feturizer/New_Systems/rnas/3SUH

>  <Rbt.Executable>
rbdock ($Id: //depot/dev/client3/rdock/2013.1/src/exe/rbdock.cxx#4 $)

>  <Rbt.Library>
libRbt.so (2013.1, Build901 2013/11/27)

>  <Rbt.Parameter_File>
/export/apps/rDock/src/rDock_2013.1_src/data/scripts/dock_solv.prm

>  <Rbt.Receptor>
prm/blind_docking_100.prm

>  <SCORE>
-5.88419

>  <SCORE.INTER>
-2.46875

>  <SCORE.INTER.CONST>
1

>  <SCORE.INTER.POLAR>
0

>  <SCORE.INTER.ROT>
10

>  <SCORE.INTER.SOLV>
11.1695

>  <SCORE.INTER.VDW>
-15.6357

>  <SCORE.INTER.norm>
-0.0726103

>  <SCORE.INTRA>
-3.41544

>  <SCORE.INTRA.DIHEDRAL>
-5.15744

>  <SCORE.INTRA.DIHEDRAL.0>
12.2703

>  <SCORE.INTRA.POLAR>
0

>  <SCORE.INTRA.POLAR.0>
0

>  <SCORE.INTRA.REPUL>
0

>  <SCORE.INTRA.REPUL.0>
0

>  <SCORE.INTRA.SOLV>
3.67119

>  <SCORE.INTRA.SOLV.lig_0>
-64.3214

>  <SCORE.INTRA.VDW>
-2.67232

>  <SCORE.INTRA.VDW.0>
-1.67301

>  <SCORE.INTRA.norm>
-0.100454

>  <SCORE.RESTR>
0

>  <SCORE.RESTR.CAVITY>
0

>  <SCORE.RESTR.norm>
0

>  <SCORE.SYSTEM>
0

>  <SCORE.SYSTEM.CONST>
0

>  <SCORE.SYSTEM.DIHEDRAL>
0

>  <SCORE.SYSTEM.SOLV>
0

>  <SCORE.SYSTEM.norm>
0

>  <SCORE.heavy>
34

>  <SCORE.norm>
-0.173064

>  <RMSD>
17.931

$$$$
ligand
 OpenBabel11021811483D
libRbt.so/2013.1/901 2013/11/27
 34 36  0  0  0  0  0  0  0  0999 V2000
    3.5150   39.1782   55.8812 N   0  0  0  0  0  0  0  0  0  0  0  0
    2.5357   38.0803   56.0559 C   0  0  1  0  0  0  0  0  0  0  0  0
    4.6150   39.0838   55.1229 C   0  0  0  0  0  0  0  0  0  0  0  0
    4.9372   38.0758   54.4879 O   0  0  0  0  0  0  0  0  0  0  0  0
    6.8604   44.7677   60.2461 N   0  0  0  0  0  0  0  0  0  0  0  0
    1.4627   38.4978   57.0755 C   0  0  0  0  0  0  0  0  0  0  0  0
    2.0811   39.2075   58.2877 C   0  0  0  0  0  0  0  0  0  0  0  0
    0.9963   39.8210   59.1861 C   0  0  0  0  0  0  0  0  0  0  0  0
    0.5908   39.1276   60.1483 O   0  0  0  0  0  0  0  0  0  0  0  0
    0.5981   40.9716   58.8924 O   0  0  0  0  0  0  0  0  0  0  0  0
    6.3126   45.2563   58.0507 N   0  0  0  0  0  0  0  0  0  0  0  0
    0.7352   38.1722   54.4755 O   0  0  0  0  0  0  0  0  0  0  0  0
    7.2201   45.2030   59.0412 C   0  0  0  0  0  0  0  0  0  0  0  0
    2.5035   36.9000   53.9820 O   0  0  0  0  0  0  0  0  0  0  0  0
    8.5446   45.6010   58.8200 N   0  0  0  0  0  0  0  0  0  0  0  0
    8.9095   46.0487   57.5575 C   0  0  0  0  0  0  0  0  0  0  0  0
    7.9557   46.0611   56.5483 C   0  0  0  0  0  0  0  0  0  0  0  0
   10.0676   46.3936   57.3363 O   0  0  0  0  0  0  0  0  0  0  0  0
    9.1302   47.5624   55.1813 C   0  0  0  0  0  0  0  0  0  0  0  0
    8.2573   46.5652   55.2880 N   0  0  0  0  0  0  0  0  0  0  0  0
    9.6655   47.8098   54.1030 O   0  0  0  0  0  0  0  0  0  0  0  0
    7.4702   46.1336   54.1277 C   0  0  2  0  0  0  0  0  0  0  0  0
    5.9831   46.2691   54.4648 C   0  0  0  0  0  0  0  0  0  0  0  0
    6.6479   45.6862   56.8248 C   0  0  0  0  0  0  0  0  0  0  0  0
    5.6781   45.7415   55.8176 N   0  0  0  0  0  0  0  0  0  0  0  0
    7.8003   44.6816   53.7653 C   0  0  0  0  0  0  0  0  0  0  0  0
    7.7053   43.8392   54.9639 N   0  0  0  0  0  0  0  0  0  0  0  0
    5.4567   40.3708   55.0510 C   0  0  0  0  0  0  0  0  0  0  0  0
    4.8400   41.6193   55.0256 C   0  0  0  0  0  0  0  0  0  0  0  0
    5.6040   42.7846   55.0168 C   0  0  0  0  0  0  0  0  0  0  0  0
    6.9927   42.7133   54.9877 C   0  0  0  0  0  0  0  0  0  0  0  0
    7.6102   41.4672   55.0040 C   0  0  0  0  0  0  0  0  0  0  0  0
    6.8470   40.3013   55.0488 C   0  0  0  0  0  0  0  0  0  0  0  0
    1.8653   37.6864   54.7235 C   0  0  0  0  0  0  0  0  0  0  0  0
  1  3  1  0  0  0  0
  2  1  1  6  0  0  0
  2  6  1  0  0  0  0
  2 34  1  0  0  0  0
  3  4  2  0  0  0  0
  3 28  1  0  0  0  0
  5 13  1  0  0  0  0
  6  7  1  0  0  0  0
  7  8  1  0  0  0  0
  8  9  1  0  0  0  0
  8 10  1  0  0  0  0
 11 13  2  0  0  0  0
 11 24  1  0  0  0  0
 12 34  1  0  0  0  0
 13 15  1  0  0  0  0
 14 34  1  0  0  0  0
 15 16  1  0  0  0  0
 16 17  1  0  0  0  0
 16 18  2  0  0  0  0
 17 20  1  0  0  0  0
 17 24  2  0  0  0  0
 19 21  1  0  0  0  0
 19 20  1  0  0  0  0
 20 22  1  0  0  0  0
 22 23  1  0  0  0  0
 22 26  1  1  0  0  0
 23 25  1  0  0  0  0
 24 25  1  0  0  0  0
 26 27  1  0  0  0  0
 27 31  1  0  0  0  0
 28 29  2  0  0  0  0
 28 33  1  0  0  0  0
 29 30  1  0  0  0  0
 30 31  2  0  0  0  0
 31 32  1  0  0  0  0
 32 33  2  0  0  0  0
M  END
>  <CHROM.1>
175.55164123,-42.95947212,-97.80226300,170.76061462,93.78943906,161.94616756
50.57877010,129.02594768,-73.44633047,-36.65141898,5.47417234,42.55544831
56.20467660,-2.71942600,0.80365066,0.96697106

>  <Name>
ligand

>  <RI>
0

>  <Rbt.Current_Directory>
/home/itssahil/PROJECTS/Mol_Feturizer/New_Systems/rnas/3SUH

>  <Rbt.Executable>
rbdock ($Id: //depot/dev/client3/rdock/2013.1/src/exe/rbdock.cxx#4 $)

>  <Rbt.Library>
libRbt.so (2013.1, Build901 2013/11/27)

>  <Rbt.Parameter_File>
/export/apps/rDock/src/rDock_2013.1_src/data/scripts/dock_solv.prm

>  <Rbt.Receptor>
prm/blind_docking_100.prm

>  <SCORE>
-11.2288

>  <SCORE.INTER>
-10.6466

>  <SCORE.INTER.CONST>
1

>  <SCORE.INTER.POLAR>
0

>  <SCORE.INTER.ROT>
10

>  <SCORE.INTER.SOLV>
16.0862

>  <SCORE.INTER.VDW>
-22.7265

>  <SCORE.INTER.norm>
-0.313136

>  <SCORE.INTRA>
-1.11835

>  <SCORE.INTRA.DIHEDRAL>
-3.16432

>  <SCORE.INTRA.DIHEDRAL.0>
12.2703

>  <SCORE.INTRA.POLAR>
0

>  <SCORE.INTRA.POLAR.0>
0

>  <SCORE.INTRA.REPUL>
0

>  <SCORE.INTRA.REPUL.0>
0

>  <SCORE.INTRA.SOLV>
2.52696

>  <SCORE.INTRA.SOLV.lig_0>
-64.3214

>  <SCORE.INTRA.VDW>
-0.799674

>  <SCORE.INTRA.VDW.0>
-1.67301

>  <SCORE.INTRA.norm>
-0.0328928

>  <SCORE.RESTR>
0.536212

>  <SCORE.RESTR.CAVITY>
0.536212

>  <SCORE.RESTR.norm>
0.0157709

>  <SCORE.SYSTEM>
0

>  <SCORE.SYSTEM.CONST>
0

>  <SCORE.SYSTEM.DIHEDRAL>
0

>  <SCORE.SYSTEM.SOLV>
0

>  <SCORE.SYSTEM.norm>
0

>  <SCORE.heavy>
34

>  <SCORE.norm>
-0.330258

>  <RMSD>
18.018

$$$$
ligand
 OpenBabel11021811483D
libRbt.so/2013.1/901 2013/11/27
 34 36  0  0  0  0  0  0  0  0999 V2000
    8.3236   44.5868   57.4878 N   0  0  0  0  0  0  0  0  0  0  0  0
    8.8490   45.7409   58.2539 C   0  0  1  0  0  0  0  0  0  0  0  0
    8.2533   44.5477   56.1508 C   0  0  0  0  0  0  0  0  0  0  0  0
    8.6149   45.4652   55.4087 O   0  0  0  0  0  0  0  0  0  0  0  0
    2.0999   41.4627   59.7800 N   0  0  0  0  0  0  0  0  0  0  0  0
    7.7190   46.7517   58.5120 C   0  0  0  0  0  0  0  0  0  0  0  0
    6.5544   46.1130   59.2808 C   0  0  0  0  0  0  0  0  0  0  0  0
    5.3951   47.1051   59.4593 C   0  0  0  0  0  0  0  0  0  0  0  0
    5.4489   47.8765   60.4457 O   0  0  0  0  0  0  0  0  0  0  0  0
    4.4812   47.0719   58.6034 O   0  0  0  0  0  0  0  0  0  0  0  0
    2.5557   39.8097   58.2250 N   0  0  0  0  0  0  0  0  0  0  0  0
    8.9749   44.3172   60.1788 O   0  0  0  0  0  0  0  0  0  0  0  0
    2.4369   41.1108   58.5419 C   0  0  0  0  0  0  0  0  0  0  0  0
   10.4523   45.9833   60.0049 O   0  0  0  0  0  0  0  0  0  0  0  0
    2.6646   42.1046   57.5815 N   0  0  0  0  0  0  0  0  0  0  0  0
    3.0205   41.7257   56.2941 C   0  0  0  0  0  0  0  0  0  0  0  0
    3.1659   40.3745   56.0084 C   0  0  0  0  0  0  0  0  0  0  0  0
    3.2353   42.5792   55.4371 O   0  0  0  0  0  0  0  0  0  0  0  0
    2.9869   40.6410   53.6848 C   0  0  0  0  0  0  0  0  0  0  0  0
    3.4535   39.9455   54.7174 N   0  0  0  0  0  0  0  0  0  0  0  0
    2.0356   40.2219   53.0294 O   0  0  0  0  0  0  0  0  0  0  0  0
    4.0879   38.6387   54.5128 C   0  0  2  0  0  0  0  0  0  0  0  0
    3.3162   37.5870   55.3140 C   0  0  0  0  0  0  0  0  0  0  0  0
    2.8988   39.4257   56.9861 C   0  0  0  0  0  0  0  0  0  0  0  0
    3.0028   38.0635   56.6837 N   0  0  0  0  0  0  0  0  0  0  0  0
    5.5524   38.6767   54.9625 C   0  0  0  0  0  0  0  0  0  0  0  0
    6.3023   39.6206   54.1246 N   0  0  0  0  0  0  0  0  0  0  0  0
    7.7201   43.2233   55.5751 C   0  0  0  0  0  0  0  0  0  0  0  0
    8.5999   42.2217   55.1720 C   0  0  0  0  0  0  0  0  0  0  0  0
    8.1152   41.0023   54.7031 C   0  0  0  0  0  0  0  0  0  0  0  0
    6.7456   40.7880   54.5899 C   0  0  0  0  0  0  0  0  0  0  0  0
    5.8657   41.7906   54.9835 C   0  0  0  0  0  0  0  0  0  0  0  0
    6.3494   42.9976   55.4862 C   0  0  0  0  0  0  0  0  0  0  0  0
    9.4781   45.3068   59.5939 C   0  0  0  0  0  0  0  0  0  0  0  0
  1  3  1  0  0  0  0
  2  1  1  1  0  0  0
  2  6  1  0  0  0  0
  2 34  1  0  0  0  0
  3  4  2  0  0  0  0
  3 28  1  0  0  0  0
  5 13  1  0  0  0  0
  6  7  1  0  0  0  0
  7  8  1  0  0  0  0
  8  9  1  0  0  0  0
  8 10  1  0  0  0  0
 11 13  2  0  0  0  0
 11 24  1  0  0  0  0
 12 34  1  0  0  0  0
 13 15  1  0  0  0  0
 14 34  1  0  0  0  0
 15 16  1  0  0  0  0
 16 17  1  0  0  0  0
 16 18  2  0  0  0  0
 17 20  1  0  0  0  0
 17 24  2  0  0  0  0
 19 21  1  0  0  0  0
 19 20  1  0  0  0  0
 20 22  1  0  0  0  0
 22 23  1  0  0  0  0
 22 26  1  1  0  0  0
 23 25  1  0  0  0  0
 24 25  1  0  0  0  0
 26 27  1  0  0  0  0
 27 31  1  0  0  0  0
 28 29  2  0  0  0  0
 28 33  1  0  0  0  0
 29 30  1  0  0  0  0
 30 31  2  0  0  0  0
 31 32  1  0  0  0  0
 32 33  2  0  0  0  0
M  END
>  <CHROM.1>
87.03239612,58.37856181,-33.00673125,-176.54236111,-85.86688125,-104.86565049
-63.74409363,109.24010219,113.47074730,-94.75929390,5.54119035,42.57033032
56.80315696,-0.97944418,-0.36572821,-2.40565089

>  <Name>
ligand

>  <RI>
0

>  <Rbt.Current_Directory>
/home/itssahil/PROJECTS/Mol_Feturizer/New_Systems/rnas/3SUH

>  <Rbt.Executable>
rbdock ($Id: //depot/dev/client3/rdock/2013.1/src/exe/rbdock.cxx#4 $)

>  <Rbt.Library>
libRbt.so (2013.1, Build901 2013/11/27)

>  <Rbt.Parameter_File>
/export/apps/rDock/src/rDock_2013.1_src/data/scripts/dock_solv.prm

>  <Rbt.Receptor>
prm/blind_docking_100.prm

>  <SCORE>
-12.1916

>  <SCORE.INTER>
-8.90726

>  <SCORE.INTER.CONST>
1

>  <SCORE.INTER.POLAR>
0

>  <SCORE.INTER.ROT>
10

>  <SCORE.INTER.SOLV>
24.8368

>  <SCORE.INTER.VDW>
-24.4838

>  <SCORE.INTER.norm>
-0.261978

>  <SCORE.INTRA>
-4.95175

>  <SCORE.INTRA.DIHEDRAL>
-4.37224

>  <SCORE.INTRA.DIHEDRAL.0>
12.2703

>  <SCORE.INTRA.POLAR>
0

>  <SCORE.INTRA.POLAR.0>
0

>  <SCORE.INTRA.REPUL>
0

>  <SCORE.INTRA.REPUL.0>
0

>  <SCORE.INTRA.SOLV>
-0.220388

>  <SCORE.INTRA.SOLV.lig_0>
-64.3214

>  <SCORE.INTRA.VDW>
-2.65543

>  <SCORE.INTRA.VDW.0>
-1.67301

>  <SCORE.INTRA.norm>
-0.14564

>  <SCORE.RESTR>
1.66739

>  <SCORE.RESTR.CAVITY>
1.66739

>  <SCORE.RESTR.norm>
0.0490409

>  <SCORE.SYSTEM>
0

>  <SCORE.SYSTEM.CONST>
0

>  <SCORE.SYSTEM.DIHEDRAL>
0

>  <SCORE.SYSTEM.SOLV>
0

>  <SCORE.SYSTEM.norm>
0

>  <SCORE.heavy>
34

>  <SCORE.norm>
-0.358577

>  <RMSD>
18.107

$$$$
ligand
 OpenBabel11021811483D
libRbt.so/2013.1/901 2013/11/27
 34 36  0  0  0  0  0  0  0  0999 V2000
    7.9132   45.1646   55.9312 N   0  0  0  0  0  0  0  0  0  0  0  0
    8.7431   45.0378   54.7105 C   0  0  1  0  0  0  0  0  0  0  0  0
    8.2544   45.9074   56.9923 C   0  0  0  0  0  0  0  0  0  0  0  0
    9.2948   46.5662   57.0739 O   0  0  0  0  0  0  0  0  0  0  0  0
    3.7921   44.5845   55.6672 N   0  0  0  0  0  0  0  0  0  0  0  0
    8.4513   43.6948   54.0203 C   0  0  0  0  0  0  0  0  0  0  0  0
    8.7271   42.5083   54.9538 C   0  0  0  0  0  0  0  0  0  0  0  0
    8.2232   41.1915   54.3435 C   0  0  0  0  0  0  0  0  0  0  0  0
    7.2502   40.6360   54.9053 O   0  0  0  0  0  0  0  0  0  0  0  0
    8.8208   40.7705   53.3264 O   0  0  0  0  0  0  0  0  0  0  0  0
    3.4518   46.2950   57.1892 N   0  0  0  0  0  0  0  0  0  0  0  0
    9.5044   46.7681   53.2359 O   0  0  0  0  0  0  0  0  0  0  0  0
    3.3214   45.0036   56.8390 C   0  0  0  0  0  0  0  0  0  0  0  0
    7.3019   46.4880   53.4795 O   0  0  0  0  0  0  0  0  0  0  0  0
    2.6941   44.0901   57.6956 N   0  0  0  0  0  0  0  0  0  0  0  0
    2.2113   44.5378   58.9179 C   0  0  0  0  0  0  0  0  0  0  0  0
    2.3907   45.8710   59.2626 C   0  0  0  0  0  0  0  0  0  0  0  0
    1.6664   43.7534   59.6905 O   0  0  0  0  0  0  0  0  0  0  0  0
    0.7271   45.8757   60.9163 C   0  0  0  0  0  0  0  0  0  0  0  0
    1.8639   46.3791   60.4448 N   0  0  0  0  0  0  0  0  0  0  0  0
    0.5778   45.6958   62.1228 O   0  0  0  0  0  0  0  0  0  0  0  0
    2.4525   47.5830   61.0417 C   0  0  2  0  0  0  0  0  0  0  0  0
    2.5824   48.6558   59.9576 C   0  0  0  0  0  0  0  0  0  0  0  0
    2.9912   46.7448   58.3663 C   0  0  0  0  0  0  0  0  0  0  0  0
    3.1312   48.0971   58.6974 N   0  0  0  0  0  0  0  0  0  0  0  0
    3.8271   47.2676   61.6414 C   0  0  0  0  0  0  0  0  0  0  0  0
    4.3296   46.0041   61.0880 N   0  0  0  0  0  0  0  0  0  0  0  0
    7.2102   45.9279   58.1232 C   0  0  0  0  0  0  0  0  0  0  0  0
    6.7709   47.1361   58.6591 C   0  0  0  0  0  0  0  0  0  0  0  0
    5.7852   47.1554   59.6437 C   0  0  0  0  0  0  0  0  0  0  0  0
    5.2605   45.9648   60.1352 C   0  0  0  0  0  0  0  0  0  0  0  0
    5.7044   44.7570   59.6075 C   0  0  0  0  0  0  0  0  0  0  0  0
    6.6649   44.7381   58.5972 C   0  0  0  0  0  0  0  0  0  0  0  0
    8.4985   46.1971   53.7226 C   0  0  0  0  0  0  0  0  0  0  0  0
  1  3  1  0  0  0  0
  2  1  1  1  0  0  0
  2  6  1  0  0  0  0
  2 34  1  0  0  0  0
  3  4  2  0  0  0  0
  3 28  1  0  0  0  0
  5 13  1  0  0  0  0
  6  7  1  0  0  0  0
  7  8  1  0  0  0  0
  8  9  1  0  0  0  0
  8 10  1  0  0  0  0
 11 13  2  0  0  0  0
 11 24  1  0  0  0  0
 12 34  1  0  0  0  0
 13 15  1  0  0  0  0
 14 34  1  0  0  0  0
 15 16  1  0  0  0  0
 16 17  1  0  0  0  0
 16 18  2  0  0  0  0
 17 20  1  0  0  0  0
 17 24  2  0  0  0  0
 19 21  1  0  0  0  0
 19 20  1  0  0  0  0
 20 22  1  0  0  0  0
 22 23  1  0  0  0  0
 22 26  1  6  0  0  0
 23 25  1  0  0  0  0
 24 25  1  0  0  0  0
 26 27  1  0  0  0  0
 27 31  1  0  0  0  0
 28 29  2  0  0  0  0
 28 33  1  0  0  0  0
 29 30  1  0  0  0  0
 30 31  2  0  0  0  0
 31 32  1  0  0  0  0
 32 33  2  0  0  0  0
M  END
>  <CHROM.1>
153.56901048,-58.37106908,132.59325370,170.86136210,-111.98548200,140.42506748
17.69902778,102.56139566,0.24540577,-129.10363249,5.31697682,45.34471306
57.61831277,-0.58126422,0.59999788,0.47062390

>  <Name>
ligand

>  <RI>
0

>  <Rbt.Current_Directory>
/home/itssahil/PROJECTS/Mol_Feturizer/New_Systems/rnas/3SUH

>  <Rbt.Executable>
rbdock ($Id: //depot/dev/client3/rdock/2013.1/src/exe/rbdock.cxx#4 $)

>  <Rbt.Library>
libRbt.so (2013.1, Build901 2013/11/27)

>  <Rbt.Parameter_File>
/export/apps/rDock/src/rDock_2013.1_src/data/scripts/dock_solv.prm

>  <Rbt.Receptor>
prm/blind_docking_80.prm

>  <SCORE>
-9.78149

>  <SCORE.INTER>
-8.44711

>  <SCORE.INTER.CONST>
1

>  <SCORE.INTER.POLAR>
0

>  <SCORE.INTER.ROT>
10

>  <SCORE.INTER.SOLV>
7.81155

>  <SCORE.INTER.VDW>
-18.5019

>  <SCORE.INTER.norm>
-0.248445

>  <SCORE.INTRA>
-1.33437

>  <SCORE.INTRA.DIHEDRAL>
0.00630679

>  <SCORE.INTRA.DIHEDRAL.0>
12.2703

>  <SCORE.INTRA.POLAR>
0

>  <SCORE.INTRA.POLAR.0>
0

>  <SCORE.INTRA.REPUL>
0

>  <SCORE.INTRA.REPUL.0>
0

>  <SCORE.INTRA.SOLV>
2.86577

>  <SCORE.INTRA.SOLV.lig_0>
-64.3214

>  <SCORE.INTRA.VDW>
-2.77041

>  <SCORE.INTRA.VDW.0>
-1.67301

>  <SCORE.INTRA.norm>
-0.0392463

>  <SCORE.RESTR>
0

>  <SCORE.RESTR.CAVITY>
0

>  <SCORE.RESTR.norm>
0

>  <SCORE.SYSTEM>
0

>  <SCORE.SYSTEM.CONST>
0

>  <SCORE.SYSTEM.DIHEDRAL>
0

>  <SCORE.SYSTEM.SOLV>
0

>  <SCORE.SYSTEM.norm>
0

>  <SCORE.heavy>
34

>  <SCORE.norm>
-0.287691

>  <RMSD>
18.114

$$$$
ligand
 OpenBabel11021811483D
libRbt.so/2013.1/901 2013/11/27
 34 36  0  0  0  0  0  0  0  0999 V2000
    7.3204   45.5061   56.9698 N   0  0  0  0  0  0  0  0  0  0  0  0
    8.8018   45.5053   56.9863 C   0  0  1  0  0  0  0  0  0  0  0  0
    6.5788   44.5160   56.4563 C   0  0  0  0  0  0  0  0  0  0  0  0
    7.0432   43.4960   55.9393 O   0  0  0  0  0  0  0  0  0  0  0  0
    5.0189   45.4631   62.6690 N   0  0  0  0  0  0  0  0  0  0  0  0
    9.3379   45.7073   55.5590 C   0  0  0  0  0  0  0  0  0  0  0  0
    8.9048   47.0606   54.9791 C   0  0  0  0  0  0  0  0  0  0  0  0
    9.7120   47.4101   53.7196 C   0  0  0  0  0  0  0  0  0  0  0  0
    9.2660   47.0003   52.6222 O   0  0  0  0  0  0  0  0  0  0  0  0
   10.7565   48.0820   53.8816 O   0  0  0  0  0  0  0  0  0  0  0  0
    2.8693   45.8127   61.8846 N   0  0  0  0  0  0  0  0  0  0  0  0
    8.5708   47.4561   58.3606 O   0  0  0  0  0  0  0  0  0  0  0  0
    4.2001   45.8808   61.7070 C   0  0  0  0  0  0  0  0  0  0  0  0
   10.6002   46.5447   58.1614 O   0  0  0  0  0  0  0  0  0  0  0  0
    4.7378   46.3876   60.5171 N   0  0  0  0  0  0  0  0  0  0  0  0
    3.8738   46.8159   59.5183 C   0  0  0  0  0  0  0  0  0  0  0  0
    2.5047   46.7020   59.7211 C   0  0  0  0  0  0  0  0  0  0  0  0
    4.3214   47.2548   58.4619 O   0  0  0  0  0  0  0  0  0  0  0  0
    1.9263   48.2476   58.0542 C   0  0  0  0  0  0  0  0  0  0  0  0
    1.6018   47.1808   58.7783 N   0  0  0  0  0  0  0  0  0  0  0  0
    2.1386   49.3292   58.5979 O   0  0  0  0  0  0  0  0  0  0  0  0
    0.2411   46.6341   58.7355 C   0  0  2  0  0  0  0  0  0  0  0  0
   -0.3390   46.6483   60.1520 C   0  0  0  0  0  0  0  0  0  0  0  0
    2.0198   46.2220   60.9302 C   0  0  0  0  0  0  0  0  0  0  0  0
    0.6398   46.1495   61.1494 N   0  0  0  0  0  0  0  0  0  0  0  0
    0.2541   45.2046   58.1834 C   0  0  0  0  0  0  0  0  0  0  0  0
    0.9614   45.1779   56.8972 N   0  0  0  0  0  0  0  0  0  0  0  0
    5.0587   44.7129   56.5989 C   0  0  0  0  0  0  0  0  0  0  0  0
    4.3848   45.6272   55.7928 C   0  0  0  0  0  0  0  0  0  0  0  0
    3.0012   45.7643   55.8844 C   0  0  0  0  0  0  0  0  0  0  0  0
    2.2821   45.0211   56.8145 C   0  0  0  0  0  0  0  0  0  0  0  0
    2.9547   44.1140   57.6265 C   0  0  0  0  0  0  0  0  0  0  0  0
    4.3344   43.9505   57.5108 C   0  0  0  0  0  0  0  0  0  0  0  0
    9.3700   46.5963   57.9172 C   0  0  0  0  0  0  0  0  0  0  0  0
  1  3  1  0  0  0  0
  2  1  1  6  0  0  0
  2  6  1  0  0  0  0
  2 34  1  0  0  0  0
  3  4  2  0  0  0  0
  3 28  1  0  0  0  0
  5 13  1  0  0  0  0
  6  7  1  0  0  0  0
  7  8  1  0  0  0  0
  8  9  1  0  0  0  0
  8 10  1  0  0  0  0
 11 13  2  0  0  0  0
 11 24  1  0  0  0  0
 12 34  1  0  0  0  0
 13 15  1  0  0  0  0
 14 34  1  0  0  0  0
 15 16  1  0  0  0  0
 16 17  1  0  0  0  0
 16 18  2  0  0  0  0
 17 20  1  0  0  0  0
 17 24  2  0  0  0  0
 19 21  1  0  0  0  0
 19 20  1  0  0  0  0
 20 22  1  0  0  0  0
 22 23  1  0  0  0  0
 22 26  1  1  0  0  0
 23 25  1  0  0  0  0
 24 25  1  0  0  0  0
 26 27  1  0  0  0  0
 27 31  1  0  0  0  0
 28 29  2  0  0  0  0
 28 33  1  0  0  0  0
 29 30  1  0  0  0  0
 30 31  2  0  0  0  0
 31 32  1  0  0  0  0
 32 33  2  0  0  0  0
M  END
>  <CHROM.1>
71.00673849,61.95733990,-10.91390627,165.90634810,88.45549539,-61.74376857
-52.87085451,87.17906330,-139.85867495,74.65697099,4.95455698,46.20782919
57.84474426,-0.50087599,0.06147279,1.50844741

>  <Name>
ligand

>  <RI>
0

>  <Rbt.Current_Directory>
/home/itssahil/PROJECTS/Mol_Feturizer/New_Systems/rnas/3SUH

>  <Rbt.Executable>
rbdock ($Id: //depot/dev/client3/rdock/2013.1/src/exe/rbdock.cxx#4 $)

>  <Rbt.Library>
libRbt.so (2013.1, Build901 2013/11/27)

>  <Rbt.Parameter_File>
/export/apps/rDock/src/rDock_2013.1_src/data/scripts/dock_solv.prm

>  <Rbt.Receptor>
prm/blind_docking_100.prm

>  <SCORE>
-12.2381

>  <SCORE.INTER>
-6.39445

>  <SCORE.INTER.CONST>
1

>  <SCORE.INTER.POLAR>
0

>  <SCORE.INTER.ROT>
10

>  <SCORE.INTER.SOLV>
21.6499

>  <SCORE.INTER.VDW>
-21.7463

>  <SCORE.INTER.norm>
-0.188072

>  <SCORE.INTRA>
-5.89191

>  <SCORE.INTRA.DIHEDRAL>
-4.31401

>  <SCORE.INTRA.DIHEDRAL.0>
12.2703

>  <SCORE.INTRA.POLAR>
0

>  <SCORE.INTRA.POLAR.0>
0

>  <SCORE.INTRA.REPUL>
0

>  <SCORE.INTRA.REPUL.0>
0

>  <SCORE.INTRA.SOLV>
0.639185

>  <SCORE.INTRA.SOLV.lig_0>
-64.3214

>  <SCORE.INTRA.VDW>
-4.05449

>  <SCORE.INTRA.VDW.0>
-1.67301

>  <SCORE.INTRA.norm>
-0.173291

>  <SCORE.RESTR>
0.0482897

>  <SCORE.RESTR.CAVITY>
0.0482897

>  <SCORE.RESTR.norm>
0.00142029

>  <SCORE.SYSTEM>
0

>  <SCORE.SYSTEM.CONST>
0

>  <SCORE.SYSTEM.DIHEDRAL>
0

>  <SCORE.SYSTEM.SOLV>
0

>  <SCORE.SYSTEM.norm>
0

>  <SCORE.heavy>
34

>  <SCORE.norm>
-0.359943

>  <RMSD>
18.283

$$$$
ligand
 OpenBabel11021811483D
libRbt.so/2013.1/901 2013/11/27
 34 36  0  0  0  0  0  0  0  0999 V2000
    6.6727   45.5000   54.6297 N   0  0  0  0  0  0  0  0  0  0  0  0
    7.9605   45.1803   53.9709 C   0  0  1  0  0  0  0  0  0  0  0  0
    5.7068   44.6005   54.8573 C   0  0  0  0  0  0  0  0  0  0  0  0
    5.7787   43.4089   54.5438 O   0  0  0  0  0  0  0  0  0  0  0  0
    6.5507   45.5057   59.0040 N   0  0  0  0  0  0  0  0  0  0  0  0
    8.9287   46.3661   54.1182 C   0  0  0  0  0  0  0  0  0  0  0  0
    9.2701   46.6371   55.5897 C   0  0  0  0  0  0  0  0  0  0  0  0
   10.3335   47.7382   55.7204 C   0  0  0  0  0  0  0  0  0  0  0  0
   11.0235   47.9905   54.7049 O   0  0  0  0  0  0  0  0  0  0  0  0
   10.4313   48.3054   56.8328 O   0  0  0  0  0  0  0  0  0  0  0  0
    4.4095   44.6265   59.0296 N   0  0  0  0  0  0  0  0  0  0  0  0
    8.4186   43.6600   55.7671 O   0  0  0  0  0  0  0  0  0  0  0  0
    5.2587   45.6343   59.2951 C   0  0  0  0  0  0  0  0  0  0  0  0
    9.2765   43.2010   53.7566 O   0  0  0  0  0  0  0  0  0  0  0  0
    4.7989   46.8228   59.8762 N   0  0  0  0  0  0  0  0  0  0  0  0
    3.4479   46.9475   60.1711 C   0  0  0  0  0  0  0  0  0  0  0  0
    2.5926   45.9003   59.8547 C   0  0  0  0  0  0  0  0  0  0  0  0
    3.0190   47.9841   60.6717 O   0  0  0  0  0  0  0  0  0  0  0  0
    0.8795   46.5985   61.2969 C   0  0  0  0  0  0  0  0  0  0  0  0
    1.2451   45.9528   60.1937 N   0  0  0  0  0  0  0  0  0  0  0  0
    0.9362   46.0435   62.3920 O   0  0  0  0  0  0  0  0  0  0  0  0
    0.2789   45.1365   59.4506 C   0  0  2  0  0  0  0  0  0  0  0  0
    0.8022   43.6997   59.3782 C   0  0  0  0  0  0  0  0  0  0  0  0
    3.1011   44.7299   59.3079 C   0  0  0  0  0  0  0  0  0  0  0  0
    2.2441   43.6591   59.0308 N   0  0  0  0  0  0  0  0  0  0  0  0
    0.0759   45.6973   58.0389 C   0  0  0  0  0  0  0  0  0  0  0  0
    1.2020   46.5713   57.6877 N   0  0  0  0  0  0  0  0  0  0  0  0
    4.4786   45.1530   55.6030 C   0  0  0  0  0  0  0  0  0  0  0  0
    3.2758   44.4507   55.6035 C   0  0  0  0  0  0  0  0  0  0  0  0
    2.1816   44.9241   56.3248 C   0  0  0  0  0  0  0  0  0  0  0  0
    2.2644   46.1279   57.0166 C   0  0  0  0  0  0  0  0  0  0  0  0
    3.4620   46.8350   57.0098 C   0  0  0  0  0  0  0  0  0  0  0  0
    4.5682   46.3442   56.3177 C   0  0  0  0  0  0  0  0  0  0  0  0
    8.6051   43.9042   54.5505 C   0  0  0  0  0  0  0  0  0  0  0  0
  1  3  1  0  0  0  0
  2  1  1  1  0  0  0
  2  6  1  0  0  0  0
  2 34  1  0  0  0  0
  3  4  2  0  0  0  0
  3 28  1  0  0  0  0
  5 13  1  0  0  0  0
  6  7  1  0  0  0  0
  7  8  1  0  0  0  0
  8  9  1  0  0  0  0
  8 10  1  0  0  0  0
 11 13  2  0  0  0  0
 11 24  1  0  0  0  0
 12 34  1  0  0  0  0
 13 15  1  0  0  0  0
 14 34  1  0  0  0  0
 15 16  1  0  0  0  0
 16 17  1  0  0  0  0
 16 18  2  0  0  0  0
 17 20  1  0  0  0  0
 17 24  2  0  0  0  0
 19 21  1  0  0  0  0
 19 20  1  0  0  0  0
 20 22  1  0  0  0  0
 22 23  1  0  0  0  0
 22 26  1  6  0  0  0
 23 25  1  0  0  0  0
 24 25  1  0  0  0  0
 26 27  1  0  0  0  0
 27 31  1  0  0  0  0
 28 29  2  0  0  0  0
 28 33  1  0  0  0  0
 29 30  1  0  0  0  0
 30 31  2  0  0  0  0
 31 32  1  0  0  0  0
 32 33  2  0  0  0  0
M  END
>  <CHROM.1>
-169.03981570,63.11632373,-32.64877865,174.86641630,-19.02459952,-83.00480611
19.15215462,94.09161531,17.08115926,163.25988464,4.89055231,45.64935238,57.40911453
0.45154247,-0.37309273,-2.20483953

>  <Name>
ligand

>  <RI>
0

>  <Rbt.Current_Directory>
/home/itssahil/PROJECTS/Mol_Feturizer/New_Systems/rnas/3SUH

>  <Rbt.Executable>
rbdock ($Id: //depot/dev/client3/rdock/2013.1/src/exe/rbdock.cxx#4 $)

>  <Rbt.Library>
libRbt.so (2013.1, Build901 2013/11/27)

>  <Rbt.Parameter_File>
/export/apps/rDock/src/rDock_2013.1_src/data/scripts/dock_solv.prm

>  <Rbt.Receptor>
prm/blind_docking_100.prm

>  <SCORE>
-11.952

>  <SCORE.INTER>
-11.5577

>  <SCORE.INTER.CONST>
1

>  <SCORE.INTER.POLAR>
0

>  <SCORE.INTER.ROT>
10

>  <SCORE.INTER.SOLV>
9.39189

>  <SCORE.INTER.VDW>
-21.1025

>  <SCORE.INTER.norm>
-0.339933

>  <SCORE.INTRA>
-0.405881

>  <SCORE.INTRA.DIHEDRAL>
-1.17762

>  <SCORE.INTRA.DIHEDRAL.0>
12.2703

>  <SCORE.INTRA.POLAR>
0

>  <SCORE.INTRA.POLAR.0>
0

>  <SCORE.INTRA.REPUL>
0

>  <SCORE.INTRA.REPUL.0>
0

>  <SCORE.INTRA.SOLV>
3.86537

>  <SCORE.INTRA.SOLV.lig_0>
-64.3214

>  <SCORE.INTRA.VDW>
-1.74976

>  <SCORE.INTRA.VDW.0>
-1.67301

>  <SCORE.INTRA.norm>
-0.0119377

>  <SCORE.RESTR>
0.0115678

>  <SCORE.RESTR.CAVITY>
0.0115678

>  <SCORE.RESTR.norm>
0.000340229

>  <SCORE.SYSTEM>
0

>  <SCORE.SYSTEM.CONST>
0

>  <SCORE.SYSTEM.DIHEDRAL>
0

>  <SCORE.SYSTEM.SOLV>
0

>  <SCORE.SYSTEM.norm>
0

>  <SCORE.heavy>
34

>  <SCORE.norm>
-0.351531

>  <RMSD>
18.437

$$$$
ligand
 OpenBabel11021811483D
libRbt.so/2013.1/901 2013/11/27
 34 36  0  0  0  0  0  0  0  0999 V2000
    7.6536   45.5062   54.7085 N   0  0  0  0  0  0  0  0  0  0  0  0
    9.0011   45.1353   54.2171 C   0  0  1  0  0  0  0  0  0  0  0  0
    7.1476   45.0987   55.8797 C   0  0  0  0  0  0  0  0  0  0  0  0
    7.7429   44.3699   56.6783 O   0  0  0  0  0  0  0  0  0  0  0  0
    1.1365   40.0822   58.9630 N   0  0  0  0  0  0  0  0  0  0  0  0
    8.9234   43.8150   53.4323 C   0  0  0  0  0  0  0  0  0  0  0  0
    8.2860   42.6972   54.2688 C   0  0  0  0  0  0  0  0  0  0  0  0
    7.7712   41.5584   53.3753 C   0  0  0  0  0  0  0  0  0  0  0  0
    7.9751   40.3859   53.7687 O   0  0  0  0  0  0  0  0  0  0  0  0
    7.1825   41.8856   52.3193 O   0  0  0  0  0  0  0  0  0  0  0  0
    0.6881   42.2868   59.5084 N   0  0  0  0  0  0  0  0  0  0  0  0
    9.2966   47.4253   53.5718 O   0  0  0  0  0  0  0  0  0  0  0  0
    1.5222   41.3546   59.0158 C   0  0  0  0  0  0  0  0  0  0  0  0
   10.3920   45.8579   52.4175 O   0  0  0  0  0  0  0  0  0  0  0  0
    2.7972   41.7072   58.5555 N   0  0  0  0  0  0  0  0  0  0  0  0
    3.1870   43.0385   58.6109 C   0  0  0  0  0  0  0  0  0  0  0  0
    2.2895   43.9808   59.0956 C   0  0  0  0  0  0  0  0  0  0  0  0
    4.2964   43.3739   58.2037 O   0  0  0  0  0  0  0  0  0  0  0  0
    3.9225   45.6078   59.5299 C   0  0  0  0  0  0  0  0  0  0  0  0
    2.6601   45.3139   59.2336 N   0  0  0  0  0  0  0  0  0  0  0  0
    4.2524   45.8420   60.6904 O   0  0  0  0  0  0  0  0  0  0  0  0
    1.6268   46.3551   59.2498 C   0  0  2  0  0  0  0  0  0  0  0  0
    0.5373   45.9509   60.2464 C   0  0  0  0  0  0  0  0  0  0  0  0
    1.0483   43.5777   59.5694 C   0  0  0  0  0  0  0  0  0  0  0  0
    0.1625   44.5229   60.0983 N   0  0  0  0  0  0  0  0  0  0  0  0
    1.0247   46.5355   57.8521 C   0  0  0  0  0  0  0  0  0  0  0  0
    1.9957   47.2056   56.9784 N   0  0  0  0  0  0  0  0  0  0  0  0
    5.7482   45.6537   56.2017 C   0  0  0  0  0  0  0  0  0  0  0  0
    5.6038   46.8887   56.8292 C   0  0  0  0  0  0  0  0  0  0  0  0
    4.3362   47.4150   57.0697 C   0  0  0  0  0  0  0  0  0  0  0  0
    3.1990   46.6917   56.7260 C   0  0  0  0  0  0  0  0  0  0  0  0
    3.3414   45.4542   56.1074 C   0  0  0  0  0  0  0  0  0  0  0  0
    4.6092   44.9429   55.8341 C   0  0  0  0  0  0  0  0  0  0  0  0
    9.6154   46.2363   53.3282 C   0  0  0  0  0  0  0  0  0  0  0  0
  1  3  1  0  0  0  0
  2  1  1  6  0  0  0
  2  6  1  0  0  0  0
  2 34  1  0  0  0  0
  3  4  2  0  0  0  0
  3 28  1  0  0  0  0
  5 13  1  0  0  0  0
  6  7  1  0  0  0  0
  7  8  1  0  0  0  0
  8  9  1  0  0  0  0
  8 10  1  0  0  0  0
 11 13  2  0  0  0  0
 11 24  1  0  0  0  0
 12 34  1  0  0  0  0
 13 15  1  0  0  0  0
 14 34  1  0  0  0  0
 15 16  1  0  0  0  0
 16 17  1  0  0  0  0
 16 18  2  0  0  0  0
 17 20  1  0  0  0  0
 17 24  2  0  0  0  0
 19 21  1  0  0  0  0
 19 20  1  0  0  0  0
 20 22  1  0  0  0  0
 22 23  1  0  0  0  0
 22 26  1  6  0  0  0
 23 25  1  0  0  0  0
 24 25  1  0  0  0  0
 26 27  1  0  0  0  0
 27 31  1  0  0  0  0
 28 29  2  0  0  0  0
 28 33  1  0  0  0  0
 29 30  1  0  0  0  0
 30 31  2  0  0  0  0
 31 32  1  0  0  0  0
 32 33  2  0  0  0  0
M  END
>  <CHROM.1>
88.34512287,-55.09682849,30.74915861,160.46997077,138.32854123,-97.70142817
-72.42312515,59.24166793,-120.06069039,-86.46438224,4.81872769,44.49277418
56.78903747,-0.06145452,0.67051630,0.12539692

>  <Name>
ligand

>  <RI>
0

>  <Rbt.Current_Directory>
/home/itssahil/PROJECTS/Mol_Feturizer/New_Systems/rnas/3SUH

>  <Rbt.Executable>
rbdock ($Id: //depot/dev/client3/rdock/2013.1/src/exe/rbdock.cxx#4 $)

>  <Rbt.Library>
libRbt.so (2013.1, Build901 2013/11/27)

>  <Rbt.Parameter_File>
/export/apps/rDock/src/rDock_2013.1_src/data/scripts/dock_solv.prm

>  <Rbt.Receptor>
prm/blind_docking_100.prm

>  <SCORE>
-14.8772

>  <SCORE.INTER>
-11.4898

>  <SCORE.INTER.CONST>
1

>  <SCORE.INTER.POLAR>
0

>  <SCORE.INTER.ROT>
10

>  <SCORE.INTER.SOLV>
15.0742

>  <SCORE.INTER.VDW>
-22.9513

>  <SCORE.INTER.norm>
-0.337937

>  <SCORE.INTRA>
-3.40149

>  <SCORE.INTRA.DIHEDRAL>
-3.52762

>  <SCORE.INTRA.DIHEDRAL.0>
12.2703

>  <SCORE.INTRA.POLAR>
0

>  <SCORE.INTRA.POLAR.0>
0

>  <SCORE.INTRA.REPUL>
0

>  <SCORE.INTRA.REPUL.0>
0

>  <SCORE.INTRA.SOLV>
0.373013

>  <SCORE.INTRA.SOLV.lig_0>
-64.3214

>  <SCORE.INTRA.VDW>
-1.82419

>  <SCORE.INTRA.VDW.0>
-1.67301

>  <SCORE.INTRA.norm>
-0.100044

>  <SCORE.RESTR>
0.0141333

>  <SCORE.RESTR.CAVITY>
0.0141333

>  <SCORE.RESTR.norm>
0.000415687

>  <SCORE.SYSTEM>
0

>  <SCORE.SYSTEM.CONST>
0

>  <SCORE.SYSTEM.DIHEDRAL>
0

>  <SCORE.SYSTEM.SOLV>
0

>  <SCORE.SYSTEM.norm>
0

>  <SCORE.heavy>
34

>  <SCORE.norm>
-0.437565

>  <RMSD>
19.014

$$$$
ligand
 OpenBabel11021811483D
libRbt.so/2013.1/901 2013/11/27
 34 36  0  0  0  0  0  0  0  0999 V2000
   18.8456   24.7351   62.7445 N   0  0  0  0  0  0  0  0  0  0  0  0
   20.1429   25.3891   63.0344 C   0  0  1  0  0  0  0  0  0  0  0  0
   18.4054   23.6378   63.3739 C   0  0  0  0  0  0  0  0  0  0  0  0
   19.0284   23.0485   64.2615 O   0  0  0  0  0  0  0  0  0  0  0  0
   15.9004   27.5400   58.1908 N   0  0  0  0  0  0  0  0  0  0  0  0
   20.8462   25.7563   61.7170 C   0  0  0  0  0  0  0  0  0  0  0  0
   19.9323   26.5792   60.7990 C   0  0  0  0  0  0  0  0  0  0  0  0
   18.8917   25.6871   60.1051 C   0  0  0  0  0  0  0  0  0  0  0  0
   17.7438   25.6501   60.6071 O   0  0  0  0  0  0  0  0  0  0  0  0
   19.2666   25.0632   59.0857 O   0  0  0  0  0  0  0  0  0  0  0  0
   13.9871   26.2764   58.5086 N   0  0  0  0  0  0  0  0  0  0  0  0
   20.9678   27.0453   64.5591 O   0  0  0  0  0  0  0  0  0  0  0  0
   15.3239   26.3577   58.3913 C   0  0  0  0  0  0  0  0  0  0  0  0
   18.8396   27.1926   63.8972 O   0  0  0  0  0  0  0  0  0  0  0  0
   16.1207   25.2091   58.4780 N   0  0  0  0  0  0  0  0  0  0  0  0
   15.5085   23.9815   58.6923 C   0  0  0  0  0  0  0  0  0  0  0  0
   14.1286   23.9367   58.8410 C   0  0  0  0  0  0  0  0  0  0  0  0
   16.1869   22.9613   58.7821 O   0  0  0  0  0  0  0  0  0  0  0  0
   13.9526   21.6424   58.3858 C   0  0  0  0  0  0  0  0  0  0  0  0
   13.4661   22.7231   58.9884 N   0  0  0  0  0  0  0  0  0  0  0  0
   13.8704   20.5395   58.9217 O   0  0  0  0  0  0  0  0  0  0  0  0
   12.1476   22.6909   59.6308 C   0  0  2  0  0  0  0  0  0  0  0  0
   11.2610   23.7600   58.9871 C   0  0  0  0  0  0  0  0  0  0  0  0
   13.3790   25.0986   58.7158 C   0  0  0  0  0  0  0  0  0  0  0  0
   11.9848   25.0446   58.8219 N   0  0  0  0  0  0  0  0  0  0  0  0
   12.2776   22.9474   61.1361 C   0  0  0  0  0  0  0  0  0  0  0  0
   13.2327   21.9969   61.7188 N   0  0  0  0  0  0  0  0  0  0  0  0
   17.0047   23.1684   62.9408 C   0  0  0  0  0  0  0  0  0  0  0  0
   15.8654   23.6718   63.5640 C   0  0  0  0  0  0  0  0  0  0  0  0
   14.5968   23.2882   63.1337 C   0  0  0  0  0  0  0  0  0  0  0  0
   14.4545   22.3626   62.1054 C   0  0  0  0  0  0  0  0  0  0  0  0
   15.5912   21.8521   61.4878 C   0  0  0  0  0  0  0  0  0  0  0  0
   16.8603   22.2623   61.8939 C   0  0  0  0  0  0  0  0  0  0  0  0
   19.9720   26.6512   63.9050 C   0  0  0  0  0  0  0  0  0  0  0  0
  1  3  1  0  0  0  0
  2  1  1  6  0  0  0
  2  6  1  0  0  0  0
  2 34  1  0  0  0  0
  3  4  2  0  0  0  0
  3 28  1  0  0  0  0
  5 13  1  0  0  0  0
  6  7  1  0  0  0  0
  7  8  1  0  0  0  0
  8  9  1  0  0  0  0
  8 10  1  0  0  0  0
 11 13  2  0  0  0  0
 11 24  1  0  0  0  0
 12 34  1  0  0  0  0
 13 15  1  0  0  0  0
 14 34  1  0  0  0  0
 15 16  1  0  0  0  0
 16 17  1  0  0  0  0
 16 18  2  0  0  0  0
 17 20  1  0  0  0  0
 17 24  2  0  0  0  0
 19 21  1  0  0  0  0
 19 20  1  0  0  0  0
 20 22  1  0  0  0  0
 22 23  1  0  0  0  0
 22 26  1  1  0  0  0
 23 25  1  0  0  0  0
 24 25  1  0  0  0  0
 26 27  1  0  0  0  0
 27 31  1  0  0  0  0
 28 29  2  0  0  0  0
 28 33  1  0  0  0  0
 29 30  1  0  0  0  0
 30 31  2  0  0  0  0
 31 32  1  0  0  0  0
 32 33  2  0  0  0  0
M  END
>  <CHROM.1>
135.77330748,53.02294852,158.02180919,-77.01603156,98.64690955,144.69981055
-54.31110378,106.71010329,63.12593892,-87.89528189,16.23193837,24.31041634
60.82442688,0.15552688,0.57780673,2.25422664

>  <Name>
ligand

>  <RI>
0

>  <Rbt.Current_Directory>
/home/itssahil/PROJECTS/Mol_Feturizer/New_Systems/rnas/3SUH

>  <Rbt.Executable>
rbdock ($Id: //depot/dev/client3/rdock/2013.1/src/exe/rbdock.cxx#4 $)

>  <Rbt.Library>
libRbt.so (2013.1, Build901 2013/11/27)

>  <Rbt.Parameter_File>
/export/apps/rDock/src/rDock_2013.1_src/data/scripts/dock_solv.prm

>  <Rbt.Receptor>
prm/blind_docking_80.prm

>  <SCORE>
-11.8416

>  <SCORE.INTER>
-6.48233

>  <SCORE.INTER.CONST>
1

>  <SCORE.INTER.POLAR>
0

>  <SCORE.INTER.ROT>
10

>  <SCORE.INTER.SOLV>
18.1214

>  <SCORE.INTER.VDW>
-20.6287

>  <SCORE.INTER.norm>
-0.190657

>  <SCORE.INTRA>
-5.35931

>  <SCORE.INTRA.DIHEDRAL>
-2.65732

>  <SCORE.INTRA.DIHEDRAL.0>
12.2703

>  <SCORE.INTRA.POLAR>
0

>  <SCORE.INTRA.POLAR.0>
0

>  <SCORE.INTRA.REPUL>
0

>  <SCORE.INTRA.REPUL.0>
0

>  <SCORE.INTRA.SOLV>
1.42334

>  <SCORE.INTRA.SOLV.lig_0>
-64.3214

>  <SCORE.INTRA.VDW>
-4.74232

>  <SCORE.INTRA.VDW.0>
-1.67301

>  <SCORE.INTRA.norm>
-0.157627

>  <SCORE.RESTR>
0

>  <SCORE.RESTR.CAVITY>
0

>  <SCORE.RESTR.norm>
0

>  <SCORE.SYSTEM>
0

>  <SCORE.SYSTEM.CONST>
0

>  <SCORE.SYSTEM.DIHEDRAL>
0

>  <SCORE.SYSTEM.SOLV>
0

>  <SCORE.SYSTEM.norm>
0

>  <SCORE.heavy>
34

>  <SCORE.norm>
-0.348284

>  <RMSD>
24.103

$$$$
ligand
 OpenBabel11021811483D
libRbt.so/2013.1/901 2013/11/27
 34 36  0  0  0  0  0  0  0  0999 V2000
   13.8064   22.9703   59.4741 N   0  0  0  0  0  0  0  0  0  0  0  0
   12.4270   22.9290   58.9352 C   0  0  1  0  0  0  0  0  0  0  0  0
   14.4642   21.8944   59.9255 C   0  0  0  0  0  0  0  0  0  0  0  0
   13.9975   20.7520   59.9453 O   0  0  0  0  0  0  0  0  0  0  0  0
   19.8249   27.5524   58.8280 N   0  0  0  0  0  0  0  0  0  0  0  0
   11.8632   24.3567   58.8389 C   0  0  0  0  0  0  0  0  0  0  0  0
   12.6019   25.1855   57.7794 C   0  0  0  0  0  0  0  0  0  0  0  0
   14.0821   25.3680   58.1483 C   0  0  0  0  0  0  0  0  0  0  0  0
   14.3397   26.0901   59.1399 O   0  0  0  0  0  0  0  0  0  0  0  0
   14.9237   24.7790   57.4318 O   0  0  0  0  0  0  0  0  0  0  0  0
   20.9272   25.9650   60.1021 N   0  0  0  0  0  0  0  0  0  0  0  0
   13.2815   22.5136   56.7340 O   0  0  0  0  0  0  0  0  0  0  0  0
   20.0013   26.9335   59.9926 C   0  0  0  0  0  0  0  0  0  0  0  0
   11.3985   21.4783   57.3436 O   0  0  0  0  0  0  0  0  0  0  0  0
   19.2166   27.3006   61.0931 N   0  0  0  0  0  0  0  0  0  0  0  0
   19.4060   26.6445   62.3019 C   0  0  0  0  0  0  0  0  0  0  0  0
   20.3483   25.6269   62.3726 C   0  0  0  0  0  0  0  0  0  0  0  0
   18.7230   26.9417   63.2788 O   0  0  0  0  0  0  0  0  0  0  0  0
   20.5227   25.6777   64.7113 C   0  0  0  0  0  0  0  0  0  0  0  0
   20.6205   24.9893   63.5779 N   0  0  0  0  0  0  0  0  0  0  0  0
   21.2319   26.6623   64.9060 O   0  0  0  0  0  0  0  0  0  0  0  0
   21.1991   23.6413   63.5699 C   0  0  2  0  0  0  0  0  0  0  0  0
   22.4023   23.6286   62.6236 C   0  0  0  0  0  0  0  0  0  0  0  0
   21.1236   25.3206   61.2624 C   0  0  0  0  0  0  0  0  0  0  0  0
   22.1031   24.3251   61.3482 N   0  0  0  0  0  0  0  0  0  0  0  0
   20.1577   22.6129   63.1153 C   0  0  0  0  0  0  0  0  0  0  0  0
   19.7452   22.9035   61.7367 N   0  0  0  0  0  0  0  0  0  0  0  0
   15.9056   22.1719   60.3893 C   0  0  0  0  0  0  0  0  0  0  0  0
   16.2661   23.4302   60.8653 C   0  0  0  0  0  0  0  0  0  0  0  0
   17.5563   23.6642   61.3367 C   0  0  0  0  0  0  0  0  0  0  0  0
   18.5126   22.6552   61.2954 C   0  0  0  0  0  0  0  0  0  0  0  0
   18.1568   21.4005   60.8121 C   0  0  0  0  0  0  0  0  0  0  0  0
   16.8564   21.1553   60.3733 C   0  0  0  0  0  0  0  0  0  0  0  0
   12.3671   22.2491   57.5517 C   0  0  0  0  0  0  0  0  0  0  0  0
  1  3  1  0  0  0  0
  2  1  1  6  0  0  0
  2  6  1  0  0  0  0
  2 34  1  0  0  0  0
  3  4  2  0  0  0  0
  3 28  1  0  0  0  0
  5 13  1  0  0  0  0
  6  7  1  0  0  0  0
  7  8  1  0  0  0  0
  8  9  1  0  0  0  0
  8 10  1  0  0  0  0
 11 13  2  0  0  0  0
 11 24  1  0  0  0  0
 12 34  1  0  0  0  0
 13 15  1  0  0  0  0
 14 34  1  0  0  0  0
 15 16  1  0  0  0  0
 16 17  1  0  0  0  0
 16 18  2  0  0  0  0
 17 20  1  0  0  0  0
 17 24  2  0  0  0  0
 19 21  1  0  0  0  0
 19 20  1  0  0  0  0
 20 22  1  0  0  0  0
 22 23  1  0  0  0  0
 22 26  1  6  0  0  0
 23 25  1  0  0  0  0
 24 25  1  0  0  0  0
 26 27  1  0  0  0  0
 27 31  1  0  0  0  0
 28 29  2  0  0  0  0
 28 33  1  0  0  0  0
 29 30  1  0  0  0  0
 30 31  2  0  0  0  0
 31 32  1  0  0  0  0
 32 33  2  0  0  0  0
M  END
>  <CHROM.1>
166.04957185,67.37823319,-40.92821159,-63.16951281,-68.69015305,-61.05551820
62.63376715,-147.58024891,93.63456688,27.39953158,17.31000838,24.19818719
60.60150857,-3.03381384,-0.55851393,-0.27935320

>  <Name>
ligand

>  <RI>
0

>  <Rbt.Current_Directory>
/home/itssahil/PROJECTS/Mol_Feturizer/New_Systems/rnas/3SUH

>  <Rbt.Executable>
rbdock ($Id: //depot/dev/client3/rdock/2013.1/src/exe/rbdock.cxx#4 $)

>  <Rbt.Library>
libRbt.so (2013.1, Build901 2013/11/27)

>  <Rbt.Parameter_File>
/export/apps/rDock/src/rDock_2013.1_src/data/scripts/dock_solv.prm

>  <Rbt.Receptor>
prm/blind_docking_80.prm

>  <SCORE>
-12.0151

>  <SCORE.INTER>
-7.89459

>  <SCORE.INTER.CONST>
1

>  <SCORE.INTER.POLAR>
0

>  <SCORE.INTER.ROT>
10

>  <SCORE.INTER.SOLV>
8.35751

>  <SCORE.INTER.VDW>
-18.3156

>  <SCORE.INTER.norm>
-0.232194

>  <SCORE.INTRA>
-4.12573

>  <SCORE.INTRA.DIHEDRAL>
-4.93963

>  <SCORE.INTRA.DIHEDRAL.0>
12.2703

>  <SCORE.INTRA.POLAR>
0

>  <SCORE.INTRA.POLAR.0>
0

>  <SCORE.INTRA.REPUL>
0

>  <SCORE.INTRA.REPUL.0>
0

>  <SCORE.INTRA.SOLV>
2.20788

>  <SCORE.INTRA.SOLV.lig_0>
-64.3214

>  <SCORE.INTRA.VDW>
-2.75986

>  <SCORE.INTRA.VDW.0>
-1.67301

>  <SCORE.INTRA.norm>
-0.121345

>  <SCORE.RESTR>
0.00525128

>  <SCORE.RESTR.CAVITY>
0.00525128

>  <SCORE.RESTR.norm>
0.000154449

>  <SCORE.SYSTEM>
0

>  <SCORE.SYSTEM.CONST>
0

>  <SCORE.SYSTEM.DIHEDRAL>
0

>  <SCORE.SYSTEM.SOLV>
0

>  <SCORE.SYSTEM.norm>
0

>  <SCORE.heavy>
34

>  <SCORE.norm>
-0.353385

>  <RMSD>
24.698

$$$$
ligand
 OpenBabel11021811483D
libRbt.so/2013.1/901 2013/11/27
 34 36  0  0  0  0  0  0  0  0999 V2000
   20.1753   23.8097   62.7893 N   0  0  0  0  0  0  0  0  0  0  0  0
   21.1587   23.8315   63.8971 C   0  0  1  0  0  0  0  0  0  0  0  0
   19.1948   24.7103   62.6434 C   0  0  0  0  0  0  0  0  0  0  0  0
   18.9989   25.6554   63.4126 O   0  0  0  0  0  0  0  0  0  0  0  0
   14.9362   19.6131   61.2477 N   0  0  0  0  0  0  0  0  0  0  0  0
   20.4895   23.3524   65.1962 C   0  0  0  0  0  0  0  0  0  0  0  0
   21.3610   23.6502   66.4239 C   0  0  0  0  0  0  0  0  0  0  0  0
   21.3406   25.1467   66.7707 C   0  0  0  0  0  0  0  0  0  0  0  0
   21.6103   25.9515   65.8485 O   0  0  0  0  0  0  0  0  0  0  0  0
   21.0530   25.4532   67.9506 O   0  0  0  0  0  0  0  0  0  0  0  0
   14.5299   20.8444   59.3301 N   0  0  0  0  0  0  0  0  0  0  0  0
   23.2225   23.3944   62.7580 O   0  0  0  0  0  0  0  0  0  0  0  0
   14.4768   20.7189   60.6676 C   0  0  0  0  0  0  0  0  0  0  0  0
   22.4742   21.8638   64.2024 O   0  0  0  0  0  0  0  0  0  0  0  0
   13.9421   21.7416   61.4612 N   0  0  0  0  0  0  0  0  0  0  0  0
   13.4702   22.8929   60.8452 C   0  0  0  0  0  0  0  0  0  0  0  0
   13.5693   23.0039   59.4645 C   0  0  0  0  0  0  0  0  0  0  0  0
   13.0061   23.8079   61.5207 O   0  0  0  0  0  0  0  0  0  0  0  0
   11.9647   24.7054   59.2850 C   0  0  0  0  0  0  0  0  0  0  0  0
   13.0482   24.1077   58.7986 N   0  0  0  0  0  0  0  0  0  0  0  0
   10.8792   24.1292   59.2798 O   0  0  0  0  0  0  0  0  0  0  0  0
   13.5723   24.4706   57.4773 C   0  0  2  0  0  0  0  0  0  0  0  0
   13.5927   23.2191   56.5960 C   0  0  0  0  0  0  0  0  0  0  0  0
   14.0786   21.9498   58.7183 C   0  0  0  0  0  0  0  0  0  0  0  0
   14.1367   22.0459   57.3236 N   0  0  0  0  0  0  0  0  0  0  0  0
   14.9843   25.0531   57.6016 C   0  0  0  0  0  0  0  0  0  0  0  0
   15.9083   24.0136   58.0716 N   0  0  0  0  0  0  0  0  0  0  0  0
   18.3267   24.5155   61.3871 C   0  0  0  0  0  0  0  0  0  0  0  0
   17.6590   23.3131   61.1677 C   0  0  0  0  0  0  0  0  0  0  0  0
   16.8295   23.1578   60.0588 C   0  0  0  0  0  0  0  0  0  0  0  0
   16.6942   24.1874   59.1336 C   0  0  0  0  0  0  0  0  0  0  0  0
   17.3674   25.3856   59.3464 C   0  0  0  0  0  0  0  0  0  0  0  0
   18.1695   25.5545   60.4742 C   0  0  0  0  0  0  0  0  0  0  0  0
   22.3927   22.9575   63.5918 C   0  0  0  0  0  0  0  0  0  0  0  0
  1  3  1  0  0  0  0
  2  1  1  6  0  0  0
  2  6  1  0  0  0  0
  2 34  1  0  0  0  0
  3  4  2  0  0  0  0
  3 28  1  0  0  0  0
  5 13  1  0  0  0  0
  6  7  1  0  0  0  0
  7  8  1  0  0  0  0
  8  9  1  0  0  0  0
  8 10  1  0  0  0  0
 11 13  2  0  0  0  0
 11 24  1  0  0  0  0
 12 34  1  0  0  0  0
 13 15  1  0  0  0  0
 14 34  1  0  0  0  0
 15 16  1  0  0  0  0
 16 17  1  0  0  0  0
 16 18  2  0  0  0  0
 17 20  1  0  0  0  0
 17 24  2  0  0  0  0
 19 21  1  0  0  0  0
 19 20  1  0  0  0  0
 20 22  1  0  0  0  0
 22 23  1  0  0  0  0
 22 26  1  1  0  0  0
 23 25  1  0  0  0  0
 24 25  1  0  0  0  0
 26 27  1  0  0  0  0
 27 31  1  0  0  0  0
 28 29  2  0  0  0  0
 28 33  1  0  0  0  0
 29 30  1  0  0  0  0
 30 31  2  0  0  0  0
 31 32  1  0  0  0  0
 32 33  2  0  0  0  0
M  END
>  <CHROM.1>
74.74153867,-167.26585848,74.00815304,73.90509572,-52.31285480,-67.64256562
66.15888695,-126.88618964,136.71307149,57.20667151,17.05859325,23.61069620
61.39872325,-0.59948704,-0.31575136,-1.30179867

>  <Name>
ligand

>  <RI>
0

>  <Rbt.Current_Directory>
/home/itssahil/PROJECTS/Mol_Feturizer/New_Systems/rnas/3SUH

>  <Rbt.Executable>
rbdock ($Id: //depot/dev/client3/rdock/2013.1/src/exe/rbdock.cxx#4 $)

>  <Rbt.Library>
libRbt.so (2013.1, Build901 2013/11/27)

>  <Rbt.Parameter_File>
/export/apps/rDock/src/rDock_2013.1_src/data/scripts/dock_solv.prm

>  <Rbt.Receptor>
prm/blind_docking_80.prm

>  <SCORE>
-6.21226

>  <SCORE.INTER>
-4.09393

>  <SCORE.INTER.CONST>
1

>  <SCORE.INTER.POLAR>
0

>  <SCORE.INTER.ROT>
10

>  <SCORE.INTER.SOLV>
10.0683

>  <SCORE.INTER.VDW>
-16.3521

>  <SCORE.INTER.norm>
-0.12041

>  <SCORE.INTRA>
-2.12359

>  <SCORE.INTRA.DIHEDRAL>
-3.20171

>  <SCORE.INTRA.DIHEDRAL.0>
12.2703

>  <SCORE.INTRA.POLAR>
0

>  <SCORE.INTRA.POLAR.0>
0

>  <SCORE.INTRA.REPUL>
0

>  <SCORE.INTRA.REPUL.0>
0

>  <SCORE.INTRA.SOLV>
1.74241

>  <SCORE.INTRA.SOLV.lig_0>
-64.3214

>  <SCORE.INTRA.VDW>
-1.39394

>  <SCORE.INTRA.VDW.0>
-1.67301

>  <SCORE.INTRA.norm>
-0.0624586

>  <SCORE.RESTR>
0.0052573

>  <SCORE.RESTR.CAVITY>
0.0052573

>  <SCORE.RESTR.norm>
0.000154626

>  <SCORE.SYSTEM>
0

>  <SCORE.SYSTEM.CONST>
0

>  <SCORE.SYSTEM.DIHEDRAL>
0

>  <SCORE.SYSTEM.SOLV>
0

>  <SCORE.SYSTEM.norm>
0

>  <SCORE.heavy>
34

>  <SCORE.norm>
-0.182714

>  <RMSD>
24.752

$$$$
ligand
 OpenBabel11021811483D
libRbt.so/2013.1/901 2013/11/27
 34 36  0  0  0  0  0  0  0  0999 V2000
   13.5801   24.4278   59.5733 N   0  0  0  0  0  0  0  0  0  0  0  0
   12.1805   23.9988   59.8013 C   0  0  1  0  0  0  0  0  0  0  0  0
   13.9384   25.3673   58.6885 C   0  0  0  0  0  0  0  0  0  0  0  0
   13.1472   25.9784   57.9647 O   0  0  0  0  0  0  0  0  0  0  0  0
   20.3119   23.6749   65.7420 N   0  0  0  0  0  0  0  0  0  0  0  0
   11.9912   22.5558   59.3041 C   0  0  0  0  0  0  0  0  0  0  0  0
   12.3253   22.4241   57.8120 C   0  0  0  0  0  0  0  0  0  0  0  0
   12.1788   20.9709   57.3353 C   0  0  0  0  0  0  0  0  0  0  0  0
   13.0899   20.1704   57.6518 O   0  0  0  0  0  0  0  0  0  0  0  0
   11.1570   20.6918   56.6668 O   0  0  0  0  0  0  0  0  0  0  0  0
   21.2799   24.7928   63.9611 N   0  0  0  0  0  0  0  0  0  0  0  0
   10.6086   24.4555   61.5530 O   0  0  0  0  0  0  0  0  0  0  0  0
   20.4611   23.8349   64.4295 C   0  0  0  0  0  0  0  0  0  0  0  0
   12.6672   23.8088   62.1299 O   0  0  0  0  0  0  0  0  0  0  0  0
   19.7602   23.0001   63.5500 N   0  0  0  0  0  0  0  0  0  0  0  0
   19.9199   23.1795   62.1826 C   0  0  0  0  0  0  0  0  0  0  0  0
   20.7483   24.1989   61.7319 C   0  0  0  0  0  0  0  0  0  0  0  0
   19.3080   22.4665   61.3913 O   0  0  0  0  0  0  0  0  0  0  0  0
   21.0095   23.3069   59.5782 C   0  0  0  0  0  0  0  0  0  0  0  0
   20.9921   24.3719   60.3740 N   0  0  0  0  0  0  0  0  0  0  0  0
   22.0651   22.7252   59.3380 O   0  0  0  0  0  0  0  0  0  0  0  0
   21.4205   25.6838   59.8763 C   0  0  2  0  0  0  0  0  0  0  0  0
   22.5811   26.1823   60.7410 C   0  0  0  0  0  0  0  0  0  0  0  0
   21.4461   24.9802   62.6430 C   0  0  0  0  0  0  0  0  0  0  0  0
   22.3144   25.9778   62.1862 N   0  0  0  0  0  0  0  0  0  0  0  0
   20.2584   26.6817   59.9241 C   0  0  0  0  0  0  0  0  0  0  0  0
   19.4782   26.5916   58.6838 N   0  0  0  0  0  0  0  0  0  0  0  0
   15.4448   25.6834   58.6632 C   0  0  0  0  0  0  0  0  0  0  0  0
   15.9064   26.8891   58.1407 C   0  0  0  0  0  0  0  0  0  0  0  0
   17.2650   27.1974   58.1693 C   0  0  0  0  0  0  0  0  0  0  0  0
   18.1815   26.2842   58.6796 C   0  0  0  0  0  0  0  0  0  0  0  0
   17.7233   25.0759   59.1937 C   0  0  0  0  0  0  0  0  0  0  0  0
   16.3605   24.7816   59.1980 C   0  0  0  0  0  0  0  0  0  0  0  0
   11.7813   24.0958   61.2883 C   0  0  0  0  0  0  0  0  0  0  0  0
  1  3  1  0  0  0  0
  2  1  1  1  0  0  0
  2  6  1  0  0  0  0
  2 34  1  0  0  0  0
  3  4  2  0  0  0  0
  3 28  1  0  0  0  0
  5 13  1  0  0  0  0
  6  7  1  0  0  0  0
  7  8  1  0  0  0  0
  8  9  1  0  0  0  0
  8 10  1  0  0  0  0
 11 13  2  0  0  0  0
 11 24  1  0  0  0  0
 12 34  1  0  0  0  0
 13 15  1  0  0  0  0
 14 34  1  0  0  0  0
 15 16  1  0  0  0  0
 16 17  1  0  0  0  0
 16 18  2  0  0  0  0
 17 20  1  0  0  0  0
 17 24  2  0  0  0  0
 19 21  1  0  0  0  0
 19 20  1  0  0  0  0
 20 22  1  0  0  0  0
 22 23  1  0  0  0  0
 22 26  1  1  0  0  0
 23 25  1  0  0  0  0
 24 25  1  0  0  0  0
 26 27  1  0  0  0  0
 27 31  1  0  0  0  0
 28 29  2  0  0  0  0
 28 33  1  0  0  0  0
 29 30  1  0  0  0  0
 30 31  2  0  0  0  0
 31 32  1  0  0  0  0
 32 33  2  0  0  0  0
M  END
>  <CHROM.1>
111.70673064,-58.67677612,143.29321444,178.09798800,-76.21050791,-92.69509212
-87.31186925,120.81397047,119.05855778,-159.22143906,17.07424869,24.23601893
60.23164046,2.93883611,-0.29279979,-1.11587911

>  <Name>
ligand

>  <RI>
0

>  <Rbt.Current_Directory>
/home/itssahil/PROJECTS/Mol_Feturizer/New_Systems/rnas/3SUH

>  <Rbt.Executable>
rbdock ($Id: //depot/dev/client3/rdock/2013.1/src/exe/rbdock.cxx#4 $)

>  <Rbt.Library>
libRbt.so (2013.1, Build901 2013/11/27)

>  <Rbt.Parameter_File>
/export/apps/rDock/src/rDock_2013.1_src/data/scripts/dock_solv.prm

>  <Rbt.Receptor>
prm/blind_docking_80.prm

>  <SCORE>
-6.6976

>  <SCORE.INTER>
-3.48108

>  <SCORE.INTER.CONST>
1

>  <SCORE.INTER.POLAR>
0

>  <SCORE.INTER.ROT>
10

>  <SCORE.INTER.SOLV>
16.4026

>  <SCORE.INTER.VDW>
-18.0549

>  <SCORE.INTER.norm>
-0.102385

>  <SCORE.INTRA>
-3.21651

>  <SCORE.INTRA.DIHEDRAL>
-1.43142

>  <SCORE.INTRA.DIHEDRAL.0>
12.2703

>  <SCORE.INTRA.POLAR>
0

>  <SCORE.INTRA.POLAR.0>
0

>  <SCORE.INTRA.REPUL>
0

>  <SCORE.INTRA.REPUL.0>
0

>  <SCORE.INTRA.SOLV>
-0.74837

>  <SCORE.INTRA.SOLV.lig_0>
-64.3214

>  <SCORE.INTRA.VDW>
-2.12662

>  <SCORE.INTRA.VDW.0>
-1.67301

>  <SCORE.INTRA.norm>
-0.0946033

>  <SCORE.RESTR>
0

>  <SCORE.RESTR.CAVITY>
0

>  <SCORE.RESTR.norm>
0

>  <SCORE.SYSTEM>
0

>  <SCORE.SYSTEM.CONST>
0

>  <SCORE.SYSTEM.DIHEDRAL>
0

>  <SCORE.SYSTEM.SOLV>
0

>  <SCORE.SYSTEM.norm>
0

>  <SCORE.heavy>
34

>  <SCORE.norm>
-0.196988

>  <RMSD>
24.753

$$$$
ligand
 OpenBabel11021811483D
libRbt.so/2013.1/901 2013/11/27
 34 36  0  0  0  0  0  0  0  0999 V2000
   19.3102   24.6811   62.4927 N   0  0  0  0  0  0  0  0  0  0  0  0
   19.5495   25.3859   63.7737 C   0  0  1  0  0  0  0  0  0  0  0  0
   18.0927   24.3834   62.0203 C   0  0  0  0  0  0  0  0  0  0  0  0
   17.0369   24.6596   62.5966 O   0  0  0  0  0  0  0  0  0  0  0  0
   12.0567   25.5808   58.7171 N   0  0  0  0  0  0  0  0  0  0  0  0
   20.9112   24.9658   64.3520 C   0  0  0  0  0  0  0  0  0  0  0  0
   22.0699   25.4102   63.4490 C   0  0  0  0  0  0  0  0  0  0  0  0
   21.9969   24.7283   62.0743 C   0  0  0  0  0  0  0  0  0  0  0  0
   22.1253   23.4818   62.0464 O   0  0  0  0  0  0  0  0  0  0  0  0
   21.8116   25.4687   61.0812 O   0  0  0  0  0  0  0  0  0  0  0  0
   13.2143   24.6220   56.9567 N   0  0  0  0  0  0  0  0  0  0  0  0
   19.0272   27.3733   62.5388 O   0  0  0  0  0  0  0  0  0  0  0  0
   13.2107   25.3026   58.1161 C   0  0  0  0  0  0  0  0  0  0  0  0
   19.9510   27.6033   64.5593 O   0  0  0  0  0  0  0  0  0  0  0  0
   14.4112   25.7239   58.7018 N   0  0  0  0  0  0  0  0  0  0  0  0
   15.6095   25.4236   58.0682 C   0  0  0  0  0  0  0  0  0  0  0  0
   15.5797   24.6915   56.8886 C   0  0  0  0  0  0  0  0  0  0  0  0
   16.6759   25.7736   58.5676 O   0  0  0  0  0  0  0  0  0  0  0  0
   17.7368   25.3160   56.2109 C   0  0  0  0  0  0  0  0  0  0  0  0
   16.7487   24.4268   56.1838 N   0  0  0  0  0  0  0  0  0  0  0  0
   17.5860   26.4310   55.7166 O   0  0  0  0  0  0  0  0  0  0  0  0
   16.7994   23.2810   55.2690 C   0  0  2  0  0  0  0  0  0  0  0  0
   15.5708   23.3258   54.3568 C   0  0  0  0  0  0  0  0  0  0  0  0
   14.3628   24.3233   56.3308 C   0  0  0  0  0  0  0  0  0  0  0  0
   14.3334   23.6240   55.1192 N   0  0  0  0  0  0  0  0  0  0  0  0
   16.8261   21.9664   56.0563 C   0  0  0  0  0  0  0  0  0  0  0  0
   18.0212   21.9246   56.9078 N   0  0  0  0  0  0  0  0  0  0  0  0
   18.0898   23.6947   60.6436 C   0  0  0  0  0  0  0  0  0  0  0  0
   17.0024   22.9233   60.2404 C   0  0  0  0  0  0  0  0  0  0  0  0
   16.9770   22.3464   58.9723 C   0  0  0  0  0  0  0  0  0  0  0  0
   18.0583   22.4971   58.1106 C   0  0  0  0  0  0  0  0  0  0  0  0
   19.1489   23.2597   58.5150 C   0  0  0  0  0  0  0  0  0  0  0  0
   19.1598   23.8668   59.7700 C   0  0  0  0  0  0  0  0  0  0  0  0
   19.5028   26.9189   63.6073 C   0  0  0  0  0  0  0  0  0  0  0  0
  1  3  1  0  0  0  0
  2  1  1  6  0  0  0
  2  6  1  0  0  0  0
  2 34  1  0  0  0  0
  3  4  2  0  0  0  0
  3 28  1  0  0  0  0
  5 13  1  0  0  0  0
  6  7  1  0  0  0  0
  7  8  1  0  0  0  0
  8  9  1  0  0  0  0
  8 10  1  0  0  0  0
 11 13  2  0  0  0  0
 11 24  1  0  0  0  0
 12 34  1  0  0  0  0
 13 15  1  0  0  0  0
 14 34  1  0  0  0  0
 15 16  1  0  0  0  0
 16 17  1  0  0  0  0
 16 18  2  0  0  0  0
 17 20  1  0  0  0  0
 17 24  2  0  0  0  0
 19 21  1  0  0  0  0
 19 20  1  0  0  0  0
 20 22  1  0  0  0  0
 22 23  1  0  0  0  0
 22 26  1  1  0  0  0
 23 25  1  0  0  0  0
 24 25  1  0  0  0  0
 26 27  1  0  0  0  0
 27 31  1  0  0  0  0
 28 29  2  0  0  0  0
 28 33  1  0  0  0  0
 29 30  1  0  0  0  0
 30 31  2  0  0  0  0
 31 32  1  0  0  0  0
 32 33  2  0  0  0  0
M  END
>  <CHROM.1>
151.74906225,64.73108095,13.58544454,-63.21257509,-64.05650629,-64.90895429
-60.88019760,83.93460042,43.68897053,157.45132609,17.65889200,24.63084075
59.42525297,0.86570699,-0.34485328,1.10055005

>  <Name>
ligand

>  <RI>
0

>  <Rbt.Current_Directory>
/home/itssahil/PROJECTS/Mol_Feturizer/New_Systems/rnas/3SUH

>  <Rbt.Executable>
rbdock ($Id: //depot/dev/client3/rdock/2013.1/src/exe/rbdock.cxx#4 $)

>  <Rbt.Library>
libRbt.so (2013.1, Build901 2013/11/27)

>  <Rbt.Parameter_File>
/export/apps/rDock/src/rDock_2013.1_src/data/scripts/dock_solv.prm

>  <Rbt.Receptor>
prm/blind_docking_100.prm

>  <SCORE>
-12.4747

>  <SCORE.INTER>
-6.40416

>  <SCORE.INTER.CONST>
1

>  <SCORE.INTER.POLAR>
0

>  <SCORE.INTER.ROT>
10

>  <SCORE.INTER.SOLV>
19.6478

>  <SCORE.INTER.VDW>
-21.0854

>  <SCORE.INTER.norm>
-0.188358

>  <SCORE.INTRA>
-6.07049

>  <SCORE.INTRA.DIHEDRAL>
-4.97937

>  <SCORE.INTRA.DIHEDRAL.0>
12.2703

>  <SCORE.INTRA.POLAR>
0

>  <SCORE.INTRA.POLAR.0>
0

>  <SCORE.INTRA.REPUL>
0

>  <SCORE.INTRA.REPUL.0>
0

>  <SCORE.INTRA.SOLV>
0.620731

>  <SCORE.INTRA.SOLV.lig_0>
-64.3214

>  <SCORE.INTRA.VDW>
-3.89117

>  <SCORE.INTRA.VDW.0>
-1.67301

>  <SCORE.INTRA.norm>
-0.178544

>  <SCORE.RESTR>
0

>  <SCORE.RESTR.CAVITY>
0

>  <SCORE.RESTR.norm>
0

>  <SCORE.SYSTEM>
0

>  <SCORE.SYSTEM.CONST>
0

>  <SCORE.SYSTEM.DIHEDRAL>
0

>  <SCORE.SYSTEM.SOLV>
0

>  <SCORE.SYSTEM.norm>
0

>  <SCORE.heavy>
34

>  <SCORE.norm>
-0.366902

>  <RMSD>
24.979

$$$$
ligand
 OpenBabel11021811483D
libRbt.so/2013.1/901 2013/11/27
 34 36  0  0  0  0  0  0  0  0999 V2000
   19.4723   23.9603   62.8876 N   0  0  0  0  0  0  0  0  0  0  0  0
   20.3690   24.2716   64.0251 C   0  0  1  0  0  0  0  0  0  0  0  0
   18.3672   23.2107   62.9913 C   0  0  0  0  0  0  0  0  0  0  0  0
   17.9730   22.6950   64.0410 O   0  0  0  0  0  0  0  0  0  0  0  0
   18.9135   26.9191   57.9313 N   0  0  0  0  0  0  0  0  0  0  0  0
   21.8063   23.8411   63.6874 C   0  0  0  0  0  0  0  0  0  0  0  0
   21.8976   22.3312   63.4282 C   0  0  0  0  0  0  0  0  0  0  0  0
   21.3452   21.9705   62.0408 C   0  0  0  0  0  0  0  0  0  0  0  0
   20.3336   21.2315   62.0022 O   0  0  0  0  0  0  0  0  0  0  0  0
   21.9455   22.4441   61.0488 O   0  0  0  0  0  0  0  0  0  0  0  0
   16.6798   26.3611   58.1706 N   0  0  0  0  0  0  0  0  0  0  0  0
   21.2332   26.1963   65.1637 O   0  0  0  0  0  0  0  0  0  0  0  0
   17.8505   26.2311   57.5227 C   0  0  0  0  0  0  0  0  0  0  0  0
   19.4263   26.4590   63.8772 O   0  0  0  0  0  0  0  0  0  0  0  0
   17.9659   25.3769   56.4187 N   0  0  0  0  0  0  0  0  0  0  0  0
   16.8513   24.6603   56.0044 C   0  0  0  0  0  0  0  0  0  0  0  0
   15.6658   24.7932   56.7153 C   0  0  0  0  0  0  0  0  0  0  0  0
   16.9303   23.8971   55.0450 O   0  0  0  0  0  0  0  0  0  0  0  0
   14.3068   23.9564   54.9963 C   0  0  0  0  0  0  0  0  0  0  0  0
   14.5070   24.1488   56.2966 N   0  0  0  0  0  0  0  0  0  0  0  0
   13.9756   24.8918   54.2712 O   0  0  0  0  0  0  0  0  0  0  0  0
   13.4407   23.8734   57.2657 C   0  0  2  0  0  0  0  0  0  0  0  0
   13.1404   25.1569   58.0440 C   0  0  0  0  0  0  0  0  0  0  0  0
   15.5927   25.6763   57.7840 C   0  0  0  0  0  0  0  0  0  0  0  0
   14.3853   25.8419   58.4713 N   0  0  0  0  0  0  0  0  0  0  0  0
   13.8647   22.7583   58.2277 C   0  0  0  0  0  0  0  0  0  0  0  0
   15.3281   22.6413   58.2344 N   0  0  0  0  0  0  0  0  0  0  0  0
   17.5650   23.0668   61.6853 C   0  0  0  0  0  0  0  0  0  0  0  0
   17.4714   21.8339   61.0443 C   0  0  0  0  0  0  0  0  0  0  0  0
   16.6993   21.6930   59.8929 C   0  0  0  0  0  0  0  0  0  0  0  0
   16.0491   22.7935   59.3447 C   0  0  0  0  0  0  0  0  0  0  0  0
   16.1487   24.0275   59.9786 C   0  0  0  0  0  0  0  0  0  0  0  0
   16.8919   24.1616   61.1504 C   0  0  0  0  0  0  0  0  0  0  0  0
   20.3439   25.7709   64.3873 C   0  0  0  0  0  0  0  0  0  0  0  0
  1  3  1  0  0  0  0
  2  1  1  6  0  0  0
  2  6  1  0  0  0  0
  2 34  1  0  0  0  0
  3  4  2  0  0  0  0
  3 28  1  0  0  0  0
  5 13  1  0  0  0  0
  6  7  1  0  0  0  0
  7  8  1  0  0  0  0
  8  9  1  0  0  0  0
  8 10  1  0  0  0  0
 11 13  2  0  0  0  0
 11 24  1  0  0  0  0
 12 34  1  0  0  0  0
 13 15  1  0  0  0  0
 14 34  1  0  0  0  0
 15 16  1  0  0  0  0
 16 17  1  0  0  0  0
 16 18  2  0  0  0  0
 17 20  1  0  0  0  0
 17 24  2  0  0  0  0
 19 21  1  0  0  0  0
 19 20  1  0  0  0  0
 20 22  1  0  0  0  0
 22 23  1  0  0  0  0
 22 26  1  1  0  0  0
 23 25  1  0  0  0  0
 24 25  1  0  0  0  0
 26 27  1  0  0  0  0
 27 31  1  0  0  0  0
 28 29  2  0  0  0  0
 28 33  1  0  0  0  0
 29 30  1  0  0  0  0
 30 31  2  0  0  0  0
 31 32  1  0  0  0  0
 32 33  2  0  0  0  0
M  END
>  <CHROM.1>
124.53578920,-60.95474389,-167.32711437,76.29723278,-116.64376173,-74.77367172
20.81085756,120.98386096,111.39913549,112.80980943,17.53747396,24.10312043
59.83885064,0.54428084,0.76465729,2.52806941

>  <Name>
ligand

>  <RI>
0

>  <Rbt.Current_Directory>
/home/itssahil/PROJECTS/Mol_Feturizer/New_Systems/rnas/3SUH

>  <Rbt.Executable>
rbdock ($Id: //depot/dev/client3/rdock/2013.1/src/exe/rbdock.cxx#4 $)

>  <Rbt.Library>
libRbt.so (2013.1, Build901 2013/11/27)

>  <Rbt.Parameter_File>
/export/apps/rDock/src/rDock_2013.1_src/data/scripts/dock_solv.prm

>  <Rbt.Receptor>
prm/blind_docking_100.prm

>  <SCORE>
-8.3676

>  <SCORE.INTER>
-7.37555

>  <SCORE.INTER.CONST>
1

>  <SCORE.INTER.POLAR>
0

>  <SCORE.INTER.ROT>
10

>  <SCORE.INTER.SOLV>
11.3604

>  <SCORE.INTER.VDW>
-18.9705

>  <SCORE.INTER.norm>
-0.216928

>  <SCORE.INTRA>
-0.992055

>  <SCORE.INTRA.DIHEDRAL>
1.21882

>  <SCORE.INTRA.DIHEDRAL.0>
12.2703

>  <SCORE.INTRA.POLAR>
0

>  <SCORE.INTRA.POLAR.0>
0

>  <SCORE.INTRA.REPUL>
0

>  <SCORE.INTRA.REPUL.0>
0

>  <SCORE.INTRA.SOLV>
2.97956

>  <SCORE.INTRA.SOLV.lig_0>
-64.3214

>  <SCORE.INTRA.VDW>
-3.09124

>  <SCORE.INTRA.VDW.0>
-1.67301

>  <SCORE.INTRA.norm>
-0.0291781

>  <SCORE.RESTR>
0

>  <SCORE.RESTR.CAVITY>
0

>  <SCORE.RESTR.norm>
0

>  <SCORE.SYSTEM>
0

>  <SCORE.SYSTEM.CONST>
0

>  <SCORE.SYSTEM.DIHEDRAL>
0

>  <SCORE.SYSTEM.SOLV>
0

>  <SCORE.SYSTEM.norm>
0

>  <SCORE.heavy>
34

>  <SCORE.norm>
-0.246106

>  <RMSD>
24.980

$$$$
ligand
 OpenBabel11021811483D
libRbt.so/2013.1/901 2013/11/27
 34 36  0  0  0  0  0  0  0  0999 V2000
   20.0814   23.9720   63.2624 N   0  0  0  0  0  0  0  0  0  0  0  0
   21.1430   24.4969   64.1526 C   0  0  1  0  0  0  0  0  0  0  0  0
   20.1715   22.8142   62.5950 C   0  0  0  0  0  0  0  0  0  0  0  0
   21.1452   22.0575   62.6442 O   0  0  0  0  0  0  0  0  0  0  0  0
   18.5488   26.9783   56.9257 N   0  0  0  0  0  0  0  0  0  0  0  0
   21.3783   25.9880   63.8583 C   0  0  0  0  0  0  0  0  0  0  0  0
   20.1329   26.8288   64.1704 C   0  0  0  0  0  0  0  0  0  0  0  0
   19.0381   26.6146   63.1142 C   0  0  0  0  0  0  0  0  0  0  0  0
   19.2404   27.0958   61.9747 O   0  0  0  0  0  0  0  0  0  0  0  0
   18.0234   25.9716   63.4690 O   0  0  0  0  0  0  0  0  0  0  0  0
   16.4698   26.0215   57.2728 N   0  0  0  0  0  0  0  0  0  0  0  0
   21.5432   24.8507   66.4898 O   0  0  0  0  0  0  0  0  0  0  0  0
   17.7742   25.8974   56.9722 C   0  0  0  0  0  0  0  0  0  0  0  0
   19.7785   23.6148   65.9006 O   0  0  0  0  0  0  0  0  0  0  0  0
   18.3305   24.6398   56.7065 N   0  0  0  0  0  0  0  0  0  0  0  0
   17.5137   23.5185   56.7627 C   0  0  0  0  0  0  0  0  0  0  0  0
   16.1780   23.6779   57.1076 C   0  0  0  0  0  0  0  0  0  0  0  0
   17.9806   22.4036   56.5436 O   0  0  0  0  0  0  0  0  0  0  0  0
   15.4982   21.6086   56.2371 C   0  0  0  0  0  0  0  0  0  0  0  0
   15.3075   22.5937   57.1095 N   0  0  0  0  0  0  0  0  0  0  0  0
   15.3432   21.8029   55.0335 O   0  0  0  0  0  0  0  0  0  0  0  0
   14.0895   22.6440   57.9255 C   0  0  2  0  0  0  0  0  0  0  0  0
   13.3676   23.9655   57.6498 C   0  0  0  0  0  0  0  0  0  0  0  0
   15.6660   24.9488   57.3316 C   0  0  0  0  0  0  0  0  0  0  0  0
   14.3099   25.1115   57.6355 N   0  0  0  0  0  0  0  0  0  0  0  0
   14.4356   22.5308   59.4141 C   0  0  0  0  0  0  0  0  0  0  0  0
   15.5213   21.5597   59.5966 N   0  0  0  0  0  0  0  0  0  0  0  0
   18.9226   22.4494   61.7721 C   0  0  0  0  0  0  0  0  0  0  0  0
   17.8207   21.8562   62.3834 C   0  0  0  0  0  0  0  0  0  0  0  0
   16.6701   21.5776   61.6485 C   0  0  0  0  0  0  0  0  0  0  0  0
   16.6255   21.8478   60.2849 C   0  0  0  0  0  0  0  0  0  0  0  0
   17.7283   22.4319   59.6710 C   0  0  0  0  0  0  0  0  0  0  0  0
   18.8668   22.7438   60.4127 C   0  0  0  0  0  0  0  0  0  0  0  0
   20.7933   24.3072   65.6431 C   0  0  0  0  0  0  0  0  0  0  0  0
  1  3  1  0  0  0  0
  2  1  1  6  0  0  0
  2  6  1  0  0  0  0
  2 34  1  0  0  0  0
  3  4  2  0  0  0  0
  3 28  1  0  0  0  0
  5 13  1  0  0  0  0
  6  7  1  0  0  0  0
  7  8  1  0  0  0  0
  8  9  1  0  0  0  0
  8 10  1  0  0  0  0
 11 13  2  0  0  0  0
 11 24  1  0  0  0  0
 12 34  1  0  0  0  0
 13 15  1  0  0  0  0
 14 34  1  0  0  0  0
 15 16  1  0  0  0  0
 16 17  1  0  0  0  0
 16 18  2  0  0  0  0
 17 20  1  0  0  0  0
 17 24  2  0  0  0  0
 19 21  1  0  0  0  0
 19 20  1  0  0  0  0
 20 22  1  0  0  0  0
 22 23  1  0  0  0  0
 22 26  1  1  0  0  0
 23 25  1  0  0  0  0
 24 25  1  0  0  0  0
 26 27  1  0  0  0  0
 27 31  1  0  0  0  0
 28 29  2  0  0  0  0
 28 33  1  0  0  0  0
 29 30  1  0  0  0  0
 30 31  2  0  0  0  0
 31 32  1  0  0  0  0
 32 33  2  0  0  0  0
M  END
>  <CHROM.1>
134.12199320,63.55986889,-171.93067038,-73.50934212,-70.94654117,-67.09617607
-38.98839568,128.26970510,90.92674058,-81.52250261,17.83402537,23.89385565
60.31595548,0.37451953,0.96526741,2.51453060

>  <Name>
ligand

>  <RI>
0

>  <Rbt.Current_Directory>
/home/itssahil/PROJECTS/Mol_Feturizer/New_Systems/rnas/3SUH

>  <Rbt.Executable>
rbdock ($Id: //depot/dev/client3/rdock/2013.1/src/exe/rbdock.cxx#4 $)

>  <Rbt.Library>
libRbt.so (2013.1, Build901 2013/11/27)

>  <Rbt.Parameter_File>
/export/apps/rDock/src/rDock_2013.1_src/data/scripts/dock_solv.prm

>  <Rbt.Receptor>
prm/blind_docking_100.prm

>  <SCORE>
-12.2014

>  <SCORE.INTER>
-8.32804

>  <SCORE.INTER.CONST>
1

>  <SCORE.INTER.POLAR>
0

>  <SCORE.INTER.ROT>
10

>  <SCORE.INTER.SOLV>
9.41866

>  <SCORE.INTER.VDW>
-18.9582

>  <SCORE.INTER.norm>
-0.244942

>  <SCORE.INTRA>
-3.87797

>  <SCORE.INTRA.DIHEDRAL>
-1.70902

>  <SCORE.INTRA.DIHEDRAL.0>
12.2703

>  <SCORE.INTRA.POLAR>
0

>  <SCORE.INTRA.POLAR.0>
0

>  <SCORE.INTRA.REPUL>
0

>  <SCORE.INTRA.REPUL.0>
0

>  <SCORE.INTRA.SOLV>
0.584175

>  <SCORE.INTRA.SOLV.lig_0>
-64.3214

>  <SCORE.INTRA.VDW>
-3.31555

>  <SCORE.INTRA.VDW.0>
-1.67301

>  <SCORE.INTRA.norm>
-0.114058

>  <SCORE.RESTR>
0.0046123

>  <SCORE.RESTR.CAVITY>
0.0046123

>  <SCORE.RESTR.norm>
0.000135656

>  <SCORE.SYSTEM>
0

>  <SCORE.SYSTEM.CONST>
0

>  <SCORE.SYSTEM.DIHEDRAL>
0

>  <SCORE.SYSTEM.SOLV>
0

>  <SCORE.SYSTEM.norm>
0

>  <SCORE.heavy>
34

>  <SCORE.norm>
-0.358865

>  <RMSD>
25.035

$$$$
ligand
 OpenBabel11021811483D
libRbt.so/2013.1/901 2013/11/27
 34 36  0  0  0  0  0  0  0  0999 V2000
   15.1247   25.1006   58.6187 N   0  0  0  0  0  0  0  0  0  0  0  0
   14.0889   25.0222   57.5624 C   0  0  1  0  0  0  0  0  0  0  0  0
   16.3865   25.4928   58.3995 C   0  0  0  0  0  0  0  0  0  0  0  0
   16.8280   25.8302   57.2974 O   0  0  0  0  0  0  0  0  0  0  0  0
   16.2708   21.2775   62.5150 N   0  0  0  0  0  0  0  0  0  0  0  0
   14.0422   23.5978   56.9845 C   0  0  0  0  0  0  0  0  0  0  0  0
   13.6917   22.5622   58.0616 C   0  0  0  0  0  0  0  0  0  0  0  0
   14.8349   22.4060   59.0760 C   0  0  0  0  0  0  0  0  0  0  0  0
   14.5972   22.7370   60.2613 O   0  0  0  0  0  0  0  0  0  0  0  0
   15.9212   21.9564   58.6440 O   0  0  0  0  0  0  0  0  0  0  0  0
   18.0078   22.3709   63.5852 N   0  0  0  0  0  0  0  0  0  0  0  0
   11.8881   25.9288   57.2755 O   0  0  0  0  0  0  0  0  0  0  0  0
   17.5175   21.7423   62.5028 C   0  0  0  0  0  0  0  0  0  0  0  0
   12.4690   25.2012   59.3058 O   0  0  0  0  0  0  0  0  0  0  0  0
   18.3053   21.5699   61.3577 N   0  0  0  0  0  0  0  0  0  0  0  0
   19.6030   22.0634   61.3546 C   0  0  0  0  0  0  0  0  0  0  0  0
   20.0678   22.7359   62.4771 C   0  0  0  0  0  0  0  0  0  0  0  0
   20.3100   21.9334   60.3583 O   0  0  0  0  0  0  0  0  0  0  0  0
   22.3360   22.4959   61.9292 C   0  0  0  0  0  0  0  0  0  0  0  0
   21.3814   23.1866   62.5455 N   0  0  0  0  0  0  0  0  0  0  0  0
   23.1816   23.0718   61.2484 O   0  0  0  0  0  0  0  0  0  0  0  0
   21.7228   24.2894   63.4506 C   0  0  2  0  0  0  0  0  0  0  0  0
   21.1415   23.9874   64.8342 C   0  0  0  0  0  0  0  0  0  0  0  0
   19.2594   22.8540   63.5996 C   0  0  0  0  0  0  0  0  0  0  0  0
   19.7453   23.4932   64.7455 N   0  0  0  0  0  0  0  0  0  0  0  0
   21.1626   25.6131   62.9189 C   0  0  0  0  0  0  0  0  0  0  0  0
   19.6972   25.5999   63.0056 N   0  0  0  0  0  0  0  0  0  0  0  0
   17.2700   25.5449   59.6591 C   0  0  0  0  0  0  0  0  0  0  0  0
   17.0228   24.6928   60.7327 C   0  0  0  0  0  0  0  0  0  0  0  0
   17.8569   24.7024   61.8489 C   0  0  0  0  0  0  0  0  0  0  0  0
   18.9204   25.5957   61.9228 C   0  0  0  0  0  0  0  0  0  0  0  0
   19.1633   26.4536   60.8554 C   0  0  0  0  0  0  0  0  0  0  0  0
   18.3507   26.4200   59.7231 C   0  0  0  0  0  0  0  0  0  0  0  0
   12.6943   25.4180   58.0901 C   0  0  0  0  0  0  0  0  0  0  0  0
  1  3  1  0  0  0  0
  2  1  1  1  0  0  0
  2  6  1  0  0  0  0
  2 34  1  0  0  0  0
  3  4  2  0  0  0  0
  3 28  1  0  0  0  0
  5 13  1  0  0  0  0
  6  7  1  0  0  0  0
  7  8  1  0  0  0  0
  8  9  1  0  0  0  0
  8 10  1  0  0  0  0
 11 13  2  0  0  0  0
 11 24  1  0  0  0  0
 12 34  1  0  0  0  0
 13 15  1  0  0  0  0
 14 34  1  0  0  0  0
 15 16  1  0  0  0  0
 16 17  1  0  0  0  0
 16 18  2  0  0  0  0
 17 20  1  0  0  0  0
 17 24  2  0  0  0  0
 19 21  1  0  0  0  0
 19 20  1  0  0  0  0
 20 22  1  0  0  0  0
 22 23  1  0  0  0  0
 22 26  1  6  0  0  0
 23 25  1  0  0  0  0
 24 25  1  0  0  0  0
 26 27  1  0  0  0  0
 27 31  1  0  0  0  0
 28 29  2  0  0  0  0
 28 33  1  0  0  0  0
 29 30  1  0  0  0  0
 30 31  2  0  0  0  0
 31 32  1  0  0  0  0
 32 33  2  0  0  0  0
M  END
>  <CHROM.1>
93.64983658,60.60526177,150.76175196,-69.05333511,115.99908167,134.50812142
68.69458466,-113.10895357,133.14583988,29.08501385,17.63828021,23.88106674
60.73992561,-2.77259701,0.49041349,2.67651962

>  <Name>
ligand

>  <RI>
0

>  <Rbt.Current_Directory>
/home/itssahil/PROJECTS/Mol_Feturizer/New_Systems/rnas/3SUH

>  <Rbt.Executable>
rbdock ($Id: //depot/dev/client3/rdock/2013.1/src/exe/rbdock.cxx#4 $)

>  <Rbt.Library>
libRbt.so (2013.1, Build901 2013/11/27)

>  <Rbt.Parameter_File>
/export/apps/rDock/src/rDock_2013.1_src/data/scripts/dock_solv.prm

>  <Rbt.Receptor>
prm/blind_docking_100.prm

>  <SCORE>
-12.4556

>  <SCORE.INTER>
-8.66492

>  <SCORE.INTER.CONST>
1

>  <SCORE.INTER.POLAR>
0

>  <SCORE.INTER.ROT>
10

>  <SCORE.INTER.SOLV>
12.6599

>  <SCORE.INTER.VDW>
-20.2633

>  <SCORE.INTER.norm>
-0.254851

>  <SCORE.INTRA>
-3.79065

>  <SCORE.INTRA.DIHEDRAL>
-3.58462

>  <SCORE.INTRA.DIHEDRAL.0>
12.2703

>  <SCORE.INTRA.POLAR>
0

>  <SCORE.INTRA.POLAR.0>
0

>  <SCORE.INTRA.REPUL>
0

>  <SCORE.INTRA.REPUL.0>
0

>  <SCORE.INTRA.SOLV>
3.70547

>  <SCORE.INTRA.SOLV.lig_0>
-64.3214

>  <SCORE.INTRA.VDW>
-3.85108

>  <SCORE.INTRA.VDW.0>
-1.67301

>  <SCORE.INTRA.norm>
-0.11149

>  <SCORE.RESTR>
0

>  <SCORE.RESTR.CAVITY>
0

>  <SCORE.RESTR.norm>
0

>  <SCORE.SYSTEM>
0

>  <SCORE.SYSTEM.CONST>
0

>  <SCORE.SYSTEM.DIHEDRAL>
0

>  <SCORE.SYSTEM.SOLV>
0

>  <SCORE.SYSTEM.norm>
0

>  <SCORE.heavy>
34

>  <SCORE.norm>
-0.366341

>  <RMSD>
25.050

$$$$
ligand
 OpenBabel11021811483D
libRbt.so/2013.1/901 2013/11/27
 34 36  0  0  0  0  0  0  0  0999 V2000
   14.9392   24.3431   58.6363 N   0  0  0  0  0  0  0  0  0  0  0  0
   13.9484   24.9528   57.7191 C   0  0  1  0  0  0  0  0  0  0  0  0
   14.7231   23.2157   59.3265 C   0  0  0  0  0  0  0  0  0  0  0  0
   13.6781   22.5607   59.2783 O   0  0  0  0  0  0  0  0  0  0  0  0
   20.2727   27.8310   59.6477 N   0  0  0  0  0  0  0  0  0  0  0  0
   13.4982   23.9161   56.6762 C   0  0  0  0  0  0  0  0  0  0  0  0
   14.6085   23.6191   55.6591 C   0  0  0  0  0  0  0  0  0  0  0  0
   15.7755   22.8645   56.3140 C   0  0  0  0  0  0  0  0  0  0  0  0
   15.6135   21.6415   56.5356 O   0  0  0  0  0  0  0  0  0  0  0  0
   16.8055   23.5271   56.5763 O   0  0  0  0  0  0  0  0  0  0  0  0
   21.3335   26.0047   60.5950 N   0  0  0  0  0  0  0  0  0  0  0  0
   12.5097   25.0643   59.6337 O   0  0  0  0  0  0  0  0  0  0  0  0
   20.2856   26.8452   60.5412 C   0  0  0  0  0  0  0  0  0  0  0  0
   12.0156   26.3444   57.8712 O   0  0  0  0  0  0  0  0  0  0  0  0
   19.2030   26.6955   61.4170 N   0  0  0  0  0  0  0  0  0  0  0  0
   19.2253   25.6602   62.3419 C   0  0  0  0  0  0  0  0  0  0  0  0
   20.3079   24.7906   62.3496 C   0  0  0  0  0  0  0  0  0  0  0  0
   18.2828   25.5023   63.1138 O   0  0  0  0  0  0  0  0  0  0  0  0
   19.9032   23.9865   64.5157 C   0  0  0  0  0  0  0  0  0  0  0  0
   20.4058   23.7821   63.3018 N   0  0  0  0  0  0  0  0  0  0  0  0
   20.4772   24.7261   65.3119 O   0  0  0  0  0  0  0  0  0  0  0  0
   21.2282   22.5997   63.0229 C   0  0  2  0  0  0  0  0  0  0  0  0
   22.6003   23.0617   62.5256 C   0  0  0  0  0  0  0  0  0  0  0  0
   21.3717   24.9990   61.4823 C   0  0  0  0  0  0  0  0  0  0  0  0
   22.4816   24.1479   61.5218 N   0  0  0  0  0  0  0  0  0  0  0  0
   20.5545   21.7137   61.9694 C   0  0  0  0  0  0  0  0  0  0  0  0
   19.1692   21.4372   62.3691 N   0  0  0  0  0  0  0  0  0  0  0  0
   15.9175   22.7447   60.1759 C   0  0  0  0  0  0  0  0  0  0  0  0
   15.9907   21.4287   60.6259 C   0  0  0  0  0  0  0  0  0  0  0  0
   17.0990   20.9894   61.3473 C   0  0  0  0  0  0  0  0  0  0  0  0
   18.1250   21.8730   61.6651 C   0  0  0  0  0  0  0  0  0  0  0  0
   18.0493   23.1898   61.2241 C   0  0  0  0  0  0  0  0  0  0  0  0
   16.9576   23.6212   60.4718 C   0  0  0  0  0  0  0  0  0  0  0  0
   12.7205   25.4999   58.4759 C   0  0  0  0  0  0  0  0  0  0  0  0
  1  3  1  0  0  0  0
  2  1  1  1  0  0  0
  2  6  1  0  0  0  0
  2 34  1  0  0  0  0
  3  4  2  0  0  0  0
  3 28  1  0  0  0  0
  5 13  1  0  0  0  0
  6  7  1  0  0  0  0
  7  8  1  0  0  0  0
  8  9  1  0  0  0  0
  8 10  1  0  0  0  0
 11 13  2  0  0  0  0
 11 24  1  0  0  0  0
 12 34  1  0  0  0  0
 13 15  1  0  0  0  0
 14 34  1  0  0  0  0
 15 16  1  0  0  0  0
 16 17  1  0  0  0  0
 16 18  2  0  0  0  0
 17 20  1  0  0  0  0
 17 24  2  0  0  0  0
 19 21  1  0  0  0  0
 19 20  1  0  0  0  0
 20 22  1  0  0  0  0
 22 23  1  0  0  0  0
 22 26  1  6  0  0  0
 23 25  1  0  0  0  0
 24 25  1  0  0  0  0
 26 27  1  0  0  0  0
 27 31  1  0  0  0  0
 28 29  2  0  0  0  0
 28 33  1  0  0  0  0
 29 30  1  0  0  0  0
 30 31  2  0  0  0  0
 31 32  1  0  0  0  0
 32 33  2  0  0  0  0
M  END
>  <CHROM.1>
-54.49450480,-71.49722223,-19.35821233,68.78617932,76.95856548,-74.03117230
-51.68839886,115.18411532,131.84853533,-161.29937009,17.60115578,24.00029445
60.39521632,-3.04130418,0.62209873,2.92191232

>  <Name>
ligand

>  <RI>
0

>  <Rbt.Current_Directory>
/home/itssahil/PROJECTS/Mol_Feturizer/New_Systems/rnas/3SUH

>  <Rbt.Executable>
rbdock ($Id: //depot/dev/client3/rdock/2013.1/src/exe/rbdock.cxx#4 $)

>  <Rbt.Library>
libRbt.so (2013.1, Build901 2013/11/27)

>  <Rbt.Parameter_File>
/export/apps/rDock/src/rDock_2013.1_src/data/scripts/dock_solv.prm

>  <Rbt.Receptor>
prm/blind_docking_80.prm

>  <SCORE>
-11.733

>  <SCORE.INTER>
-7.04196

>  <SCORE.INTER.CONST>
1

>  <SCORE.INTER.POLAR>
0

>  <SCORE.INTER.ROT>
10

>  <SCORE.INTER.SOLV>
14.8164

>  <SCORE.INTER.VDW>
-19.9001

>  <SCORE.INTER.norm>
-0.207116

>  <SCORE.INTRA>
-4.69101

>  <SCORE.INTRA.DIHEDRAL>
-3.73224

>  <SCORE.INTRA.DIHEDRAL.0>
12.2703

>  <SCORE.INTRA.POLAR>
0

>  <SCORE.INTRA.POLAR.0>
0

>  <SCORE.INTRA.REPUL>
0

>  <SCORE.INTRA.REPUL.0>
0

>  <SCORE.INTRA.SOLV>
1.2332

>  <SCORE.INTRA.SOLV.lig_0>
-64.3214

>  <SCORE.INTRA.VDW>
-3.44149

>  <SCORE.INTRA.VDW.0>
-1.67301

>  <SCORE.INTRA.norm>
-0.137971

>  <SCORE.RESTR>
0

>  <SCORE.RESTR.CAVITY>
0

>  <SCORE.RESTR.norm>
0

>  <SCORE.SYSTEM>
0

>  <SCORE.SYSTEM.CONST>
0

>  <SCORE.SYSTEM.DIHEDRAL>
0

>  <SCORE.SYSTEM.SOLV>
0

>  <SCORE.SYSTEM.norm>
0

>  <SCORE.heavy>
34

>  <SCORE.norm>
-0.345087

>  <RMSD>
25.133

$$$$
ligand
 OpenBabel11021811483D
libRbt.so/2013.1/901 2013/11/27
 34 36  0  0  0  0  0  0  0  0999 V2000
   14.6966   22.2723   59.1101 N   0  0  0  0  0  0  0  0  0  0  0  0
   13.6116   22.0783   58.1202 C   0  0  1  0  0  0  0  0  0  0  0  0
   15.2003   21.2896   59.8682 C   0  0  0  0  0  0  0  0  0  0  0  0
   14.8183   20.1167   59.8295 O   0  0  0  0  0  0  0  0  0  0  0  0
   19.6802   27.1210   58.3397 N   0  0  0  0  0  0  0  0  0  0  0  0
   12.9713   23.4340   57.7778 C   0  0  0  0  0  0  0  0  0  0  0  0
   13.9931   24.4036   57.1684 C   0  0  0  0  0  0  0  0  0  0  0  0
   14.9442   24.9560   58.2410 C   0  0  0  0  0  0  0  0  0  0  0  0
   16.1270   24.5416   58.2251 O   0  0  0  0  0  0  0  0  0  0  0  0
   14.4679   25.7829   59.0522 O   0  0  0  0  0  0  0  0  0  0  0  0
   21.0241   25.8856   59.7631 N   0  0  0  0  0  0  0  0  0  0  0  0
   15.3249   21.5661   56.5233 O   0  0  0  0  0  0  0  0  0  0  0  0
   19.9307   26.6395   59.5546 C   0  0  0  0  0  0  0  0  0  0  0  0
   13.2826   20.7298   56.1788 O   0  0  0  0  0  0  0  0  0  0  0  0
   19.0483   26.9254   60.6040 N   0  0  0  0  0  0  0  0  0  0  0  0
   19.3173   26.4135   61.8662 C   0  0  0  0  0  0  0  0  0  0  0  0
   20.4379   25.6120   62.0404 C   0  0  0  0  0  0  0  0  0  0  0  0
   18.5528   26.6420   62.8003 O   0  0  0  0  0  0  0  0  0  0  0  0
   20.5106   25.8733   64.3703 C   0  0  0  0  0  0  0  0  0  0  0  0
   20.7844   25.1344   63.2994 N   0  0  0  0  0  0  0  0  0  0  0  0
   21.1612   26.8878   64.6109 O   0  0  0  0  0  0  0  0  0  0  0  0
   21.6165   23.9317   63.4142 C   0  0  2  0  0  0  0  0  0  0  0  0
   22.8336   24.0870   62.4987 C   0  0  0  0  0  0  0  0  0  0  0  0
   21.2994   25.3829   60.9761 C   0  0  0  0  0  0  0  0  0  0  0  0
   22.4516   24.6115   61.1644 N   0  0  0  0  0  0  0  0  0  0  0  0
   20.8154   22.6854   63.0223 C   0  0  0  0  0  0  0  0  0  0  0  0
   19.3959   22.8918   63.3349 N   0  0  0  0  0  0  0  0  0  0  0  0
   16.3580   21.7183   60.7879 C   0  0  0  0  0  0  0  0  0  0  0  0
   16.6735   23.0654   60.9474 C   0  0  0  0  0  0  0  0  0  0  0  0
   17.6851   23.4552   61.8229 C   0  0  0  0  0  0  0  0  0  0  0  0
   18.4222   22.4994   62.5140 C   0  0  0  0  0  0  0  0  0  0  0  0
   18.1143   21.1532   62.3491 C   0  0  0  0  0  0  0  0  0  0  0  0
   17.0788   20.7643   61.5005 C   0  0  0  0  0  0  0  0  0  0  0  0
   14.1198   21.4000   56.8312 C   0  0  0  0  0  0  0  0  0  0  0  0
  1  3  1  0  0  0  0
  2  1  1  1  0  0  0
  2  6  1  0  0  0  0
  2 34  1  0  0  0  0
  3  4  2  0  0  0  0
  3 28  1  0  0  0  0
  5 13  1  0  0  0  0
  6  7  1  0  0  0  0
  7  8  1  0  0  0  0
  8  9  1  0  0  0  0
  8 10  1  0  0  0  0
 11 13  2  0  0  0  0
 11 24  1  0  0  0  0
 12 34  1  0  0  0  0
 13 15  1  0  0  0  0
 14 34  1  0  0  0  0
 15 16  1  0  0  0  0
 16 17  1  0  0  0  0
 16 18  2  0  0  0  0
 17 20  1  0  0  0  0
 17 24  2  0  0  0  0
 19 21  1  0  0  0  0
 19 20  1  0  0  0  0
 20 22  1  0  0  0  0
 22 23  1  0  0  0  0
 22 26  1  6  0  0  0
 23 25  1  0  0  0  0
 24 25  1  0  0  0  0
 26 27  1  0  0  0  0
 27 31  1  0  0  0  0
 28 29  2  0  0  0  0
 28 33  1  0  0  0  0
 29 30  1  0  0  0  0
 30 31  2  0  0  0  0
 31 32  1  0  0  0  0
 32 33  2  0  0  0  0
M  END
>  <CHROM.1>
161.47079580,60.60340546,-27.29090241,-74.64727482,108.21361796,-72.87991725
-29.84788024,138.81258875,-109.10733450,9.89685951,17.80884034,23.90718826
60.50546360,-3.09634330,-0.69962521,-0.50277323

>  <Name>
ligand

>  <RI>
0

>  <Rbt.Current_Directory>
/home/itssahil/PROJECTS/Mol_Feturizer/New_Systems/rnas/3SUH

>  <Rbt.Executable>
rbdock ($Id: //depot/dev/client3/rdock/2013.1/src/exe/rbdock.cxx#4 $)

>  <Rbt.Library>
libRbt.so (2013.1, Build901 2013/11/27)

>  <Rbt.Parameter_File>
/export/apps/rDock/src/rDock_2013.1_src/data/scripts/dock_solv.prm

>  <Rbt.Receptor>
prm/blind_docking_100.prm

>  <SCORE>
-9.22514

>  <SCORE.INTER>
-5.60368

>  <SCORE.INTER.CONST>
1

>  <SCORE.INTER.POLAR>
0

>  <SCORE.INTER.ROT>
10

>  <SCORE.INTER.SOLV>
8.41084

>  <SCORE.INTER.VDW>
-16.8061

>  <SCORE.INTER.norm>
-0.164814

>  <SCORE.INTRA>
-3.62219

>  <SCORE.INTRA.DIHEDRAL>
-1.40192

>  <SCORE.INTRA.DIHEDRAL.0>
12.2703

>  <SCORE.INTRA.POLAR>
0

>  <SCORE.INTRA.POLAR.0>
0

>  <SCORE.INTRA.REPUL>
0

>  <SCORE.INTRA.REPUL.0>
0

>  <SCORE.INTRA.SOLV>
0.911807

>  <SCORE.INTRA.SOLV.lig_0>
-64.3214

>  <SCORE.INTRA.VDW>
-3.37713

>  <SCORE.INTRA.VDW.0>
-1.67301

>  <SCORE.INTRA.norm>
-0.106535

>  <SCORE.RESTR>
0.000722581

>  <SCORE.RESTR.CAVITY>
0.000722581

>  <SCORE.RESTR.norm>
2.12524e-05

>  <SCORE.SYSTEM>
0

>  <SCORE.SYSTEM.CONST>
0

>  <SCORE.SYSTEM.DIHEDRAL>
0

>  <SCORE.SYSTEM.SOLV>
0

>  <SCORE.SYSTEM.norm>
0

>  <SCORE.heavy>
34

>  <SCORE.norm>
-0.271328

>  <RMSD>
25.154

$$$$
ligand
 OpenBabel11021811483D
libRbt.so/2013.1/901 2013/11/27
 34 36  0  0  0  0  0  0  0  0999 V2000
   15.2672   24.3547   58.0480 N   0  0  0  0  0  0  0  0  0  0  0  0
   13.9996   24.8222   57.4401 C   0  0  1  0  0  0  0  0  0  0  0  0
   16.2521   25.1721   58.4426 C   0  0  0  0  0  0  0  0  0  0  0  0
   16.2165   26.4018   58.3435 O   0  0  0  0  0  0  0  0  0  0  0  0
   20.4580   27.8315   58.9265 N   0  0  0  0  0  0  0  0  0  0  0  0
   13.2803   23.6424   56.7650 C   0  0  0  0  0  0  0  0  0  0  0  0
   14.1200   23.0446   55.6280 C   0  0  0  0  0  0  0  0  0  0  0  0
   13.3948   21.8658   54.9612 C   0  0  0  0  0  0  0  0  0  0  0  0
   13.0211   22.0211   53.7749 O   0  0  0  0  0  0  0  0  0  0  0  0
   13.2321   20.8338   55.6520 O   0  0  0  0  0  0  0  0  0  0  0  0
   21.5166   26.1832   60.1598 N   0  0  0  0  0  0  0  0  0  0  0  0
   12.2261   26.3101   58.0636 O   0  0  0  0  0  0  0  0  0  0  0  0
   20.4767   27.0154   59.9773 C   0  0  0  0  0  0  0  0  0  0  0  0
   13.2221   25.1277   59.6756 O   0  0  0  0  0  0  0  0  0  0  0  0
   19.4083   27.0342   60.8828 N   0  0  0  0  0  0  0  0  0  0  0  0
   19.4363   26.1748   61.9728 C   0  0  0  0  0  0  0  0  0  0  0  0
   20.5098   25.3054   62.1143 C   0  0  0  0  0  0  0  0  0  0  0  0
   18.5061   26.1656   62.7751 O   0  0  0  0  0  0  0  0  0  0  0  0
   20.1354   24.8945   64.3932 C   0  0  0  0  0  0  0  0  0  0  0  0
   20.6142   24.4760   63.2255 N   0  0  0  0  0  0  0  0  0  0  0  0
   20.8410   25.5479   65.1584 O   0  0  0  0  0  0  0  0  0  0  0  0
   21.4193   23.2524   63.1431 C   0  0  2  0  0  0  0  0  0  0  0  0
   22.7870   23.6029   62.5517 C   0  0  0  0  0  0  0  0  0  0  0  0
   21.5601   25.3461   61.2074 C   0  0  0  0  0  0  0  0  0  0  0  0
   22.6617   24.5001   61.3766 N   0  0  0  0  0  0  0  0  0  0  0  0
   20.7178   22.2062   62.2702 C   0  0  0  0  0  0  0  0  0  0  0  0
   20.7167   22.6505   60.8710 N   0  0  0  0  0  0  0  0  0  0  0  0
   17.4526   24.4620   59.0941 C   0  0  0  0  0  0  0  0  0  0  0  0
   18.6643   24.3538   58.4158 C   0  0  0  0  0  0  0  0  0  0  0  0
   19.7661   23.7601   59.0283 C   0  0  0  0  0  0  0  0  0  0  0  0
   19.6556   23.2280   60.3086 C   0  0  0  0  0  0  0  0  0  0  0  0
   18.4438   23.3273   60.9839 C   0  0  0  0  0  0  0  0  0  0  0  0
   17.3509   23.9528   60.3856 C   0  0  0  0  0  0  0  0  0  0  0  0
   13.0670   25.4770   58.4800 C   0  0  0  0  0  0  0  0  0  0  0  0
  1  3  1  0  0  0  0
  2  1  1  1  0  0  0
  2  6  1  0  0  0  0
  2 34  1  0  0  0  0
  3  4  2  0  0  0  0
  3 28  1  0  0  0  0
  5 13  1  0  0  0  0
  6  7  1  0  0  0  0
  7  8  1  0  0  0  0
  8  9  1  0  0  0  0
  8 10  1  0  0  0  0
 11 13  2  0  0  0  0
 11 24  1  0  0  0  0
 12 34  1  0  0  0  0
 13 15  1  0  0  0  0
 14 34  1  0  0  0  0
 15 16  1  0  0  0  0
 16 17  1  0  0  0  0
 16 18  2  0  0  0  0
 17 20  1  0  0  0  0
 17 24  2  0  0  0  0
 19 21  1  0  0  0  0
 19 20  1  0  0  0  0
 20 22  1  0  0  0  0
 22 23  1  0  0  0  0
 22 26  1  6  0  0  0
 23 25  1  0  0  0  0
 24 25  1  0  0  0  0
 26 27  1  0  0  0  0
 27 31  1  0  0  0  0
 28 29  2  0  0  0  0
 28 33  1  0  0  0  0
 29 30  1  0  0  0  0
 30 31  2  0  0  0  0
 31 32  1  0  0  0  0
 32 33  2  0  0  0  0
M  END
>  <CHROM.1>
164.51700049,-61.94117173,155.13309801,179.91421455,113.03694732,-88.20843413
68.92260357,-99.34667106,172.87239775,107.62918346,17.86320845,24.54232380
59.82382068,2.67273999,0.50715748,-2.55143724

>  <Name>
ligand

>  <RI>
0

>  <Rbt.Current_Directory>
/home/itssahil/PROJECTS/Mol_Feturizer/New_Systems/rnas/3SUH

>  <Rbt.Executable>
rbdock ($Id: //depot/dev/client3/rdock/2013.1/src/exe/rbdock.cxx#4 $)

>  <Rbt.Library>
libRbt.so (2013.1, Build901 2013/11/27)

>  <Rbt.Parameter_File>
/export/apps/rDock/src/rDock_2013.1_src/data/scripts/dock_solv.prm

>  <Rbt.Receptor>
prm/blind_docking_80.prm

>  <SCORE>
-11.2084

>  <SCORE.INTER>
-6.22865

>  <SCORE.INTER.CONST>
1

>  <SCORE.INTER.POLAR>
0

>  <SCORE.INTER.ROT>
10

>  <SCORE.INTER.SOLV>
11.9413

>  <SCORE.INTER.VDW>
-18.3995

>  <SCORE.INTER.norm>
-0.183196

>  <SCORE.INTRA>
-4.9827

>  <SCORE.INTRA.DIHEDRAL>
-4.70409

>  <SCORE.INTRA.DIHEDRAL.0>
12.2703

>  <SCORE.INTRA.POLAR>
0

>  <SCORE.INTRA.POLAR.0>
0

>  <SCORE.INTRA.REPUL>
0

>  <SCORE.INTRA.REPUL.0>
0

>  <SCORE.INTRA.SOLV>
2.32015

>  <SCORE.INTRA.SOLV.lig_0>
-64.3214

>  <SCORE.INTRA.VDW>
-3.79072

>  <SCORE.INTRA.VDW.0>
-1.67301

>  <SCORE.INTRA.norm>
-0.14655

>  <SCORE.RESTR>
0.00293816

>  <SCORE.RESTR.CAVITY>
0.00293816

>  <SCORE.RESTR.norm>
8.64165e-05

>  <SCORE.SYSTEM>
0

>  <SCORE.SYSTEM.CONST>
0

>  <SCORE.SYSTEM.DIHEDRAL>
0

>  <SCORE.SYSTEM.SOLV>
0

>  <SCORE.SYSTEM.norm>
0

>  <SCORE.heavy>
34

>  <SCORE.norm>
-0.329659

>  <RMSD>
25.210

$$$$
ligand
 OpenBabel11021811483D
libRbt.so/2013.1/901 2013/11/27
 34 36  0  0  0  0  0  0  0  0999 V2000
   20.0080   23.4319   61.3742 N   0  0  0  0  0  0  0  0  0  0  0  0
   21.4386   23.6771   61.6710 C   0  0  1  0  0  0  0  0  0  0  0  0
   19.4238   22.2293   61.4559 C   0  0  0  0  0  0  0  0  0  0  0  0
   20.0087   21.1934   61.7846 O   0  0  0  0  0  0  0  0  0  0  0  0
   18.6040   26.7425   58.3794 N   0  0  0  0  0  0  0  0  0  0  0  0
   21.6775   23.5891   63.1877 C   0  0  0  0  0  0  0  0  0  0  0  0
   21.0925   24.8025   63.9231 C   0  0  0  0  0  0  0  0  0  0  0  0
   19.5568   24.7605   63.9317 C   0  0  0  0  0  0  0  0  0  0  0  0
   18.9537   25.8376   63.7143 O   0  0  0  0  0  0  0  0  0  0  0  0
   19.0194   23.6510   64.1530 O   0  0  0  0  0  0  0  0  0  0  0  0
   16.3120   26.4373   58.4885 N   0  0  0  0  0  0  0  0  0  0  0  0
   23.0050   21.8624   61.6379 O   0  0  0  0  0  0  0  0  0  0  0  0
   17.5434   25.9477   58.2620 C   0  0  0  0  0  0  0  0  0  0  0  0
   22.3991   22.7640   59.6863 O   0  0  0  0  0  0  0  0  0  0  0  0
   17.7248   24.6061   57.9029 N   0  0  0  0  0  0  0  0  0  0  0  0
   16.6112   23.7849   57.7883 C   0  0  0  0  0  0  0  0  0  0  0  0
   15.3564   24.3141   58.0603 C   0  0  0  0  0  0  0  0  0  0  0  0
   16.7456   22.6022   57.4845 O   0  0  0  0  0  0  0  0  0  0  0  0
   14.1791   22.6255   56.9357 C   0  0  0  0  0  0  0  0  0  0  0  0
   14.2079   23.5486   57.8922 N   0  0  0  0  0  0  0  0  0  0  0  0
   14.4320   22.9260   55.7712 O   0  0  0  0  0  0  0  0  0  0  0  0
   12.9885   23.9007   58.6280 C   0  0  2  0  0  0  0  0  0  0  0  0
   12.7192   25.3966   58.4457 C   0  0  0  0  0  0  0  0  0  0  0  0
   15.2250   25.6581   58.3823 C   0  0  0  0  0  0  0  0  0  0  0  0
   13.9556   26.1997   58.6127 N   0  0  0  0  0  0  0  0  0  0  0  0
   13.1448   23.5687   60.1159 C   0  0  0  0  0  0  0  0  0  0  0  0
   13.8771   22.3052   60.2661 N   0  0  0  0  0  0  0  0  0  0  0  0
   17.9150   22.2272   61.1508 C   0  0  0  0  0  0  0  0  0  0  0  0
   17.0607   23.1163   61.7985 C   0  0  0  0  0  0  0  0  0  0  0  0
   15.7043   23.1511   61.4808 C   0  0  0  0  0  0  0  0  0  0  0  0
   15.1796   22.2664   60.5447 C   0  0  0  0  0  0  0  0  0  0  0  0
   16.0298   21.3717   59.9035 C   0  0  0  0  0  0  0  0  0  0  0  0
   17.3931   21.3604   60.1948 C   0  0  0  0  0  0  0  0  0  0  0  0
   22.3600   22.6802   60.9381 C   0  0  0  0  0  0  0  0  0  0  0  0
  1  3  1  0  0  0  0
  2  1  1  1  0  0  0
  2  6  1  0  0  0  0
  2 34  1  0  0  0  0
  3  4  2  0  0  0  0
  3 28  1  0  0  0  0
  5 13  1  0  0  0  0
  6  7  1  0  0  0  0
  7  8  1  0  0  0  0
  8  9  1  0  0  0  0
  8 10  1  0  0  0  0
 11 13  2  0  0  0  0
 11 24  1  0  0  0  0
 12 34  1  0  0  0  0
 13 15  1  0  0  0  0
 14 34  1  0  0  0  0
 15 16  1  0  0  0  0
 16 17  1  0  0  0  0
 16 18  2  0  0  0  0
 17 20  1  0  0  0  0
 17 24  2  0  0  0  0
 19 21  1  0  0  0  0
 19 20  1  0  0  0  0
 20 22  1  0  0  0  0
 22 23  1  0  0  0  0
 22 26  1  1  0  0  0
 23 25  1  0  0  0  0
 24 25  1  0  0  0  0
 26 27  1  0  0  0  0
 27 31  1  0  0  0  0
 28 29  2  0  0  0  0
 28 33  1  0  0  0  0
 29 30  1  0  0  0  0
 30 31  2  0  0  0  0
 31 32  1  0  0  0  0
 32 33  2  0  0  0  0
M  END
>  <CHROM.1>
-72.70237081,-72.32112239,-113.43267041,71.04568774,-137.80440947,-54.48591732
-38.76812787,99.34086530,41.38794134,-51.35109824,17.46690107,23.66215830
60.12047645,-0.52510077,0.21328813,-1.74602889

>  <Name>
ligand

>  <RI>
0

>  <Rbt.Current_Directory>
/home/itssahil/PROJECTS/Mol_Feturizer/New_Systems/rnas/3SUH

>  <Rbt.Executable>
rbdock ($Id: //depot/dev/client3/rdock/2013.1/src/exe/rbdock.cxx#4 $)

>  <Rbt.Library>
libRbt.so (2013.1, Build901 2013/11/27)

>  <Rbt.Parameter_File>
/export/apps/rDock/src/rDock_2013.1_src/data/scripts/dock_solv.prm

>  <Rbt.Receptor>
prm/blind_docking_80.prm

>  <SCORE>
-9.82373

>  <SCORE.INTER>
-6.07229

>  <SCORE.INTER.CONST>
1

>  <SCORE.INTER.POLAR>
0

>  <SCORE.INTER.ROT>
10

>  <SCORE.INTER.SOLV>
9.57676

>  <SCORE.INTER.VDW>
-17.5071

>  <SCORE.INTER.norm>
-0.178597

>  <SCORE.INTRA>
-3.75143

>  <SCORE.INTRA.DIHEDRAL>
-2.22441

>  <SCORE.INTRA.DIHEDRAL.0>
12.2703

>  <SCORE.INTRA.POLAR>
0

>  <SCORE.INTRA.POLAR.0>
0

>  <SCORE.INTRA.REPUL>
0

>  <SCORE.INTRA.REPUL.0>
0

>  <SCORE.INTRA.SOLV>
1.621

>  <SCORE.INTRA.SOLV.lig_0>
-64.3214

>  <SCORE.INTRA.VDW>
-3.44973

>  <SCORE.INTRA.VDW.0>
-1.67301

>  <SCORE.INTRA.norm>
-0.110336

>  <SCORE.RESTR>
0

>  <SCORE.RESTR.CAVITY>
0

>  <SCORE.RESTR.norm>
0

>  <SCORE.SYSTEM>
0

>  <SCORE.SYSTEM.CONST>
0

>  <SCORE.SYSTEM.DIHEDRAL>
0

>  <SCORE.SYSTEM.SOLV>
0

>  <SCORE.SYSTEM.norm>
0

>  <SCORE.heavy>
34

>  <SCORE.norm>
-0.288933

>  <RMSD>
25.248

$$$$
ligand
 OpenBabel11021811483D
libRbt.so/2013.1/901 2013/11/27
 34 36  0  0  0  0  0  0  0  0999 V2000
   18.7917   26.2747   60.4779 N   0  0  0  0  0  0  0  0  0  0  0  0
   19.6655   26.6485   61.6144 C   0  0  1  0  0  0  0  0  0  0  0  0
   19.0481   26.5934   59.2025 C   0  0  0  0  0  0  0  0  0  0  0  0
   20.0360   27.2332   58.8311 O   0  0  0  0  0  0  0  0  0  0  0  0
   14.9306   19.6864   61.1332 N   0  0  0  0  0  0  0  0  0  0  0  0
   18.8673   26.5839   62.9274 C   0  0  0  0  0  0  0  0  0  0  0  0
   18.1809   25.2228   63.1048 C   0  0  0  0  0  0  0  0  0  0  0  0
   19.1984   24.1291   63.4634 C   0  0  0  0  0  0  0  0  0  0  0  0
   19.3488   23.1956   62.6406 O   0  0  0  0  0  0  0  0  0  0  0  0
   19.8058   24.2520   64.5518 O   0  0  0  0  0  0  0  0  0  0  0  0
   14.1731   20.1936   59.0054 N   0  0  0  0  0  0  0  0  0  0  0  0
   20.9899   24.7793   60.9073 O   0  0  0  0  0  0  0  0  0  0  0  0
   14.5399   20.5889   60.2370 C   0  0  0  0  0  0  0  0  0  0  0  0
   21.7478   26.0248   62.5994 O   0  0  0  0  0  0  0  0  0  0  0  0
   14.5161   21.9441   60.5898 N   0  0  0  0  0  0  0  0  0  0  0  0
   14.1113   22.8773   59.6449 C   0  0  0  0  0  0  0  0  0  0  0  0
   13.7697   22.4388   58.3723 C   0  0  0  0  0  0  0  0  0  0  0  0
   14.0918   24.0727   59.9274 O   0  0  0  0  0  0  0  0  0  0  0  0
   12.5761   24.3772   57.8064 C   0  0  0  0  0  0  0  0  0  0  0  0
   13.2934   23.3282   57.4155 N   0  0  0  0  0  0  0  0  0  0  0  0
   12.4874   25.3732   57.0919 O   0  0  0  0  0  0  0  0  0  0  0  0
   13.4144   22.9942   55.9921 C   0  0  2  0  0  0  0  0  0  0  0  0
   12.8887   21.5731   55.7743 C   0  0  0  0  0  0  0  0  0  0  0  0
   13.7794   21.0817   58.0800 C   0  0  0  0  0  0  0  0  0  0  0  0
   13.3923   20.6383   56.8106 N   0  0  0  0  0  0  0  0  0  0  0  0
   14.8754   23.0929   55.5400 C   0  0  0  0  0  0  0  0  0  0  0  0
   15.2878   24.5014   55.5049 N   0  0  0  0  0  0  0  0  0  0  0  0
   18.0245   26.0524   58.1880 C   0  0  0  0  0  0  0  0  0  0  0  0
   18.4496   25.4119   57.0266 C   0  0  0  0  0  0  0  0  0  0  0  0
   17.5222   24.8736   56.1367 C   0  0  0  0  0  0  0  0  0  0  0  0
   16.1589   25.0097   56.3760 C   0  0  0  0  0  0  0  0  0  0  0  0
   15.7324   25.6569   57.5308 C   0  0  0  0  0  0  0  0  0  0  0  0
   16.6600   26.1644   58.4396 C   0  0  0  0  0  0  0  0  0  0  0  0
   20.9072   25.7384   61.7123 C   0  0  0  0  0  0  0  0  0  0  0  0
  1  3  1  0  0  0  0
  2  1  1  6  0  0  0
  2  6  1  0  0  0  0
  2 34  1  0  0  0  0
  3  4  2  0  0  0  0
  3 28  1  0  0  0  0
  5 13  1  0  0  0  0
  6  7  1  0  0  0  0
  7  8  1  0  0  0  0
  8  9  1  0  0  0  0
  8 10  1  0  0  0  0
 11 13  2  0  0  0  0
 11 24  1  0  0  0  0
 12 34  1  0  0  0  0
 13 15  1  0  0  0  0
 14 34  1  0  0  0  0
 15 16  1  0  0  0  0
 16 17  1  0  0  0  0
 16 18  2  0  0  0  0
 17 20  1  0  0  0  0
 17 24  2  0  0  0  0
 19 21  1  0  0  0  0
 19 20  1  0  0  0  0
 20 22  1  0  0  0  0
 22 23  1  0  0  0  0
 22 26  1  1  0  0  0
 23 25  1  0  0  0  0
 24 25  1  0  0  0  0
 26 27  1  0  0  0  0
 27 31  1  0  0  0  0
 28 29  2  0  0  0  0
 28 33  1  0  0  0  0
 29 30  1  0  0  0  0
 30 31  2  0  0  0  0
 31 32  1  0  0  0  0
 32 33  2  0  0  0  0
M  END
>  <CHROM.1>
159.92034740,53.26071939,-4.11074775,73.38069535,-116.16373118,157.64595503
-70.80829904,110.21631483,84.03737396,-132.73542819,16.54894556,24.08543904
59.33268178,-0.25817842,-0.68386782,-0.96424233

>  <Name>
ligand

>  <RI>
0

>  <Rbt.Current_Directory>
/home/itssahil/PROJECTS/Mol_Feturizer/New_Systems/rnas/3SUH

>  <Rbt.Executable>
rbdock ($Id: //depot/dev/client3/rdock/2013.1/src/exe/rbdock.cxx#4 $)

>  <Rbt.Library>
libRbt.so (2013.1, Build901 2013/11/27)

>  <Rbt.Parameter_File>
/export/apps/rDock/src/rDock_2013.1_src/data/scripts/dock_solv.prm

>  <Rbt.Receptor>
prm/blind_docking_80.prm

>  <SCORE>
-9.8399

>  <SCORE.INTER>
-5.20728

>  <SCORE.INTER.CONST>
1

>  <SCORE.INTER.POLAR>
0

>  <SCORE.INTER.ROT>
10

>  <SCORE.INTER.SOLV>
12.4716

>  <SCORE.INTER.VDW>
-17.8954

>  <SCORE.INTER.norm>
-0.153155

>  <SCORE.INTRA>
-4.63263

>  <SCORE.INTRA.DIHEDRAL>
-3.35076

>  <SCORE.INTRA.DIHEDRAL.0>
12.2703

>  <SCORE.INTRA.POLAR>
0

>  <SCORE.INTRA.POLAR.0>
0

>  <SCORE.INTRA.REPUL>
0

>  <SCORE.INTRA.REPUL.0>
0

>  <SCORE.INTRA.SOLV>
0.27994

>  <SCORE.INTRA.SOLV.lig_0>
-64.3214

>  <SCORE.INTRA.VDW>
-3.09722

>  <SCORE.INTRA.VDW.0>
-1.67301

>  <SCORE.INTRA.norm>
-0.136254

>  <SCORE.RESTR>
0

>  <SCORE.RESTR.CAVITY>
0

>  <SCORE.RESTR.norm>
0

>  <SCORE.SYSTEM>
0

>  <SCORE.SYSTEM.CONST>
0

>  <SCORE.SYSTEM.DIHEDRAL>
0

>  <SCORE.SYSTEM.SOLV>
0

>  <SCORE.SYSTEM.norm>
0

>  <SCORE.heavy>
34

>  <SCORE.norm>
-0.289409

>  <RMSD>
25.267

$$$$
ligand
 OpenBabel11021811483D
libRbt.so/2013.1/901 2013/11/27
 34 36  0  0  0  0  0  0  0  0999 V2000
   15.0924   22.0558   59.2303 N   0  0  0  0  0  0  0  0  0  0  0  0
   13.9262   21.9222   58.3265 C   0  0  1  0  0  0  0  0  0  0  0  0
   15.5269   21.0795   60.0379 C   0  0  0  0  0  0  0  0  0  0  0  0
   15.0064   19.9636   60.1217 O   0  0  0  0  0  0  0  0  0  0  0  0
   19.6234   26.8220   57.0705 N   0  0  0  0  0  0  0  0  0  0  0  0
   13.3022   23.3051   58.0748 C   0  0  0  0  0  0  0  0  0  0  0  0
   14.2716   24.2360   57.3338 C   0  0  0  0  0  0  0  0  0  0  0  0
   15.4195   24.6869   58.2499 C   0  0  0  0  0  0  0  0  0  0  0  0
   15.1574   25.5638   59.1062 O   0  0  0  0  0  0  0  0  0  0  0  0
   16.5339   24.1425   58.0754 O   0  0  0  0  0  0  0  0  0  0  0  0
   20.7718   26.4353   59.0428 N   0  0  0  0  0  0  0  0  0  0  0  0
   13.4713   20.5006   56.4504 O   0  0  0  0  0  0  0  0  0  0  0  0
   19.6218   26.4451   58.3466 C   0  0  0  0  0  0  0  0  0  0  0  0
   15.4397   21.5540   56.5184 O   0  0  0  0  0  0  0  0  0  0  0  0
   18.4172   26.0618   58.9497 N   0  0  0  0  0  0  0  0  0  0  0  0
   18.4284   25.6656   60.2803 C   0  0  0  0  0  0  0  0  0  0  0  0
   19.6382   25.6363   60.9615 C   0  0  0  0  0  0  0  0  0  0  0  0
   17.3864   25.3153   60.8284 O   0  0  0  0  0  0  0  0  0  0  0  0
   18.6661   25.6437   63.0963 C   0  0  0  0  0  0  0  0  0  0  0  0
   19.6882   25.3127   62.3129 N   0  0  0  0  0  0  0  0  0  0  0  0
   18.5483   26.7930   63.5153 O   0  0  0  0  0  0  0  0  0  0  0  0
   20.9354   24.7984   62.8890 C   0  0  2  0  0  0  0  0  0  0  0  0
   22.0857   25.7178   62.4709 C   0  0  0  0  0  0  0  0  0  0  0  0
   20.8010   26.0555   60.3293 C   0  0  0  0  0  0  0  0  0  0  0  0
   22.0116   26.0672   61.0308 N   0  0  0  0  0  0  0  0  0  0  0  0
   21.1995   23.3679   62.4068 C   0  0  0  0  0  0  0  0  0  0  0  0
   20.1863   22.4635   62.9642 N   0  0  0  0  0  0  0  0  0  0  0  0
   16.7881   21.4308   60.8477 C   0  0  0  0  0  0  0  0  0  0  0  0
   18.0553   21.1622   60.3360 C   0  0  0  0  0  0  0  0  0  0  0  0
   19.1965   21.5312   61.0455 C   0  0  0  0  0  0  0  0  0  0  0  0
   19.0828   22.1321   62.2946 C   0  0  0  0  0  0  0  0  0  0  0  0
   17.8181   22.3930   62.8111 C   0  0  0  0  0  0  0  0  0  0  0  0
   16.6758   22.0564   62.0861 C   0  0  0  0  0  0  0  0  0  0  0  0
   14.3087   21.2690   56.9823 C   0  0  0  0  0  0  0  0  0  0  0  0
  1  3  1  0  0  0  0
  2  1  1  1  0  0  0
  2  6  1  0  0  0  0
  2 34  1  0  0  0  0
  3  4  2  0  0  0  0
  3 28  1  0  0  0  0
  5 13  1  0  0  0  0
  6  7  1  0  0  0  0
  7  8  1  0  0  0  0
  8  9  1  0  0  0  0
  8 10  1  0  0  0  0
 11 13  2  0  0  0  0
 11 24  1  0  0  0  0
 12 34  1  0  0  0  0
 13 15  1  0  0  0  0
 14 34  1  0  0  0  0
 15 16  1  0  0  0  0
 16 17  1  0  0  0  0
 16 18  2  0  0  0  0
 17 20  1  0  0  0  0
 17 24  2  0  0  0  0
 19 21  1  0  0  0  0
 19 20  1  0  0  0  0
 20 22  1  0  0  0  0
 22 23  1  0  0  0  0
 22 26  1  6  0  0  0
 23 25  1  0  0  0  0
 24 25  1  0  0  0  0
 26 27  1  0  0  0  0
 27 31  1  0  0  0  0
 28 29  2  0  0  0  0
 28 33  1  0  0  0  0
 29 30  1  0  0  0  0
 30 31  2  0  0  0  0
 31 32  1  0  0  0  0
 32 33  2  0  0  0  0
M  END
>  <CHROM.1>
153.16896787,64.12573119,144.09872162,-71.83812175,-75.84132935,-79.52668823
-67.35795825,94.88062036,57.71515772,-90.18142288,17.68132688,23.83569560
60.08845977,-3.11379252,-0.71111545,-0.70679914

>  <Name>
ligand

>  <RI>
0

>  <Rbt.Current_Directory>
/home/itssahil/PROJECTS/Mol_Feturizer/New_Systems/rnas/3SUH

>  <Rbt.Executable>
rbdock ($Id: //depot/dev/client3/rdock/2013.1/src/exe/rbdock.cxx#4 $)

>  <Rbt.Library>
libRbt.so (2013.1, Build901 2013/11/27)

>  <Rbt.Parameter_File>
/export/apps/rDock/src/rDock_2013.1_src/data/scripts/dock_solv.prm

>  <Rbt.Receptor>
prm/blind_docking_100.prm

>  <SCORE>
-12.0433

>  <SCORE.INTER>
-5.18439

>  <SCORE.INTER.CONST>
1

>  <SCORE.INTER.POLAR>
0

>  <SCORE.INTER.ROT>
10

>  <SCORE.INTER.SOLV>
8.79836

>  <SCORE.INTER.VDW>
-16.6557

>  <SCORE.INTER.norm>
-0.152482

>  <SCORE.INTRA>
-6.8589

>  <SCORE.INTRA.DIHEDRAL>
-4.13297

>  <SCORE.INTRA.DIHEDRAL.0>
12.2703

>  <SCORE.INTRA.POLAR>
0

>  <SCORE.INTRA.POLAR.0>
0

>  <SCORE.INTRA.REPUL>
0.00145472

>  <SCORE.INTRA.REPUL.0>
0

>  <SCORE.INTRA.SOLV>
0.147926

>  <SCORE.INTRA.SOLV.lig_0>
-64.3214

>  <SCORE.INTRA.VDW>
-4.87365

>  <SCORE.INTRA.VDW.0>
-1.67301

>  <SCORE.INTRA.norm>
-0.201732

>  <SCORE.RESTR>
0

>  <SCORE.RESTR.CAVITY>
0

>  <SCORE.RESTR.norm>
0

>  <SCORE.SYSTEM>
0

>  <SCORE.SYSTEM.CONST>
0

>  <SCORE.SYSTEM.DIHEDRAL>
0

>  <SCORE.SYSTEM.SOLV>
0

>  <SCORE.SYSTEM.norm>
0

>  <SCORE.heavy>
34

>  <SCORE.norm>
-0.354214

>  <RMSD>
25.298

$$$$
ligand
 OpenBabel11021811483D
libRbt.so/2013.1/901 2013/11/27
 34 36  0  0  0  0  0  0  0  0999 V2000
   15.5853   23.3019   58.2910 N   0  0  0  0  0  0  0  0  0  0  0  0
   14.3059   23.5442   57.5844 C   0  0  1  0  0  0  0  0  0  0  0  0
   15.8391   22.2088   59.0222 C   0  0  0  0  0  0  0  0  0  0  0  0
   15.0391   21.2843   59.1909 O   0  0  0  0  0  0  0  0  0  0  0  0
   19.3590   26.7453   56.4437 N   0  0  0  0  0  0  0  0  0  0  0  0
   13.3563   24.3476   58.4888 C   0  0  0  0  0  0  0  0  0  0  0  0
   12.9494   23.5471   59.7334 C   0  0  0  0  0  0  0  0  0  0  0  0
   12.1996   24.4303   60.7423 C   0  0  0  0  0  0  0  0  0  0  0  0
   12.4115   24.2156   61.9589 O   0  0  0  0  0  0  0  0  0  0  0  0
   11.4325   25.3030   60.2745 O   0  0  0  0  0  0  0  0  0  0  0  0
   20.9924   26.1223   57.9611 N   0  0  0  0  0  0  0  0  0  0  0  0
   13.5552   24.3172   55.4427 O   0  0  0  0  0  0  0  0  0  0  0  0
   19.6954   26.2357   57.6259 C   0  0  0  0  0  0  0  0  0  0  0  0
   15.6390   24.8197   56.0707 O   0  0  0  0  0  0  0  0  0  0  0  0
   18.6898   25.8224   58.5089 N   0  0  0  0  0  0  0  0  0  0  0  0
   19.0528   25.2876   59.7376 C   0  0  0  0  0  0  0  0  0  0  0  0
   20.4018   25.1548   60.0394 C   0  0  0  0  0  0  0  0  0  0  0  0
   18.1892   24.9086   60.5248 O   0  0  0  0  0  0  0  0  0  0  0  0
   20.0710   24.9618   62.3536 C   0  0  0  0  0  0  0  0  0  0  0  0
   20.8117   24.6889   61.2837 N   0  0  0  0  0  0  0  0  0  0  0  0
   20.0547   26.0954   62.8282 O   0  0  0  0  0  0  0  0  0  0  0  0
   22.1403   24.0841   61.4291 C   0  0  2  0  0  0  0  0  0  0  0  0
   23.1755   25.0122   60.7886 C   0  0  0  0  0  0  0  0  0  0  0  0
   21.3611   25.6079   59.1441 C   0  0  0  0  0  0  0  0  0  0  0  0
   22.7189   25.5137   59.4689 N   0  0  0  0  0  0  0  0  0  0  0  0
   22.1789   22.7062   60.7594 C   0  0  0  0  0  0  0  0  0  0  0  0
   21.0532   21.8933   61.2361 N   0  0  0  0  0  0  0  0  0  0  0  0
   17.2565   22.1520   59.6202 C   0  0  0  0  0  0  0  0  0  0  0  0
   17.4406   22.0779   60.9987 C   0  0  0  0  0  0  0  0  0  0  0  0
   18.7220   21.9705   61.5355 C   0  0  0  0  0  0  0  0  0  0  0  0
   19.8355   21.9814   60.7022 C   0  0  0  0  0  0  0  0  0  0  0  0
   19.6539   22.0643   59.3258 C   0  0  0  0  0  0  0  0  0  0  0  0
   18.3706   22.1360   58.7857 C   0  0  0  0  0  0  0  0  0  0  0  0
   14.5147   24.2916   56.2511 C   0  0  0  0  0  0  0  0  0  0  0  0
  1  3  1  0  0  0  0
  2  1  1  1  0  0  0
  2  6  1  0  0  0  0
  2 34  1  0  0  0  0
  3  4  2  0  0  0  0
  3 28  1  0  0  0  0
  5 13  1  0  0  0  0
  6  7  1  0  0  0  0
  7  8  1  0  0  0  0
  8  9  1  0  0  0  0
  8 10  1  0  0  0  0
 11 13  2  0  0  0  0
 11 24  1  0  0  0  0
 12 34  1  0  0  0  0
 13 15  1  0  0  0  0
 14 34  1  0  0  0  0
 15 16  1  0  0  0  0
 16 17  1  0  0  0  0
 16 18  2  0  0  0  0
 17 20  1  0  0  0  0
 17 24  2  0  0  0  0
 19 21  1  0  0  0  0
 19 20  1  0  0  0  0
 20 22  1  0  0  0  0
 22 23  1  0  0  0  0
 22 26  1  6  0  0  0
 23 25  1  0  0  0  0
 24 25  1  0  0  0  0
 26 27  1  0  0  0  0
 27 31  1  0  0  0  0
 28 29  2  0  0  0  0
 28 33  1  0  0  0  0
 29 30  1  0  0  0  0
 30 31  2  0  0  0  0
 31 32  1  0  0  0  0
 32 33  2  0  0  0  0
M  END
>  <CHROM.1>
92.47952147,-65.15275294,166.01600683,170.41938520,-143.46267034,-73.43661299
-51.26929978,83.71516976,-138.37696977,120.47379409,17.79322657,24.12698112
59.53404302,-2.98563097,0.16056231,2.03684132

>  <Name>
ligand

>  <RI>
0

>  <Rbt.Current_Directory>
/home/itssahil/PROJECTS/Mol_Feturizer/New_Systems/rnas/3SUH

>  <Rbt.Executable>
rbdock ($Id: //depot/dev/client3/rdock/2013.1/src/exe/rbdock.cxx#4 $)

>  <Rbt.Library>
libRbt.so (2013.1, Build901 2013/11/27)

>  <Rbt.Parameter_File>
/export/apps/rDock/src/rDock_2013.1_src/data/scripts/dock_solv.prm

>  <Rbt.Receptor>
prm/blind_docking_80.prm

>  <SCORE>
-11.0747

>  <SCORE.INTER>
-5.33794

>  <SCORE.INTER.CONST>
1

>  <SCORE.INTER.POLAR>
0

>  <SCORE.INTER.ROT>
10

>  <SCORE.INTER.SOLV>
9.54147

>  <SCORE.INTER.VDW>
-17.0058

>  <SCORE.INTER.norm>
-0.156998

>  <SCORE.INTRA>
-5.73801

>  <SCORE.INTRA.DIHEDRAL>
-4.23628

>  <SCORE.INTRA.DIHEDRAL.0>
12.2703

>  <SCORE.INTRA.POLAR>
0

>  <SCORE.INTRA.POLAR.0>
0

>  <SCORE.INTRA.REPUL>
0

>  <SCORE.INTRA.REPUL.0>
0

>  <SCORE.INTRA.SOLV>
0.955647

>  <SCORE.INTRA.SOLV.lig_0>
-64.3214

>  <SCORE.INTRA.VDW>
-4.09769

>  <SCORE.INTRA.VDW.0>
-1.67301

>  <SCORE.INTRA.norm>
-0.168765

>  <SCORE.RESTR>
0.00129672

>  <SCORE.RESTR.CAVITY>
0.00129672

>  <SCORE.RESTR.norm>
3.81387e-05

>  <SCORE.SYSTEM>
0

>  <SCORE.SYSTEM.CONST>
0

>  <SCORE.SYSTEM.DIHEDRAL>
0

>  <SCORE.SYSTEM.SOLV>
0

>  <SCORE.SYSTEM.norm>
0

>  <SCORE.heavy>
34

>  <SCORE.norm>
-0.325725

>  <RMSD>
25.342

$$$$
ligand
 OpenBabel11021811483D
libRbt.so/2013.1/901 2013/11/27
 34 36  0  0  0  0  0  0  0  0999 V2000
   19.3445   23.5113   61.1666 N   0  0  0  0  0  0  0  0  0  0  0  0
   20.3284   23.8318   62.2269 C   0  0  1  0  0  0  0  0  0  0  0  0
   19.6327   22.7944   60.0726 C   0  0  0  0  0  0  0  0  0  0  0  0
   20.7458   22.3230   59.8237 O   0  0  0  0  0  0  0  0  0  0  0  0
   18.3394   26.7432   58.9446 N   0  0  0  0  0  0  0  0  0  0  0  0
   19.9940   25.1969   62.8513 C   0  0  0  0  0  0  0  0  0  0  0  0
   21.0312   25.6048   63.9064 C   0  0  0  0  0  0  0  0  0  0  0  0
   20.7053   26.9824   64.5033 C   0  0  0  0  0  0  0  0  0  0  0  0
   21.6372   27.5911   65.0797 O   0  0  0  0  0  0  0  0  0  0  0  0
   19.5315   27.3978   64.3679 O   0  0  0  0  0  0  0  0  0  0  0  0
   16.1819   26.0114   58.5345 N   0  0  0  0  0  0  0  0  0  0  0  0
   19.2716   22.3730   63.8090 O   0  0  0  0  0  0  0  0  0  0  0  0
   17.4621   26.1418   58.1452 C   0  0  0  0  0  0  0  0  0  0  0  0
   21.4998   22.3257   63.6604 O   0  0  0  0  0  0  0  0  0  0  0  0
   17.8857   25.6504   56.9039 N   0  0  0  0  0  0  0  0  0  0  0  0
   16.9626   25.0204   56.0802 C   0  0  0  0  0  0  0  0  0  0  0  0
   15.6557   24.8737   56.5262 C   0  0  0  0  0  0  0  0  0  0  0  0
   17.3124   24.5721   54.9913 O   0  0  0  0  0  0  0  0  0  0  0  0
   14.7582   24.4909   54.3930 C   0  0  0  0  0  0  0  0  0  0  0  0
   14.6819   24.3115   55.7083 N   0  0  0  0  0  0  0  0  0  0  0  0
   14.4324   23.5918   53.6211 O   0  0  0  0  0  0  0  0  0  0  0  0
   13.4894   23.7070   56.3121 C   0  0  2  0  0  0  0  0  0  0  0  0
   12.8977   24.6919   57.3237 C   0  0  0  0  0  0  0  0  0  0  0  0
   15.2767   25.4054   57.7513 C   0  0  0  0  0  0  0  0  0  0  0  0
   13.9490   25.2955   58.1792 N   0  0  0  0  0  0  0  0  0  0  0  0
   13.8487   22.3884   57.0055 C   0  0  0  0  0  0  0  0  0  0  0  0
   15.2052   21.9806   56.6196 N   0  0  0  0  0  0  0  0  0  0  0  0
   18.4368   22.5450   59.1358 C   0  0  0  0  0  0  0  0  0  0  0  0
   17.1405   22.4900   59.6422 C   0  0  0  0  0  0  0  0  0  0  0  0
   16.0543   22.3198   58.7862 C   0  0  0  0  0  0  0  0  0  0  0  0
   16.2561   22.1577   57.4197 C   0  0  0  0  0  0  0  0  0  0  0  0
   17.5506   22.2035   56.9133 C   0  0  0  0  0  0  0  0  0  0  0  0
   18.6352   22.4093   57.7647 C   0  0  0  0  0  0  0  0  0  0  0  0
   20.3667   22.7498   63.3259 C   0  0  0  0  0  0  0  0  0  0  0  0
  1  3  1  0  0  0  0
  2  1  1  6  0  0  0
  2  6  1  0  0  0  0
  2 34  1  0  0  0  0
  3  4  2  0  0  0  0
  3 28  1  0  0  0  0
  5 13  1  0  0  0  0
  6  7  1  0  0  0  0
  7  8  1  0  0  0  0
  8  9  1  0  0  0  0
  8 10  1  0  0  0  0
 11 13  2  0  0  0  0
 11 24  1  0  0  0  0
 12 34  1  0  0  0  0
 13 15  1  0  0  0  0
 14 34  1  0  0  0  0
 15 16  1  0  0  0  0
 16 17  1  0  0  0  0
 16 18  2  0  0  0  0
 17 20  1  0  0  0  0
 17 24  2  0  0  0  0
 19 21  1  0  0  0  0
 19 20  1  0  0  0  0
 20 22  1  0  0  0  0
 22 23  1  0  0  0  0
 22 26  1  1  0  0  0
 23 25  1  0  0  0  0
 24 25  1  0  0  0  0
 26 27  1  0  0  0  0
 27 31  1  0  0  0  0
 28 29  2  0  0  0  0
 28 33  1  0  0  0  0
 29 30  1  0  0  0  0
 30 31  2  0  0  0  0
 31 32  1  0  0  0  0
 32 33  2  0  0  0  0
M  END
>  <CHROM.1>
148.33585281,-177.02569766,-48.69098087,178.81386328,-160.61149923,143.35353369
-11.99204739,101.77783221,21.17556941,-28.54256515,17.58783722,24.19948749
59.22262868,-0.39628646,0.87543969,-2.77058960

>  <Name>
ligand

>  <RI>
0

>  <Rbt.Current_Directory>
/home/itssahil/PROJECTS/Mol_Feturizer/New_Systems/rnas/3SUH

>  <Rbt.Executable>
rbdock ($Id: //depot/dev/client3/rdock/2013.1/src/exe/rbdock.cxx#4 $)

>  <Rbt.Library>
libRbt.so (2013.1, Build901 2013/11/27)

>  <Rbt.Parameter_File>
/export/apps/rDock/src/rDock_2013.1_src/data/scripts/dock_solv.prm

>  <Rbt.Receptor>
prm/blind_docking_100.prm

>  <SCORE>
-9.22099

>  <SCORE.INTER>
-8.11729

>  <SCORE.INTER.CONST>
1

>  <SCORE.INTER.POLAR>
0

>  <SCORE.INTER.ROT>
10

>  <SCORE.INTER.SOLV>
11.3106

>  <SCORE.INTER.VDW>
-19.4484

>  <SCORE.INTER.norm>
-0.238744

>  <SCORE.INTRA>
-1.1037

>  <SCORE.INTRA.DIHEDRAL>
0.401358

>  <SCORE.INTRA.DIHEDRAL.0>
12.2703

>  <SCORE.INTRA.POLAR>
0

>  <SCORE.INTRA.POLAR.0>
0

>  <SCORE.INTRA.REPUL>
0

>  <SCORE.INTRA.REPUL.0>
0

>  <SCORE.INTRA.SOLV>
2.41378

>  <SCORE.INTRA.SOLV.lig_0>
-64.3214

>  <SCORE.INTRA.VDW>
-2.51127

>  <SCORE.INTRA.VDW.0>
-1.67301

>  <SCORE.INTRA.norm>
-0.0324618

>  <SCORE.RESTR>
0

>  <SCORE.RESTR.CAVITY>
0

>  <SCORE.RESTR.norm>
0

>  <SCORE.SYSTEM>
0

>  <SCORE.SYSTEM.CONST>
0

>  <SCORE.SYSTEM.DIHEDRAL>
0

>  <SCORE.SYSTEM.SOLV>
0

>  <SCORE.SYSTEM.norm>
0

>  <SCORE.heavy>
34

>  <SCORE.norm>
-0.271205

>  <RMSD>
25.345

$$$$
ligand
 OpenBabel11021811483D
libRbt.so/2013.1/901 2013/11/27
 34 36  0  0  0  0  0  0  0  0999 V2000
   20.6328   23.9955   61.0001 N   0  0  0  0  0  0  0  0  0  0  0  0
   21.5101   24.0234   62.1936 C   0  0  1  0  0  0  0  0  0  0  0  0
   21.0736   23.7765   59.7544 C   0  0  0  0  0  0  0  0  0  0  0  0
   22.2553   23.5757   59.4605 O   0  0  0  0  0  0  0  0  0  0  0  0
   15.3807   22.4339   62.7222 N   0  0  0  0  0  0  0  0  0  0  0  0
   20.6808   24.3739   63.4405 C   0  0  0  0  0  0  0  0  0  0  0  0
   20.2709   25.8528   63.4491 C   0  0  0  0  0  0  0  0  0  0  0  0
   19.1872   26.1358   62.3976 C   0  0  0  0  0  0  0  0  0  0  0  0
   18.0017   25.8813   62.7150 O   0  0  0  0  0  0  0  0  0  0  0  0
   19.5681   26.6030   61.2997 O   0  0  0  0  0  0  0  0  0  0  0  0
   14.4691   22.9880   60.6678 N   0  0  0  0  0  0  0  0  0  0  0  0
   23.4818   22.7075   62.5519 O   0  0  0  0  0  0  0  0  0  0  0  0
   15.4642   23.0876   61.5663 C   0  0  0  0  0  0  0  0  0  0  0  0
   21.5198   21.6479   62.4227 O   0  0  0  0  0  0  0  0  0  0  0  0
   16.5923   23.8738   61.2997 N   0  0  0  0  0  0  0  0  0  0  0  0
   16.6708   24.5474   60.0883 C   0  0  0  0  0  0  0  0  0  0  0  0
   15.6405   24.3974   59.1693 C   0  0  0  0  0  0  0  0  0  0  0  0
   17.6548   25.2349   59.8273 O   0  0  0  0  0  0  0  0  0  0  0  0
   16.1882   26.3184   57.9396 C   0  0  0  0  0  0  0  0  0  0  0  0
   15.6432   25.1061   57.9730 N   0  0  0  0  0  0  0  0  0  0  0  0
   15.5590   27.2961   58.3378 O   0  0  0  0  0  0  0  0  0  0  0  0
   14.8771   24.5994   56.8291 C   0  0  2  0  0  0  0  0  0  0  0  0
   13.4599   24.2605   57.2981 C   0  0  0  0  0  0  0  0  0  0  0  0
   14.5283   23.6320   59.4923 C   0  0  0  0  0  0  0  0  0  0  0  0
   13.4712   23.5181   58.5827 N   0  0  0  0  0  0  0  0  0  0  0  0
   15.5512   23.3553   56.2404 C   0  0  0  0  0  0  0  0  0  0  0  0
   16.9370   23.6713   55.8729 N   0  0  0  0  0  0  0  0  0  0  0  0
   19.9709   23.7414   58.6808 C   0  0  0  0  0  0  0  0  0  0  0  0
   19.1659   22.6149   58.5295 C   0  0  0  0  0  0  0  0  0  0  0  0
   18.1322   22.6056   57.5951 C   0  0  0  0  0  0  0  0  0  0  0  0
   17.9211   23.7058   56.7709 C   0  0  0  0  0  0  0  0  0  0  0  0
   18.7297   24.8282   56.9145 C   0  0  0  0  0  0  0  0  0  0  0  0
   19.7413   24.8519   57.8734 C   0  0  0  0  0  0  0  0  0  0  0  0
   22.2354   22.6791   62.4093 C   0  0  0  0  0  0  0  0  0  0  0  0
  1  3  1  0  0  0  0
  2  1  1  6  0  0  0
  2  6  1  0  0  0  0
  2 34  1  0  0  0  0
  3  4  2  0  0  0  0
  3 28  1  0  0  0  0
  5 13  1  0  0  0  0
  6  7  1  0  0  0  0
  7  8  1  0  0  0  0
  8  9  1  0  0  0  0
  8 10  1  0  0  0  0
 11 13  2  0  0  0  0
 11 24  1  0  0  0  0
 12 34  1  0  0  0  0
 13 15  1  0  0  0  0
 14 34  1  0  0  0  0
 15 16  1  0  0  0  0
 16 17  1  0  0  0  0
 16 18  2  0  0  0  0
 17 20  1  0  0  0  0
 17 24  2  0  0  0  0
 19 21  1  0  0  0  0
 19 20  1  0  0  0  0
 20 22  1  0  0  0  0
 22 23  1  0  0  0  0
 22 26  1  1  0  0  0
 23 25  1  0  0  0  0
 24 25  1  0  0  0  0
 26 27  1  0  0  0  0
 27 31  1  0  0  0  0
 28 29  2  0  0  0  0
 28 33  1  0  0  0  0
 29 30  1  0  0  0  0
 30 31  2  0  0  0  0
 31 32  1  0  0  0  0
 32 33  2  0  0  0  0
M  END
>  <CHROM.1>
177.00617500,-72.71431185,128.05995861,72.13484274,82.59297758,-80.71289101
-56.25286224,80.25408188,53.56905868,-77.56315357,18.03668462,24.20555061
59.86734662,-0.56945120,0.12692725,-1.63003357

>  <Name>
ligand

>  <RI>
0

>  <Rbt.Current_Directory>
/home/itssahil/PROJECTS/Mol_Feturizer/New_Systems/rnas/3SUH

>  <Rbt.Executable>
rbdock ($Id: //depot/dev/client3/rdock/2013.1/src/exe/rbdock.cxx#4 $)

>  <Rbt.Library>
libRbt.so (2013.1, Build901 2013/11/27)

>  <Rbt.Parameter_File>
/export/apps/rDock/src/rDock_2013.1_src/data/scripts/dock_solv.prm

>  <Rbt.Receptor>
prm/blind_docking_100.prm

>  <SCORE>
-16.5371

>  <SCORE.INTER>
-8.52889

>  <SCORE.INTER.CONST>
1

>  <SCORE.INTER.POLAR>
0

>  <SCORE.INTER.ROT>
10

>  <SCORE.INTER.SOLV>
10.2458

>  <SCORE.INTER.VDW>
-19.3679

>  <SCORE.INTER.norm>
-0.25085

>  <SCORE.INTRA>
-8.01685

>  <SCORE.INTRA.DIHEDRAL>
-4.59041

>  <SCORE.INTRA.DIHEDRAL.0>
12.2703

>  <SCORE.INTRA.POLAR>
0

>  <SCORE.INTRA.POLAR.0>
0

>  <SCORE.INTRA.REPUL>
0

>  <SCORE.INTRA.REPUL.0>
0

>  <SCORE.INTRA.SOLV>
1.36964

>  <SCORE.INTRA.SOLV.lig_0>
-64.3214

>  <SCORE.INTRA.VDW>
-6.40647

>  <SCORE.INTRA.VDW.0>
-1.67301

>  <SCORE.INTRA.norm>
-0.23579

>  <SCORE.RESTR>
0.00862748

>  <SCORE.RESTR.CAVITY>
0.00862748

>  <SCORE.RESTR.norm>
0.000253749

>  <SCORE.SYSTEM>
0

>  <SCORE.SYSTEM.CONST>
0

>  <SCORE.SYSTEM.DIHEDRAL>
0

>  <SCORE.SYSTEM.SOLV>
0

>  <SCORE.SYSTEM.norm>
0

>  <SCORE.heavy>
34

>  <SCORE.norm>
-0.486386

>  <RMSD>
25.432

$$$$
ligand
 OpenBabel11021811483D
libRbt.so/2013.1/901 2013/11/27
 34 36  0  0  0  0  0  0  0  0999 V2000
   15.2931   22.6632   58.4545 N   0  0  0  0  0  0  0  0  0  0  0  0
   14.0962   22.8820   57.6093 C   0  0  1  0  0  0  0  0  0  0  0  0
   15.4660   21.5934   59.2418 C   0  0  0  0  0  0  0  0  0  0  0  0
   14.6507   20.6736   59.3534 O   0  0  0  0  0  0  0  0  0  0  0  0
   19.2131   26.4143   57.2464 N   0  0  0  0  0  0  0  0  0  0  0  0
   12.8966   23.2599   58.4944 C   0  0  0  0  0  0  0  0  0  0  0  0
   13.1934   24.4997   59.3490 C   0  0  0  0  0  0  0  0  0  0  0  0
   13.2252   25.7729   58.4899 C   0  0  0  0  0  0  0  0  0  0  0  0
   14.3175   26.3826   58.4107 O   0  0  0  0  0  0  0  0  0  0  0  0
   12.1565   26.1073   57.9288 O   0  0  0  0  0  0  0  0  0  0  0  0
   20.6796   25.7232   58.8987 N   0  0  0  0  0  0  0  0  0  0  0  0
   15.4362   24.5699   56.5591 O   0  0  0  0  0  0  0  0  0  0  0  0
   19.4245   25.8558   58.4354 C   0  0  0  0  0  0  0  0  0  0  0  0
   13.3865   24.2016   55.7518 O   0  0  0  0  0  0  0  0  0  0  0  0
   18.3324   25.4116   59.1915 N   0  0  0  0  0  0  0  0  0  0  0  0
   18.5655   24.8260   60.4285 C   0  0  0  0  0  0  0  0  0  0  0  0
   19.8757   24.6751   60.8633 C   0  0  0  0  0  0  0  0  0  0  0  0
   17.6245   24.4193   61.1056 O   0  0  0  0  0  0  0  0  0  0  0  0
   19.3058   24.3902   63.1208 C   0  0  0  0  0  0  0  0  0  0  0  0
   20.1538   24.1575   62.1235 N   0  0  0  0  0  0  0  0  0  0  0  0
   19.3202   25.4669   63.7131 O   0  0  0  0  0  0  0  0  0  0  0  0
   21.4599   23.5414   62.3815 C   0  0  2  0  0  0  0  0  0  0  0  0
   22.5564   24.4900   61.8903 C   0  0  0  0  0  0  0  0  0  0  0  0
   20.9231   25.1598   60.0917 C   0  0  0  0  0  0  0  0  0  0  0  0
   22.2396   25.0465   60.5519 N   0  0  0  0  0  0  0  0  0  0  0  0
   21.5677   22.1915   61.6639 C   0  0  0  0  0  0  0  0  0  0  0  0
   20.4125   21.3543   62.0099 N   0  0  0  0  0  0  0  0  0  0  0  0
   16.8120   21.5569   59.9878 C   0  0  0  0  0  0  0  0  0  0  0  0
   16.8518   21.6081   61.3791 C   0  0  0  0  0  0  0  0  0  0  0  0
   18.0671   21.5189   62.0549 C   0  0  0  0  0  0  0  0  0  0  0  0
   19.2595   21.4229   61.3454 C   0  0  0  0  0  0  0  0  0  0  0  0
   19.2223   21.3807   59.9557 C   0  0  0  0  0  0  0  0  0  0  0  0
   18.0042   21.4340   59.2797 C   0  0  0  0  0  0  0  0  0  0  0  0
   14.3297   23.9783   56.5495 C   0  0  0  0  0  0  0  0  0  0  0  0
  1  3  1  0  0  0  0
  2  1  1  1  0  0  0
  2  6  1  0  0  0  0
  2 34  1  0  0  0  0
  3  4  2  0  0  0  0
  3 28  1  0  0  0  0
  5 13  1  0  0  0  0
  6  7  1  0  0  0  0
  7  8  1  0  0  0  0
  8  9  1  0  0  0  0
  8 10  1  0  0  0  0
 11 13  2  0  0  0  0
 11 24  1  0  0  0  0
 12 34  1  0  0  0  0
 13 15  1  0  0  0  0
 14 34  1  0  0  0  0
 15 16  1  0  0  0  0
 16 17  1  0  0  0  0
 16 18  2  0  0  0  0
 17 20  1  0  0  0  0
 17 24  2  0  0  0  0
 19 21  1  0  0  0  0
 19 20  1  0  0  0  0
 20 22  1  0  0  0  0
 22 23  1  0  0  0  0
 22 26  1  6  0  0  0
 23 25  1  0  0  0  0
 24 25  1  0  0  0  0
 26 27  1  0  0  0  0
 27 31  1  0  0  0  0
 28 29  2  0  0  0  0
 28 33  1  0  0  0  0
 29 30  1  0  0  0  0
 30 31  2  0  0  0  0
 31 32  1  0  0  0  0
 32 33  2  0  0  0  0
M  END
>  <CHROM.1>
72.88817306,56.79949672,-2.71646189,72.01902678,-115.80478227,-79.73469358
-52.45148383,86.21786368,-132.04886195,116.53296582,17.52125383,23.84491912
59.79298919,2.87578220,-0.43114846,-0.48172521

>  <Name>
ligand

>  <RI>
0

>  <Rbt.Current_Directory>
/home/itssahil/PROJECTS/Mol_Feturizer/New_Systems/rnas/3SUH

>  <Rbt.Executable>
rbdock ($Id: //depot/dev/client3/rdock/2013.1/src/exe/rbdock.cxx#4 $)

>  <Rbt.Library>
libRbt.so (2013.1, Build901 2013/11/27)

>  <Rbt.Parameter_File>
/export/apps/rDock/src/rDock_2013.1_src/data/scripts/dock_solv.prm

>  <Rbt.Receptor>
prm/blind_docking_80.prm

>  <SCORE>
-14.565

>  <SCORE.INTER>
-8.01414

>  <SCORE.INTER.CONST>
1

>  <SCORE.INTER.POLAR>
0

>  <SCORE.INTER.ROT>
10

>  <SCORE.INTER.SOLV>
8.79721

>  <SCORE.INTER.VDW>
-18.5418

>  <SCORE.INTER.norm>
-0.23571

>  <SCORE.INTRA>
-6.55083

>  <SCORE.INTRA.DIHEDRAL>
-4.66632

>  <SCORE.INTRA.DIHEDRAL.0>
12.2703

>  <SCORE.INTRA.POLAR>
0

>  <SCORE.INTRA.POLAR.0>
0

>  <SCORE.INTRA.REPUL>
0

>  <SCORE.INTRA.REPUL.0>
0

>  <SCORE.INTRA.SOLV>
0.702864

>  <SCORE.INTRA.SOLV.lig_0>
-64.3214

>  <SCORE.INTRA.VDW>
-4.5691

>  <SCORE.INTRA.VDW.0>
-1.67301

>  <SCORE.INTRA.norm>
-0.192671

>  <SCORE.RESTR>
0

>  <SCORE.RESTR.CAVITY>
0

>  <SCORE.RESTR.norm>
0

>  <SCORE.SYSTEM>
0

>  <SCORE.SYSTEM.CONST>
0

>  <SCORE.SYSTEM.DIHEDRAL>
0

>  <SCORE.SYSTEM.SOLV>
0

>  <SCORE.SYSTEM.norm>
0

>  <SCORE.heavy>
34

>  <SCORE.norm>
-0.428381

>  <RMSD>
25.448

$$$$
ligand
 OpenBabel11021811483D
libRbt.so/2013.1/901 2013/11/27
 34 36  0  0  0  0  0  0  0  0999 V2000
   14.2784   22.3106   58.8534 N   0  0  0  0  0  0  0  0  0  0  0  0
   13.1562   22.2513   57.8880 C   0  0  1  0  0  0  0  0  0  0  0  0
   14.2894   21.6638   60.0263 C   0  0  0  0  0  0  0  0  0  0  0  0
   13.3694   20.9497   60.4348 O   0  0  0  0  0  0  0  0  0  0  0  0
   20.2270   27.8875   58.9806 N   0  0  0  0  0  0  0  0  0  0  0  0
   13.3284   23.3468   56.8224 C   0  0  0  0  0  0  0  0  0  0  0  0
   14.6427   23.1799   56.0479 C   0  0  0  0  0  0  0  0  0  0  0  0
   14.8437   24.3223   55.0405 C   0  0  0  0  0  0  0  0  0  0  0  0
   13.8303   24.7248   54.4223 O   0  0  0  0  0  0  0  0  0  0  0  0
   16.0064   24.7700   54.9126 O   0  0  0  0  0  0  0  0  0  0  0  0
   21.2600   26.2009   60.1833 N   0  0  0  0  0  0  0  0  0  0  0  0
   14.0674   20.1337   57.2297 O   0  0  0  0  0  0  0  0  0  0  0  0
   20.2760   27.1084   60.0581 C   0  0  0  0  0  0  0  0  0  0  0  0
   11.9526   20.5874   56.6723 O   0  0  0  0  0  0  0  0  0  0  0  0
   19.2979   27.2444   61.0512 N   0  0  0  0  0  0  0  0  0  0  0  0
   19.3563   26.4226   62.1687 C   0  0  0  0  0  0  0  0  0  0  0  0
   20.3671   25.4740   62.2518 C   0  0  0  0  0  0  0  0  0  0  0  0
   18.5039   26.5160   63.0484 O   0  0  0  0  0  0  0  0  0  0  0  0
   20.1676   25.1716   64.5694 C   0  0  0  0  0  0  0  0  0  0  0  0
   20.5057   24.6767   63.3825 N   0  0  0  0  0  0  0  0  0  0  0  0
   20.9105   25.9589   65.1512 O   0  0  0  0  0  0  0  0  0  0  0  0
   21.2021   23.3896   63.2805 C   0  0  2  0  0  0  0  0  0  0  0  0
   22.5345   23.6076   62.5589 C   0  0  0  0  0  0  0  0  0  0  0  0
   21.3318   25.3987   61.2563 C   0  0  0  0  0  0  0  0  0  0  0  0
   22.3748   24.4721   61.3637 N   0  0  0  0  0  0  0  0  0  0  0  0
   20.3457   22.3752   62.5148 C   0  0  0  0  0  0  0  0  0  0  0  0
   19.0063   22.3084   63.1122 N   0  0  0  0  0  0  0  0  0  0  0  0
   15.5852   21.8331   60.8399 C   0  0  0  0  0  0  0  0  0  0  0  0
   16.0916   23.1025   61.1085 C   0  0  0  0  0  0  0  0  0  0  0  0
   17.2336   23.2563   61.8920 C   0  0  0  0  0  0  0  0  0  0  0  0
   17.9072   22.1406   62.3777 C   0  0  0  0  0  0  0  0  0  0  0  0
   17.4080   20.8719   62.1030 C   0  0  0  0  0  0  0  0  0  0  0  0
   16.2454   20.7183   61.3490 C   0  0  0  0  0  0  0  0  0  0  0  0
   13.0524   20.8712   57.2066 C   0  0  0  0  0  0  0  0  0  0  0  0
  1  3  1  0  0  0  0
  2  1  1  1  0  0  0
  2  6  1  0  0  0  0
  2 34  1  0  0  0  0
  3  4  2  0  0  0  0
  3 28  1  0  0  0  0
  5 13  1  0  0  0  0
  6  7  1  0  0  0  0
  7  8  1  0  0  0  0
  8  9  1  0  0  0  0
  8 10  1  0  0  0  0
 11 13  2  0  0  0  0
 11 24  1  0  0  0  0
 12 34  1  0  0  0  0
 13 15  1  0  0  0  0
 14 34  1  0  0  0  0
 15 16  1  0  0  0  0
 16 17  1  0  0  0  0
 16 18  2  0  0  0  0
 17 20  1  0  0  0  0
 17 24  2  0  0  0  0
 19 21  1  0  0  0  0
 19 20  1  0  0  0  0
 20 22  1  0  0  0  0
 22 23  1  0  0  0  0
 22 26  1  6  0  0  0
 23 25  1  0  0  0  0
 24 25  1  0  0  0  0
 26 27  1  0  0  0  0
 27 31  1  0  0  0  0
 28 29  2  0  0  0  0
 28 33  1  0  0  0  0
 29 30  1  0  0  0  0
 30 31  2  0  0  0  0
 31 32  1  0  0  0  0
 32 33  2  0  0  0  0
M  END
>  <CHROM.1>
166.99244481,59.81320909,-19.47898146,-176.81851309,-39.09777866,-77.00363004
-52.29292186,143.48742690,-90.08986657,52.19050064,17.45559431,23.69845142
60.23716884,2.85361025,-0.69028911,-0.91129448

>  <Name>
ligand

>  <RI>
0

>  <Rbt.Current_Directory>
/home/itssahil/PROJECTS/Mol_Feturizer/New_Systems/rnas/3SUH

>  <Rbt.Executable>
rbdock ($Id: //depot/dev/client3/rdock/2013.1/src/exe/rbdock.cxx#4 $)

>  <Rbt.Library>
libRbt.so (2013.1, Build901 2013/11/27)

>  <Rbt.Parameter_File>
/export/apps/rDock/src/rDock_2013.1_src/data/scripts/dock_solv.prm

>  <Rbt.Receptor>
prm/blind_docking_80.prm

>  <SCORE>
-9.14923

>  <SCORE.INTER>
-4.61173

>  <SCORE.INTER.CONST>
1

>  <SCORE.INTER.POLAR>
0

>  <SCORE.INTER.ROT>
10

>  <SCORE.INTER.SOLV>
12.2

>  <SCORE.INTER.VDW>
-17.4078

>  <SCORE.INTER.norm>
-0.135639

>  <SCORE.INTRA>
-4.54512

>  <SCORE.INTRA.DIHEDRAL>
-4.95964

>  <SCORE.INTRA.DIHEDRAL.0>
12.2703

>  <SCORE.INTRA.POLAR>
0

>  <SCORE.INTRA.POLAR.0>
0

>  <SCORE.INTRA.REPUL>
0

>  <SCORE.INTRA.REPUL.0>
0

>  <SCORE.INTRA.SOLV>
-0.252776

>  <SCORE.INTRA.SOLV.lig_0>
-64.3214

>  <SCORE.INTRA.VDW>
-1.93891

>  <SCORE.INTRA.VDW.0>
-1.67301

>  <SCORE.INTRA.norm>
-0.13368

>  <SCORE.RESTR>
0.0076258

>  <SCORE.RESTR.CAVITY>
0.0076258

>  <SCORE.RESTR.norm>
0.000224288

>  <SCORE.SYSTEM>
0

>  <SCORE.SYSTEM.CONST>
0

>  <SCORE.SYSTEM.DIHEDRAL>
0

>  <SCORE.SYSTEM.SOLV>
0

>  <SCORE.SYSTEM.norm>
0

>  <SCORE.heavy>
34

>  <SCORE.norm>
-0.269095

>  <RMSD>
25.452

$$$$
ligand
 OpenBabel11021811483D
libRbt.so/2013.1/901 2013/11/27
 34 36  0  0  0  0  0  0  0  0999 V2000
   15.1943   22.8307   58.8483 N   0  0  0  0  0  0  0  0  0  0  0  0
   13.9023   22.9530   58.1338 C   0  0  1  0  0  0  0  0  0  0  0  0
   15.5493   21.7606   59.5715 C   0  0  0  0  0  0  0  0  0  0  0  0
   14.8429   20.7604   59.7256 O   0  0  0  0  0  0  0  0  0  0  0  0
   19.0822   26.7788   56.6548 N   0  0  0  0  0  0  0  0  0  0  0  0
   13.8067   24.3345   57.4648 C   0  0  0  0  0  0  0  0  0  0  0  0
   13.7418   25.4621   58.5038 C   0  0  0  0  0  0  0  0  0  0  0  0
   15.1335   26.0575   58.7662 C   0  0  0  0  0  0  0  0  0  0  0  0
   15.3416   27.2255   58.3619 O   0  0  0  0  0  0  0  0  0  0  0  0
   15.9584   25.3320   59.3679 O   0  0  0  0  0  0  0  0  0  0  0  0
   20.8005   26.0566   58.0275 N   0  0  0  0  0  0  0  0  0  0  0  0
   14.7545   21.2945   56.6270 O   0  0  0  0  0  0  0  0  0  0  0  0
   19.4978   26.3276   57.8355 C   0  0  0  0  0  0  0  0  0  0  0  0
   12.5418   21.5790   56.7351 O   0  0  0  0  0  0  0  0  0  0  0  0
   18.5687   26.1398   58.8667 N   0  0  0  0  0  0  0  0  0  0  0  0
   19.0131   25.6638   60.0928 C   0  0  0  0  0  0  0  0  0  0  0  0
   20.3600   25.3634   60.2478 C   0  0  0  0  0  0  0  0  0  0  0  0
   18.2158   25.4814   61.0094 O   0  0  0  0  0  0  0  0  0  0  0  0
   20.3083   25.4162   62.5924 C   0  0  0  0  0  0  0  0  0  0  0  0
   20.8617   24.9499   61.4769 N   0  0  0  0  0  0  0  0  0  0  0  0
   20.1911   24.6937   63.5795 O   0  0  0  0  0  0  0  0  0  0  0  0
   22.1056   24.1739   61.5277 C   0  0  2  0  0  0  0  0  0  0  0  0
   23.1635   24.8853   60.6803 C   0  0  0  0  0  0  0  0  0  0  0  0
   21.2473   25.5960   59.2057 C   0  0  0  0  0  0  0  0  0  0  0  0
   22.6110   25.3344   59.3785 N   0  0  0  0  0  0  0  0  0  0  0  0
   21.8738   22.7533   61.0014 C   0  0  0  0  0  0  0  0  0  0  0  0
   20.7768   22.1232   61.7463 N   0  0  0  0  0  0  0  0  0  0  0  0
   16.9612   21.8376   60.1801 C   0  0  0  0  0  0  0  0  0  0  0  0
   18.0382   21.2190   59.5499 C   0  0  0  0  0  0  0  0  0  0  0  0
   19.3248   21.3363   60.0722 C   0  0  0  0  0  0  0  0  0  0  0  0
   19.5413   22.0356   61.2548 C   0  0  0  0  0  0  0  0  0  0  0  0
   18.4655   22.6465   61.8903 C   0  0  0  0  0  0  0  0  0  0  0  0
   17.1835   22.5596   61.3493 C   0  0  0  0  0  0  0  0  0  0  0  0
   13.7203   21.8459   57.0751 C   0  0  0  0  0  0  0  0  0  0  0  0
  1  3  1  0  0  0  0
  2  1  1  6  0  0  0
  2  6  1  0  0  0  0
  2 34  1  0  0  0  0
  3  4  2  0  0  0  0
  3 28  1  0  0  0  0
  5 13  1  0  0  0  0
  6  7  1  0  0  0  0
  7  8  1  0  0  0  0
  8  9  1  0  0  0  0
  8 10  1  0  0  0  0
 11 13  2  0  0  0  0
 11 24  1  0  0  0  0
 12 34  1  0  0  0  0
 13 15  1  0  0  0  0
 14 34  1  0  0  0  0
 15 16  1  0  0  0  0
 16 17  1  0  0  0  0
 16 18  2  0  0  0  0
 17 20  1  0  0  0  0
 17 24  2  0  0  0  0
 19 21  1  0  0  0  0
 19 20  1  0  0  0  0
 20 22  1  0  0  0  0
 22 23  1  0  0  0  0
 22 26  1  6  0  0  0
 23 25  1  0  0  0  0
 24 25  1  0  0  0  0
 26 27  1  0  0  0  0
 27 31  1  0  0  0  0
 28 29  2  0  0  0  0
 28 33  1  0  0  0  0
 29 30  1  0  0  0  0
 30 31  2  0  0  0  0
 31 32  1  0  0  0  0
 32 33  2  0  0  0  0
M  END
>  <CHROM.1>
177.37629371,-66.17334127,-22.99397143,95.57512446,110.76728365,143.29122738
-54.91715286,100.71751703,60.61548071,-97.61376842,17.95951620,23.99228825
59.61181447,-3.09815165,-0.44972342,-0.44053154

>  <Name>
ligand

>  <RI>
0

>  <Rbt.Current_Directory>
/home/itssahil/PROJECTS/Mol_Feturizer/New_Systems/rnas/3SUH

>  <Rbt.Executable>
rbdock ($Id: //depot/dev/client3/rdock/2013.1/src/exe/rbdock.cxx#4 $)

>  <Rbt.Library>
libRbt.so (2013.1, Build901 2013/11/27)

>  <Rbt.Parameter_File>
/export/apps/rDock/src/rDock_2013.1_src/data/scripts/dock_solv.prm

>  <Rbt.Receptor>
prm/blind_docking_80.prm

>  <SCORE>
-12.7582

>  <SCORE.INTER>
-7.73311

>  <SCORE.INTER.CONST>
1

>  <SCORE.INTER.POLAR>
0

>  <SCORE.INTER.ROT>
10

>  <SCORE.INTER.SOLV>
8.8656

>  <SCORE.INTER.VDW>
-18.3773

>  <SCORE.INTER.norm>
-0.227444

>  <SCORE.INTRA>
-5.02509

>  <SCORE.INTRA.DIHEDRAL>
-1.04864

>  <SCORE.INTRA.DIHEDRAL.0>
12.2703

>  <SCORE.INTRA.POLAR>
0

>  <SCORE.INTRA.POLAR.0>
0

>  <SCORE.INTRA.REPUL>
0

>  <SCORE.INTRA.REPUL.0>
0

>  <SCORE.INTRA.SOLV>
1.21367

>  <SCORE.INTRA.SOLV.lig_0>
-64.3214

>  <SCORE.INTRA.VDW>
-5.10761

>  <SCORE.INTRA.VDW.0>
-1.67301

>  <SCORE.INTRA.norm>
-0.147797

>  <SCORE.RESTR>
0

>  <SCORE.RESTR.CAVITY>
0

>  <SCORE.RESTR.norm>
0

>  <SCORE.SYSTEM>
0

>  <SCORE.SYSTEM.CONST>
0

>  <SCORE.SYSTEM.DIHEDRAL>
0

>  <SCORE.SYSTEM.SOLV>
0

>  <SCORE.SYSTEM.norm>
0

>  <SCORE.heavy>
34

>  <SCORE.norm>
-0.375241

>  <RMSD>
25.463

$$$$
ligand
 OpenBabel11021811483D
libRbt.so/2013.1/901 2013/11/27
 34 36  0  0  0  0  0  0  0  0999 V2000
   15.0455   22.8606   57.5311 N   0  0  0  0  0  0  0  0  0  0  0  0
   14.4597   22.5885   56.1978 C   0  0  1  0  0  0  0  0  0  0  0  0
   14.3333   23.2638   58.5914 C   0  0  0  0  0  0  0  0  0  0  0  0
   13.1141   23.4553   58.5777 O   0  0  0  0  0  0  0  0  0  0  0  0
   22.1640   25.4783   58.3674 N   0  0  0  0  0  0  0  0  0  0  0  0
   15.5598   22.6470   55.1246 C   0  0  0  0  0  0  0  0  0  0  0  0
   16.7486   21.7456   55.4845 C   0  0  0  0  0  0  0  0  0  0  0  0
   17.6116   22.3771   56.5875 C   0  0  0  0  0  0  0  0  0  0  0  0
   17.9102   23.5875   56.4577 O   0  0  0  0  0  0  0  0  0  0  0  0
   17.9519   21.6358   57.5380 O   0  0  0  0  0  0  0  0  0  0  0  0
   21.9192   24.6388   60.5106 N   0  0  0  0  0  0  0  0  0  0  0  0
   13.0206   20.9795   55.1548 O   0  0  0  0  0  0  0  0  0  0  0  0
   21.5390   25.4900   59.5420 C   0  0  0  0  0  0  0  0  0  0  0  0
   13.9579   20.4408   57.1093 O   0  0  0  0  0  0  0  0  0  0  0  0
   20.4890   26.3923   59.7543 N   0  0  0  0  0  0  0  0  0  0  0  0
   19.8410   26.3920   60.9822 C   0  0  0  0  0  0  0  0  0  0  0  0
   20.2373   25.4781   61.9498 C   0  0  0  0  0  0  0  0  0  0  0  0
   18.9106   27.1670   61.1888 O   0  0  0  0  0  0  0  0  0  0  0  0
   19.2602   26.6422   63.7365 C   0  0  0  0  0  0  0  0  0  0  0  0
   19.6641   25.4871   63.2166 N   0  0  0  0  0  0  0  0  0  0  0  0
   20.0526   27.3691   64.3315 O   0  0  0  0  0  0  0  0  0  0  0  0
   19.6954   24.2697   64.0345 C   0  0  2  0  0  0  0  0  0  0  0  0
   21.1259   23.7249   64.0502 C   0  0  0  0  0  0  0  0  0  0  0  0
   21.3042   24.6248   61.7029 C   0  0  0  0  0  0  0  0  0  0  0  0
   21.7306   23.7352   62.6952 N   0  0  0  0  0  0  0  0  0  0  0  0
   18.7350   23.2180   63.4687 C   0  0  0  0  0  0  0  0  0  0  0  0
   17.3907   23.7942   63.3410 N   0  0  0  0  0  0  0  0  0  0  0  0
   15.1497   23.4331   59.8855 C   0  0  0  0  0  0  0  0  0  0  0  0
   14.7706   22.7745   61.0527 C   0  0  0  0  0  0  0  0  0  0  0  0
   15.5417   22.8843   62.2081 C   0  0  0  0  0  0  0  0  0  0  0  0
   16.6753   23.6900   62.2216 C   0  0  0  0  0  0  0  0  0  0  0  0
   17.0504   24.3556   61.0594 C   0  0  0  0  0  0  0  0  0  0  0  0
   16.2993   24.2179   59.8929 C   0  0  0  0  0  0  0  0  0  0  0  0
   13.7516   21.2190   56.1462 C   0  0  0  0  0  0  0  0  0  0  0  0
  1  3  1  0  0  0  0
  2  1  1  1  0  0  0
  2  6  1  0  0  0  0
  2 34  1  0  0  0  0
  3  4  2  0  0  0  0
  3 28  1  0  0  0  0
  5 13  1  0  0  0  0
  6  7  1  0  0  0  0
  7  8  1  0  0  0  0
  8  9  1  0  0  0  0
  8 10  1  0  0  0  0
 11 13  2  0  0  0  0
 11 24  1  0  0  0  0
 12 34  1  0  0  0  0
 13 15  1  0  0  0  0
 14 34  1  0  0  0  0
 15 16  1  0  0  0  0
 16 17  1  0  0  0  0
 16 18  2  0  0  0  0
 17 20  1  0  0  0  0
 17 24  2  0  0  0  0
 19 21  1  0  0  0  0
 19 20  1  0  0  0  0
 20 22  1  0  0  0  0
 22 23  1  0  0  0  0
 22 26  1  6  0  0  0
 23 25  1  0  0  0  0
 24 25  1  0  0  0  0
 26 27  1  0  0  0  0
 27 31  1  0  0  0  0
 28 29  2  0  0  0  0
 28 33  1  0  0  0  0
 29 30  1  0  0  0  0
 30 31  2  0  0  0  0
 31 32  1  0  0  0  0
 32 33  2  0  0  0  0
M  END
>  <CHROM.1>
159.69509793,52.39239783,167.71769703,-75.51382416,-46.37523983,-84.80977115
-54.54274859,130.82416724,110.47448109,-125.44515494,17.72662234,23.87618632
59.94085790,2.31514161,-0.34654961,-1.78545449

>  <Name>
ligand

>  <RI>
0

>  <Rbt.Current_Directory>
/home/itssahil/PROJECTS/Mol_Feturizer/New_Systems/rnas/3SUH

>  <Rbt.Executable>
rbdock ($Id: //depot/dev/client3/rdock/2013.1/src/exe/rbdock.cxx#4 $)

>  <Rbt.Library>
libRbt.so (2013.1, Build901 2013/11/27)

>  <Rbt.Parameter_File>
/export/apps/rDock/src/rDock_2013.1_src/data/scripts/dock_solv.prm

>  <Rbt.Receptor>
prm/blind_docking_80.prm

>  <SCORE>
-9.4589

>  <SCORE.INTER>
-4.82554

>  <SCORE.INTER.CONST>
1

>  <SCORE.INTER.POLAR>
0

>  <SCORE.INTER.ROT>
10

>  <SCORE.INTER.SOLV>
15.212

>  <SCORE.INTER.VDW>
-18.5544

>  <SCORE.INTER.norm>
-0.141928

>  <SCORE.INTRA>
-4.63337

>  <SCORE.INTRA.DIHEDRAL>
-3.39283

>  <SCORE.INTRA.DIHEDRAL.0>
12.2703

>  <SCORE.INTRA.POLAR>
0

>  <SCORE.INTRA.POLAR.0>
0

>  <SCORE.INTRA.REPUL>
0

>  <SCORE.INTRA.REPUL.0>
0

>  <SCORE.INTRA.SOLV>
0.104264

>  <SCORE.INTRA.SOLV.lig_0>
-64.3214

>  <SCORE.INTRA.VDW>
-2.98908

>  <SCORE.INTRA.VDW.0>
-1.67301

>  <SCORE.INTRA.norm>
-0.136275

>  <SCORE.RESTR>
0

>  <SCORE.RESTR.CAVITY>
0

>  <SCORE.RESTR.norm>
0

>  <SCORE.SYSTEM>
0

>  <SCORE.SYSTEM.CONST>
0

>  <SCORE.SYSTEM.DIHEDRAL>
0

>  <SCORE.SYSTEM.SOLV>
0

>  <SCORE.SYSTEM.norm>
0

>  <SCORE.heavy>
34

>  <SCORE.norm>
-0.278203

>  <RMSD>
25.467

$$$$
ligand
 OpenBabel11021811483D
libRbt.so/2013.1/901 2013/11/27
 34 36  0  0  0  0  0  0  0  0999 V2000
   14.9217   21.2917   60.0665 N   0  0  0  0  0  0  0  0  0  0  0  0
   13.5091   21.0720   59.6777 C   0  0  1  0  0  0  0  0  0  0  0  0
   15.7593   20.3094   60.4237 C   0  0  0  0  0  0  0  0  0  0  0  0
   15.4504   19.1155   60.4711 O   0  0  0  0  0  0  0  0  0  0  0  0
   17.5391   24.5131   57.9642 N   0  0  0  0  0  0  0  0  0  0  0  0
   12.7022   22.3625   59.8982 C   0  0  0  0  0  0  0  0  0  0  0  0
   13.2898   23.5385   59.1063 C   0  0  0  0  0  0  0  0  0  0  0  0
   12.4374   24.8051   59.2766 C   0  0  0  0  0  0  0  0  0  0  0  0
   12.2165   25.1929   60.4479 O   0  0  0  0  0  0  0  0  0  0  0  0
   12.0272   25.3596   58.2311 O   0  0  0  0  0  0  0  0  0  0  0  0
   19.4922   24.5289   59.2065 N   0  0  0  0  0  0  0  0  0  0  0  0
   14.2633   20.9934   57.4033 O   0  0  0  0  0  0  0  0  0  0  0  0
   18.1493   24.5438   59.1462 C   0  0  0  0  0  0  0  0  0  0  0  0
   12.3850   19.9038   57.9264 O   0  0  0  0  0  0  0  0  0  0  0  0
   17.3813   24.5909   60.3165 N   0  0  0  0  0  0  0  0  0  0  0  0
   18.0288   24.6175   61.5443 C   0  0  0  0  0  0  0  0  0  0  0  0
   19.4163   24.5688   61.5724 C   0  0  0  0  0  0  0  0  0  0  0  0
   17.3768   24.6487   62.5850 O   0  0  0  0  0  0  0  0  0  0  0  0
   19.6016   25.3977   63.7589 C   0  0  0  0  0  0  0  0  0  0  0  0
   20.1092   24.6623   62.7743 N   0  0  0  0  0  0  0  0  0  0  0  0
   19.6740   26.6240   63.7223 O   0  0  0  0  0  0  0  0  0  0  0  0
   21.4694   24.1212   62.8704 C   0  0  2  0  0  0  0  0  0  0  0  0
   22.2898   24.6413   61.6872 C   0  0  0  0  0  0  0  0  0  0  0  0
   20.1344   24.5542   60.3842 C   0  0  0  0  0  0  0  0  0  0  0  0
   21.5333   24.5498   60.4141 N   0  0  0  0  0  0  0  0  0  0  0  0
   21.4395   22.5890   62.8607 C   0  0  0  0  0  0  0  0  0  0  0  0
   21.0227   22.1112   61.5366 N   0  0  0  0  0  0  0  0  0  0  0  0
   17.1940   20.7719   60.7359 C   0  0  0  0  0  0  0  0  0  0  0  0
   18.1542   20.8290   59.7286 C   0  0  0  0  0  0  0  0  0  0  0  0
   19.4368   21.3006   60.0010 C   0  0  0  0  0  0  0  0  0  0  0  0
   19.7863   21.6775   61.2934 C   0  0  0  0  0  0  0  0  0  0  0  0
   18.8313   21.6127   62.3024 C   0  0  0  0  0  0  0  0  0  0  0  0
   17.5375   21.1747   62.0233 C   0  0  0  0  0  0  0  0  0  0  0  0
   13.3778   20.6180   58.2092 C   0  0  0  0  0  0  0  0  0  0  0  0
  1  3  1  0  0  0  0
  2  1  1  6  0  0  0
  2  6  1  0  0  0  0
  2 34  1  0  0  0  0
  3  4  2  0  0  0  0
  3 28  1  0  0  0  0
  5 13  1  0  0  0  0
  6  7  1  0  0  0  0
  7  8  1  0  0  0  0
  8  9  1  0  0  0  0
  8 10  1  0  0  0  0
 11 13  2  0  0  0  0
 11 24  1  0  0  0  0
 12 34  1  0  0  0  0
 13 15  1  0  0  0  0
 14 34  1  0  0  0  0
 15 16  1  0  0  0  0
 16 17  1  0  0  0  0
 16 18  2  0  0  0  0
 17 20  1  0  0  0  0
 17 24  2  0  0  0  0
 19 21  1  0  0  0  0
 19 20  1  0  0  0  0
 20 22  1  0  0  0  0
 22 23  1  0  0  0  0
 22 26  1  6  0  0  0
 23 25  1  0  0  0  0
 24 25  1  0  0  0  0
 26 27  1  0  0  0  0
 27 31  1  0  0  0  0
 28 29  2  0  0  0  0
 28 33  1  0  0  0  0
 29 30  1  0  0  0  0
 30 31  2  0  0  0  0
 31 32  1  0  0  0  0
 32 33  2  0  0  0  0
M  END
>  <CHROM.1>
156.54265167,57.67725062,-28.48471844,177.15102709,54.81887583,-76.44400487
68.71396987,-101.95265802,176.82444856,-89.73586909,17.20059031,23.07445735
60.56234410,-2.82422264,-0.34944395,0.17900531

>  <Name>
ligand

>  <RI>
0

>  <Rbt.Current_Directory>
/home/itssahil/PROJECTS/Mol_Feturizer/New_Systems/rnas/3SUH

>  <Rbt.Executable>
rbdock ($Id: //depot/dev/client3/rdock/2013.1/src/exe/rbdock.cxx#4 $)

>  <Rbt.Library>
libRbt.so (2013.1, Build901 2013/11/27)

>  <Rbt.Parameter_File>
/export/apps/rDock/src/rDock_2013.1_src/data/scripts/dock_solv.prm

>  <Rbt.Receptor>
prm/blind_docking_80.prm

>  <SCORE>
-15.2165

>  <SCORE.INTER>
-10.7186

>  <SCORE.INTER.CONST>
1

>  <SCORE.INTER.POLAR>
0

>  <SCORE.INTER.ROT>
10

>  <SCORE.INTER.SOLV>
7.97637

>  <SCORE.INTER.VDW>
-20.0712

>  <SCORE.INTER.norm>
-0.315252

>  <SCORE.INTRA>
-4.49789

>  <SCORE.INTRA.DIHEDRAL>
-4.52091

>  <SCORE.INTRA.DIHEDRAL.0>
12.2703

>  <SCORE.INTRA.POLAR>
0

>  <SCORE.INTRA.POLAR.0>
0

>  <SCORE.INTRA.REPUL>
0

>  <SCORE.INTRA.REPUL.0>
0

>  <SCORE.INTRA.SOLV>
2.37174

>  <SCORE.INTRA.SOLV.lig_0>
-64.3214

>  <SCORE.INTRA.VDW>
-3.42331

>  <SCORE.INTRA.VDW.0>
-1.67301

>  <SCORE.INTRA.norm>
-0.132291

>  <SCORE.RESTR>
0

>  <SCORE.RESTR.CAVITY>
0

>  <SCORE.RESTR.norm>
0

>  <SCORE.SYSTEM>
0

>  <SCORE.SYSTEM.CONST>
0

>  <SCORE.SYSTEM.DIHEDRAL>
0

>  <SCORE.SYSTEM.SOLV>
0

>  <SCORE.SYSTEM.norm>
0

>  <SCORE.heavy>
34

>  <SCORE.norm>
-0.447543

>  <RMSD>
25.470

$$$$
ligand
 OpenBabel11021811483D
libRbt.so/2013.1/901 2013/11/27
 34 36  0  0  0  0  0  0  0  0999 V2000
   16.1359   23.0708   58.5924 N   0  0  0  0  0  0  0  0  0  0  0  0
   15.5620   23.0840   57.2266 C   0  0  1  0  0  0  0  0  0  0  0  0
   15.8698   22.1273   59.5050 C   0  0  0  0  0  0  0  0  0  0  0  0
   15.1185   21.1671   59.3134 O   0  0  0  0  0  0  0  0  0  0  0  0
   22.0483   24.6405   58.5547 N   0  0  0  0  0  0  0  0  0  0  0  0
   15.5785   24.5173   56.6693 C   0  0  0  0  0  0  0  0  0  0  0  0
   16.9715   25.1515   56.7829 C   0  0  0  0  0  0  0  0  0  0  0  0
   16.9178   26.6635   56.5158 C   0  0  0  0  0  0  0  0  0  0  0  0
   17.2591   27.0555   55.3752 O   0  0  0  0  0  0  0  0  0  0  0  0
   16.5338   27.3942   57.4578 O   0  0  0  0  0  0  0  0  0  0  0  0
   22.0985   24.7209   60.8676 N   0  0  0  0  0  0  0  0  0  0  0  0
   17.5463   21.9610   56.4857 O   0  0  0  0  0  0  0  0  0  0  0  0
   21.4073   24.7552   59.7150 C   0  0  0  0  0  0  0  0  0  0  0  0
   15.6589   21.6271   55.3389 O   0  0  0  0  0  0  0  0  0  0  0  0
   20.0153   24.9106   59.7201 N   0  0  0  0  0  0  0  0  0  0  0  0
   19.3566   25.0244   60.9369 C   0  0  0  0  0  0  0  0  0  0  0  0
   20.0966   24.9529   62.1098 C   0  0  0  0  0  0  0  0  0  0  0  0
   18.1351   25.1513   60.9676 O   0  0  0  0  0  0  0  0  0  0  0  0
   18.4488   25.9520   63.4473 C   0  0  0  0  0  0  0  0  0  0  0  0
   19.4895   25.1304   63.3481 N   0  0  0  0  0  0  0  0  0  0  0  0
   18.5932   27.1627   63.2931 O   0  0  0  0  0  0  0  0  0  0  0  0
   20.1199   24.5743   64.5504 C   0  0  2  0  0  0  0  0  0  0  0  0
   21.5953   24.9822   64.5651 C   0  0  0  0  0  0  0  0  0  0  0  0
   21.4782   24.8294   62.0523 C   0  0  0  0  0  0  0  0  0  0  0  0
   22.2264   24.8021   63.2344 N   0  0  0  0  0  0  0  0  0  0  0  0
   19.9930   23.0471   64.5653 C   0  0  0  0  0  0  0  0  0  0  0  0
   18.5787   22.6676   64.4607 N   0  0  0  0  0  0  0  0  0  0  0  0
   16.6226   22.2935   60.8375 C   0  0  0  0  0  0  0  0  0  0  0  0
   16.1067   23.1046   61.8454 C   0  0  0  0  0  0  0  0  0  0  0  0
   16.7605   23.2102   63.0714 C   0  0  0  0  0  0  0  0  0  0  0  0
   17.9609   22.5414   63.2867 C   0  0  0  0  0  0  0  0  0  0  0  0
   18.4821   21.7381   62.2781 C   0  0  0  0  0  0  0  0  0  0  0  0
   17.8102   21.6037   61.0639 C   0  0  0  0  0  0  0  0  0  0  0  0
   16.3235   22.1427   56.2706 C   0  0  0  0  0  0  0  0  0  0  0  0
  1  3  1  0  0  0  0
  2  1  1  1  0  0  0
  2  6  1  0  0  0  0
  2 34  1  0  0  0  0
  3  4  2  0  0  0  0
  3 28  1  0  0  0  0
  5 13  1  0  0  0  0
  6  7  1  0  0  0  0
  7  8  1  0  0  0  0
  8  9  1  0  0  0  0
  8 10  1  0  0  0  0
 11 13  2  0  0  0  0
 11 24  1  0  0  0  0
 12 34  1  0  0  0  0
 13 15  1  0  0  0  0
 14 34  1  0  0  0  0
 15 16  1  0  0  0  0
 16 17  1  0  0  0  0
 16 18  2  0  0  0  0
 17 20  1  0  0  0  0
 17 24  2  0  0  0  0
 19 21  1  0  0  0  0
 19 20  1  0  0  0  0
 20 22  1  0  0  0  0
 22 23  1  0  0  0  0
 22 26  1  6  0  0  0
 23 25  1  0  0  0  0
 24 25  1  0  0  0  0
 26 27  1  0  0  0  0
 27 31  1  0  0  0  0
 28 29  2  0  0  0  0
 28 33  1  0  0  0  0
 29 30  1  0  0  0  0
 30 31  2  0  0  0  0
 31 32  1  0  0  0  0
 32 33  2  0  0  0  0
M  END
>  <CHROM.1>
156.60686531,51.83958504,-30.17922836,-167.61819285,-99.98573571,-67.79754260
-56.06973896,85.99488057,-128.25269360,85.95308325,18.29498380,24.09957242
60.33814063,2.33124048,-0.76046757,-1.10098153

>  <Name>
ligand

>  <RI>
0

>  <Rbt.Current_Directory>
/home/itssahil/PROJECTS/Mol_Feturizer/New_Systems/rnas/3SUH

>  <Rbt.Executable>
rbdock ($Id: //depot/dev/client3/rdock/2013.1/src/exe/rbdock.cxx#4 $)

>  <Rbt.Library>
libRbt.so (2013.1, Build901 2013/11/27)

>  <Rbt.Parameter_File>
/export/apps/rDock/src/rDock_2013.1_src/data/scripts/dock_solv.prm

>  <Rbt.Receptor>
prm/blind_docking_100.prm

>  <SCORE>
-10.7407

>  <SCORE.INTER>
-4.43491

>  <SCORE.INTER.CONST>
1

>  <SCORE.INTER.POLAR>
0

>  <SCORE.INTER.ROT>
10

>  <SCORE.INTER.SOLV>
15.6322

>  <SCORE.INTER.VDW>
-18.434

>  <SCORE.INTER.norm>
-0.130438

>  <SCORE.INTRA>
-6.38456

>  <SCORE.INTRA.DIHEDRAL>
-4.15217

>  <SCORE.INTRA.DIHEDRAL.0>
12.2703

>  <SCORE.INTRA.POLAR>
0

>  <SCORE.INTRA.POLAR.0>
0

>  <SCORE.INTRA.REPUL>
0

>  <SCORE.INTRA.REPUL.0>
0

>  <SCORE.INTRA.SOLV>
0.410224

>  <SCORE.INTRA.SOLV.lig_0>
-64.3214

>  <SCORE.INTRA.VDW>
-4.51359

>  <SCORE.INTRA.VDW.0>
-1.67301

>  <SCORE.INTRA.norm>
-0.187781

>  <SCORE.RESTR>
0.0787706

>  <SCORE.RESTR.CAVITY>
0.0787706

>  <SCORE.RESTR.norm>
0.00231678

>  <SCORE.SYSTEM>
0

>  <SCORE.SYSTEM.CONST>
0

>  <SCORE.SYSTEM.DIHEDRAL>
0

>  <SCORE.SYSTEM.SOLV>
0

>  <SCORE.SYSTEM.norm>
0

>  <SCORE.heavy>
34

>  <SCORE.norm>
-0.315903

>  <RMSD>
25.472

$$$$
ligand
 OpenBabel11021811483D
libRbt.so/2013.1/901 2013/11/27
 34 36  0  0  0  0  0  0  0  0999 V2000
   20.1475   23.0549   61.1796 N   0  0  0  0  0  0  0  0  0  0  0  0
   21.5808   23.1747   60.8247 C   0  0  1  0  0  0  0  0  0  0  0  0
   19.5971   21.9506   61.7008 C   0  0  0  0  0  0  0  0  0  0  0  0
   20.2182   20.9117   61.9418 O   0  0  0  0  0  0  0  0  0  0  0  0
   16.3892   26.7619   57.8243 N   0  0  0  0  0  0  0  0  0  0  0  0
   21.8694   24.5902   60.2971 C   0  0  0  0  0  0  0  0  0  0  0  0
   21.2541   24.8120   58.9088 C   0  0  0  0  0  0  0  0  0  0  0  0
   19.7258   24.6605   58.9470 C   0  0  0  0  0  0  0  0  0  0  0  0
   19.2496   23.5663   58.5637 O   0  0  0  0  0  0  0  0  0  0  0  0
   19.0670   25.6419   59.3613 O   0  0  0  0  0  0  0  0  0  0  0  0
   14.5102   25.8173   58.7914 N   0  0  0  0  0  0  0  0  0  0  0  0
   23.6008   22.3114   61.7850 O   0  0  0  0  0  0  0  0  0  0  0  0
   15.7930   25.7214   58.4007 C   0  0  0  0  0  0  0  0  0  0  0  0
   22.0762   23.1926   63.1591 O   0  0  0  0  0  0  0  0  0  0  0  0
   16.5127   24.5355   58.5938 N   0  0  0  0  0  0  0  0  0  0  0  0
   15.8817   23.4580   59.2008 C   0  0  0  0  0  0  0  0  0  0  0  0
   14.5660   23.6009   59.6214 C   0  0  0  0  0  0  0  0  0  0  0  0
   16.4952   22.4107   59.3903 O   0  0  0  0  0  0  0  0  0  0  0  0
   14.1463   21.2967   59.7519 C   0  0  0  0  0  0  0  0  0  0  0  0
   13.8726   22.5284   60.1713 N   0  0  0  0  0  0  0  0  0  0  0  0
   13.9088   20.9656   58.5925 O   0  0  0  0  0  0  0  0  0  0  0  0
   12.7236   22.7814   61.0477 C   0  0  2  0  0  0  0  0  0  0  0  0
   11.7915   23.7819   60.3595 C   0  0  0  0  0  0  0  0  0  0  0  0
   13.8849   24.7862   59.3795 C   0  0  0  0  0  0  0  0  0  0  0  0
   12.5456   24.9127   59.7643 N   0  0  0  0  0  0  0  0  0  0  0  0
   13.1904   23.3357   62.3980 C   0  0  0  0  0  0  0  0  0  0  0  0
   14.0999   22.3773   63.0379 N   0  0  0  0  0  0  0  0  0  0  0  0
   18.1002   22.0776   62.0373 C   0  0  0  0  0  0  0  0  0  0  0  0
   17.2572   20.9731   61.9418 C   0  0  0  0  0  0  0  0  0  0  0  0
   15.9145   21.0761   62.3000 C   0  0  0  0  0  0  0  0  0  0  0  0
   15.3901   22.2958   62.7145 C   0  0  0  0  0  0  0  0  0  0  0  0
   16.2286   23.4020   62.8018 C   0  0  0  0  0  0  0  0  0  0  0  0
   17.5800   23.2913   62.4777 C   0  0  0  0  0  0  0  0  0  0  0  0
   22.5009   22.8663   62.0239 C   0  0  0  0  0  0  0  0  0  0  0  0
  1  3  1  0  0  0  0
  2  1  1  1  0  0  0
  2  6  1  0  0  0  0
  2 34  1  0  0  0  0
  3  4  2  0  0  0  0
  3 28  1  0  0  0  0
  5 13  1  0  0  0  0
  6  7  1  0  0  0  0
  7  8  1  0  0  0  0
  8  9  1  0  0  0  0
  8 10  1  0  0  0  0
 11 13  2  0  0  0  0
 11 24  1  0  0  0  0
 12 34  1  0  0  0  0
 13 15  1  0  0  0  0
 14 34  1  0  0  0  0
 15 16  1  0  0  0  0
 16 17  1  0  0  0  0
 16 18  2  0  0  0  0
 17 20  1  0  0  0  0
 17 24  2  0  0  0  0
 19 21  1  0  0  0  0
 19 20  1  0  0  0  0
 20 22  1  0  0  0  0
 22 23  1  0  0  0  0
 22 26  1  1  0  0  0
 23 25  1  0  0  0  0
 24 25  1  0  0  0  0
 26 27  1  0  0  0  0
 27 31  1  0  0  0  0
 28 29  2  0  0  0  0
 28 33  1  0  0  0  0
 29 30  1  0  0  0  0
 30 31  2  0  0  0  0
 31 32  1  0  0  0  0
 32 33  2  0  0  0  0
M  END
>  <CHROM.1>
-178.18063815,-71.06398506,146.38839671,61.06647290,-99.54185555,-65.17258102
-58.92035687,81.27189563,-124.20370043,148.02941145,17.17158261,23.31741510
60.53404363,0.11539654,0.06391216,2.32994573

>  <Name>
ligand

>  <RI>
0

>  <Rbt.Current_Directory>
/home/itssahil/PROJECTS/Mol_Feturizer/New_Systems/rnas/3SUH

>  <Rbt.Executable>
rbdock ($Id: //depot/dev/client3/rdock/2013.1/src/exe/rbdock.cxx#4 $)

>  <Rbt.Library>
libRbt.so (2013.1, Build901 2013/11/27)

>  <Rbt.Parameter_File>
/export/apps/rDock/src/rDock_2013.1_src/data/scripts/dock_solv.prm

>  <Rbt.Receptor>
prm/blind_docking_80.prm

>  <SCORE>
-12.3312

>  <SCORE.INTER>
-4.62654

>  <SCORE.INTER.CONST>
1

>  <SCORE.INTER.POLAR>
0

>  <SCORE.INTER.ROT>
10

>  <SCORE.INTER.SOLV>
14.1601

>  <SCORE.INTER.VDW>
-18.0711

>  <SCORE.INTER.norm>
-0.136075

>  <SCORE.INTRA>
-7.70465

>  <SCORE.INTRA.DIHEDRAL>
-5.23683

>  <SCORE.INTRA.DIHEDRAL.0>
12.2703

>  <SCORE.INTRA.POLAR>
0

>  <SCORE.INTRA.POLAR.0>
0

>  <SCORE.INTRA.REPUL>
0

>  <SCORE.INTRA.REPUL.0>
0

>  <SCORE.INTRA.SOLV>
1.71257

>  <SCORE.INTRA.SOLV.lig_0>
-64.3214

>  <SCORE.INTRA.VDW>
-5.94252

>  <SCORE.INTRA.VDW.0>
-1.67301

>  <SCORE.INTRA.norm>
-0.226607

>  <SCORE.RESTR>
0

>  <SCORE.RESTR.CAVITY>
0

>  <SCORE.RESTR.norm>
0

>  <SCORE.SYSTEM>
0

>  <SCORE.SYSTEM.CONST>
0

>  <SCORE.SYSTEM.DIHEDRAL>
0

>  <SCORE.SYSTEM.SOLV>
0

>  <SCORE.SYSTEM.norm>
0

>  <SCORE.heavy>
34

>  <SCORE.norm>
-0.362682

>  <RMSD>
25.476

$$$$
ligand
 OpenBabel11021811483D
libRbt.so/2013.1/901 2013/11/27
 34 36  0  0  0  0  0  0  0  0999 V2000
   17.1315   23.4684   62.0582 N   0  0  0  0  0  0  0  0  0  0  0  0
   17.9259   23.7048   63.2863 C   0  0  1  0  0  0  0  0  0  0  0  0
   15.9820   22.7815   62.0331 C   0  0  0  0  0  0  0  0  0  0  0  0
   15.4572   22.2682   63.0253 O   0  0  0  0  0  0  0  0  0  0  0  0
   19.6333   26.1368   57.3732 N   0  0  0  0  0  0  0  0  0  0  0  0
   18.8232   22.4878   63.5675 C   0  0  0  0  0  0  0  0  0  0  0  0
   19.5673   22.0309   62.3054 C   0  0  0  0  0  0  0  0  0  0  0  0
   20.6064   23.0730   61.8642 C   0  0  0  0  0  0  0  0  0  0  0  0
   21.6436   23.1769   62.5602 O   0  0  0  0  0  0  0  0  0  0  0  0
   20.3416   23.7414   60.8386 O   0  0  0  0  0  0  0  0  0  0  0  0
   17.8381   25.6980   55.9793 N   0  0  0  0  0  0  0  0  0  0  0  0
   19.6221   25.1943   64.0936 O   0  0  0  0  0  0  0  0  0  0  0  0
   18.7283   25.2849   56.8981 C   0  0  0  0  0  0  0  0  0  0  0  0
   18.5935   25.7108   62.1794 O   0  0  0  0  0  0  0  0  0  0  0  0
   18.7150   23.9641   57.3637 N   0  0  0  0  0  0  0  0  0  0  0  0
   17.7630   23.0854   56.8645 C   0  0  0  0  0  0  0  0  0  0  0  0
   16.8378   23.5526   55.9403 C   0  0  0  0  0  0  0  0  0  0  0  0
   17.7247   21.9247   57.2649 O   0  0  0  0  0  0  0  0  0  0  0  0
   16.2459   21.4228   55.1555 C   0  0  0  0  0  0  0  0  0  0  0  0
   15.9106   22.6928   55.3621 N   0  0  0  0  0  0  0  0  0  0  0  0
   15.4064   20.5314   55.2597 O   0  0  0  0  0  0  0  0  0  0  0  0
   14.6644   23.2360   54.8106 C   0  0  2  0  0  0  0  0  0  0  0  0
   15.0045   24.4181   53.8994 C   0  0  0  0  0  0  0  0  0  0  0  0
   16.9113   24.8625   55.4861 C   0  0  0  0  0  0  0  0  0  0  0  0
   16.0059   25.3188   54.5219 N   0  0  0  0  0  0  0  0  0  0  0  0
   13.7308   23.6888   55.9383 C   0  0  0  0  0  0  0  0  0  0  0  0
   13.5596   22.5982   56.9061 N   0  0  0  0  0  0  0  0  0  0  0  0
   15.3075   22.7102   60.6512 C   0  0  0  0  0  0  0  0  0  0  0  0
   14.3062   23.6142   60.3049 C   0  0  0  0  0  0  0  0  0  0  0  0
   13.7356   23.5838   59.0340 C   0  0  0  0  0  0  0  0  0  0  0  0
   14.1284   22.6203   58.1110 C   0  0  0  0  0  0  0  0  0  0  0  0
   15.1219   21.7111   58.4583 C   0  0  0  0  0  0  0  0  0  0  0  0
   15.7184   21.7633   59.7173 C   0  0  0  0  0  0  0  0  0  0  0  0
   18.7903   24.9780   63.1793 C   0  0  0  0  0  0  0  0  0  0  0  0
  1  3  1  0  0  0  0
  2  1  1  6  0  0  0
  2  6  1  0  0  0  0
  2 34  1  0  0  0  0
  3  4  2  0  0  0  0
  3 28  1  0  0  0  0
  5 13  1  0  0  0  0
  6  7  1  0  0  0  0
  7  8  1  0  0  0  0
  8  9  1  0  0  0  0
  8 10  1  0  0  0  0
 11 13  2  0  0  0  0
 11 24  1  0  0  0  0
 12 34  1  0  0  0  0
 13 15  1  0  0  0  0
 14 34  1  0  0  0  0
 15 16  1  0  0  0  0
 16 17  1  0  0  0  0
 16 18  2  0  0  0  0
 17 20  1  0  0  0  0
 17 24  2  0  0  0  0
 19 21  1  0  0  0  0
 19 20  1  0  0  0  0
 20 22  1  0  0  0  0
 22 23  1  0  0  0  0
 22 26  1  1  0  0  0
 23 25  1  0  0  0  0
 24 25  1  0  0  0  0
 26 27  1  0  0  0  0
 27 31  1  0  0  0  0
 28 29  2  0  0  0  0
 28 33  1  0  0  0  0
 29 30  1  0  0  0  0
 30 31  2  0  0  0  0
 31 32  1  0  0  0  0
 32 33  2  0  0  0  0
M  END
>  <CHROM.1>
83.37325024,47.27149767,-171.81436191,67.77019204,72.78832125,145.70093302
-52.10386809,106.82986045,65.41861762,-95.65039912,17.05993370,23.44014273
58.93328698,1.07300647,0.42996745,1.73943598

>  <Name>
ligand

>  <RI>
0

>  <Rbt.Current_Directory>
/home/itssahil/PROJECTS/Mol_Feturizer/New_Systems/rnas/3SUH

>  <Rbt.Executable>
rbdock ($Id: //depot/dev/client3/rdock/2013.1/src/exe/rbdock.cxx#4 $)

>  <Rbt.Library>
libRbt.so (2013.1, Build901 2013/11/27)

>  <Rbt.Parameter_File>
/export/apps/rDock/src/rDock_2013.1_src/data/scripts/dock_solv.prm

>  <Rbt.Receptor>
prm/blind_docking_80.prm

>  <SCORE>
-9.1057

>  <SCORE.INTER>
-4.20201

>  <SCORE.INTER.CONST>
1

>  <SCORE.INTER.POLAR>
0

>  <SCORE.INTER.ROT>
10

>  <SCORE.INTER.SOLV>
11.1932

>  <SCORE.INTER.VDW>
-16.7991

>  <SCORE.INTER.norm>
-0.123589

>  <SCORE.INTRA>
-4.90768

>  <SCORE.INTRA.DIHEDRAL>
-3.61647

>  <SCORE.INTRA.DIHEDRAL.0>
12.2703

>  <SCORE.INTRA.POLAR>
0

>  <SCORE.INTRA.POLAR.0>
0

>  <SCORE.INTRA.REPUL>
0

>  <SCORE.INTRA.REPUL.0>
0

>  <SCORE.INTRA.SOLV>
0.967135

>  <SCORE.INTRA.SOLV.lig_0>
-64.3214

>  <SCORE.INTRA.VDW>
-3.58301

>  <SCORE.INTRA.VDW.0>
-1.67301

>  <SCORE.INTRA.norm>
-0.144343

>  <SCORE.RESTR>
0.00398692

>  <SCORE.RESTR.CAVITY>
0.00398692

>  <SCORE.RESTR.norm>
0.000117262

>  <SCORE.SYSTEM>
0

>  <SCORE.SYSTEM.CONST>
0

>  <SCORE.SYSTEM.DIHEDRAL>
0

>  <SCORE.SYSTEM.SOLV>
0

>  <SCORE.SYSTEM.norm>
0

>  <SCORE.heavy>
34

>  <SCORE.norm>
-0.267815

>  <RMSD>
25.560

$$$$
ligand
 OpenBabel11021811483D
libRbt.so/2013.1/901 2013/11/27
 34 36  0  0  0  0  0  0  0  0999 V2000
   19.4227   25.0923   62.0038 N   0  0  0  0  0  0  0  0  0  0  0  0
   19.7810   25.1807   63.4386 C   0  0  1  0  0  0  0  0  0  0  0  0
   19.0341   26.1400   61.2653 C   0  0  0  0  0  0  0  0  0  0  0  0
   18.9292   27.2923   61.6947 O   0  0  0  0  0  0  0  0  0  0  0  0
   12.5540   19.4144   56.0425 N   0  0  0  0  0  0  0  0  0  0  0  0
   19.5647   23.8159   64.1138 C   0  0  0  0  0  0  0  0  0  0  0  0
   20.5622   22.7680   63.6019 C   0  0  0  0  0  0  0  0  0  0  0  0
   20.1705   22.2629   62.2048 C   0  0  0  0  0  0  0  0  0  0  0  0
   19.0949   21.6268   62.1072 O   0  0  0  0  0  0  0  0  0  0  0  0
   20.9545   22.5264   61.2642 O   0  0  0  0  0  0  0  0  0  0  0  0
   13.3813   21.3879   55.1598 N   0  0  0  0  0  0  0  0  0  0  0  0
   21.5404   26.1446   64.7515 O   0  0  0  0  0  0  0  0  0  0  0  0
   13.1537   20.5893   56.2170 C   0  0  0  0  0  0  0  0  0  0  0  0
   22.0231   25.4752   62.6759 O   0  0  0  0  0  0  0  0  0  0  0  0
   13.5417   20.9798   57.5049 N   0  0  0  0  0  0  0  0  0  0  0  0
   14.1710   22.2056   57.6742 C   0  0  0  0  0  0  0  0  0  0  0  0
   14.4199   22.9921   56.5571 C   0  0  0  0  0  0  0  0  0  0  0  0
   14.5298   22.5656   58.7926 O   0  0  0  0  0  0  0  0  0  0  0  0
   14.7198   24.9761   57.7719 C   0  0  0  0  0  0  0  0  0  0  0  0
   14.9850   24.2560   56.6861 N   0  0  0  0  0  0  0  0  0  0  0  0
   15.6163   25.2697   58.5596 O   0  0  0  0  0  0  0  0  0  0  0  0
   15.6933   24.8524   55.5483 C   0  0  2  0  0  0  0  0  0  0  0  0
   14.8088   24.7379   54.3041 C   0  0  0  0  0  0  0  0  0  0  0  0
   13.9882   22.5756   55.3050 C   0  0  0  0  0  0  0  0  0  0  0  0
   14.2004   23.3898   54.1870 N   0  0  0  0  0  0  0  0  0  0  0  0
   17.0298   24.1397   55.3147 C   0  0  0  0  0  0  0  0  0  0  0  0
   18.1314   24.9893   55.7836 N   0  0  0  0  0  0  0  0  0  0  0  0
   18.7635   25.8160   59.7849 C   0  0  0  0  0  0  0  0  0  0  0  0
   18.2902   26.7999   58.9202 C   0  0  0  0  0  0  0  0  0  0  0  0
   18.0987   26.5199   57.5686 C   0  0  0  0  0  0  0  0  0  0  0  0
   18.3354   25.2409   57.0763 C   0  0  0  0  0  0  0  0  0  0  0  0
   18.7996   24.2548   57.9403 C   0  0  0  0  0  0  0  0  0  0  0  0
   19.0254   24.5434   59.2854 C   0  0  0  0  0  0  0  0  0  0  0  0
   21.2397   25.6394   63.6429 C   0  0  0  0  0  0  0  0  0  0  0  0
  1  3  1  0  0  0  0
  2  1  1  6  0  0  0
  2  6  1  0  0  0  0
  2 34  1  0  0  0  0
  3  4  2  0  0  0  0
  3 28  1  0  0  0  0
  5 13  1  0  0  0  0
  6  7  1  0  0  0  0
  7  8  1  0  0  0  0
  8  9  1  0  0  0  0
  8 10  1  0  0  0  0
 11 13  2  0  0  0  0
 11 24  1  0  0  0  0
 12 34  1  0  0  0  0
 13 15  1  0  0  0  0
 14 34  1  0  0  0  0
 15 16  1  0  0  0  0
 16 17  1  0  0  0  0
 16 18  2  0  0  0  0
 17 20  1  0  0  0  0
 17 24  2  0  0  0  0
 19 21  1  0  0  0  0
 19 20  1  0  0  0  0
 20 22  1  0  0  0  0
 22 23  1  0  0  0  0
 22 26  1  6  0  0  0
 23 25  1  0  0  0  0
 24 25  1  0  0  0  0
 26 27  1  0  0  0  0
 27 31  1  0  0  0  0
 28 29  2  0  0  0  0
 28 33  1  0  0  0  0
 29 30  1  0  0  0  0
 30 31  2  0  0  0  0
 31 32  1  0  0  0  0
 32 33  2  0  0  0  0
M  END
>  <CHROM.1>
154.78296142,67.76736913,158.40792947,-76.32708810,-64.99732948,115.66203763
-105.24884432,69.26344475,-110.28551681,176.84301989,17.34764176,24.00667225
59.04797025,-0.32237458,-0.81804518,-0.73452377

>  <Name>
ligand

>  <RI>
0

>  <Rbt.Current_Directory>
/home/itssahil/PROJECTS/Mol_Feturizer/New_Systems/rnas/3SUH

>  <Rbt.Executable>
rbdock ($Id: //depot/dev/client3/rdock/2013.1/src/exe/rbdock.cxx#4 $)

>  <Rbt.Library>
libRbt.so (2013.1, Build901 2013/11/27)

>  <Rbt.Parameter_File>
/export/apps/rDock/src/rDock_2013.1_src/data/scripts/dock_solv.prm

>  <Rbt.Receptor>
prm/blind_docking_100.prm

>  <SCORE>
-5.9056

>  <SCORE.INTER>
-2.83436

>  <SCORE.INTER.CONST>
1

>  <SCORE.INTER.POLAR>
0

>  <SCORE.INTER.ROT>
10

>  <SCORE.INTER.SOLV>
10.0826

>  <SCORE.INTER.VDW>
-15.5171

>  <SCORE.INTER.norm>
-0.0833636

>  <SCORE.INTRA>
-3.07123

>  <SCORE.INTRA.DIHEDRAL>
0.579109

>  <SCORE.INTRA.DIHEDRAL.0>
12.2703

>  <SCORE.INTRA.POLAR>
0

>  <SCORE.INTRA.POLAR.0>
0

>  <SCORE.INTRA.REPUL>
0

>  <SCORE.INTRA.REPUL.0>
0

>  <SCORE.INTRA.SOLV>
-0.0155776

>  <SCORE.INTRA.SOLV.lig_0>
-64.3214

>  <SCORE.INTRA.VDW>
-3.353

>  <SCORE.INTRA.VDW.0>
-1.67301

>  <SCORE.INTRA.norm>
-0.0903304

>  <SCORE.RESTR>
0

>  <SCORE.RESTR.CAVITY>
0

>  <SCORE.RESTR.norm>
0

>  <SCORE.SYSTEM>
0

>  <SCORE.SYSTEM.CONST>
0

>  <SCORE.SYSTEM.DIHEDRAL>
0

>  <SCORE.SYSTEM.SOLV>
0

>  <SCORE.SYSTEM.norm>
0

>  <SCORE.heavy>
34

>  <SCORE.norm>
-0.173694

>  <RMSD>
25.575

$$$$
ligand
 OpenBabel11021811483D
libRbt.so/2013.1/901 2013/11/27
 34 36  0  0  0  0  0  0  0  0999 V2000
   15.5615   22.5322   58.0265 N   0  0  0  0  0  0  0  0  0  0  0  0
   14.2719   22.5383   57.2972 C   0  0  1  0  0  0  0  0  0  0  0  0
   15.7740   21.8543   59.1620 C   0  0  0  0  0  0  0  0  0  0  0  0
   14.9231   21.1623   59.7280 O   0  0  0  0  0  0  0  0  0  0  0  0
   19.3572   26.9353   58.6489 N   0  0  0  0  0  0  0  0  0  0  0  0
   14.0567   23.9084   56.6327 C   0  0  0  0  0  0  0  0  0  0  0  0
   14.0893   25.0467   57.6616 C   0  0  0  0  0  0  0  0  0  0  0  0
   12.7200   25.2280   58.3342 C   0  0  0  0  0  0  0  0  0  0  0  0
   11.7759   25.6253   57.6118 O   0  0  0  0  0  0  0  0  0  0  0  0
   12.6469   24.9627   59.5561 O   0  0  0  0  0  0  0  0  0  0  0  0
   20.9277   25.7633   59.8811 N   0  0  0  0  0  0  0  0  0  0  0  0
   13.0703   21.0032   55.9018 O   0  0  0  0  0  0  0  0  0  0  0  0
   19.7163   26.3377   59.7822 C   0  0  0  0  0  0  0  0  0  0  0  0
   15.3001   21.0166   55.7733 O   0  0  0  0  0  0  0  0  0  0  0  0
   18.8236   26.3146   60.8612 N   0  0  0  0  0  0  0  0  0  0  0  0
   19.2072   25.6839   62.0371 C   0  0  0  0  0  0  0  0  0  0  0  0
   20.4527   25.0727   62.0951 C   0  0  0  0  0  0  0  0  0  0  0  0
   18.4377   25.6417   62.9938 O   0  0  0  0  0  0  0  0  0  0  0  0
   20.5360   25.0103   64.4385 C   0  0  0  0  0  0  0  0  0  0  0  0
   20.9067   24.4892   63.2728 N   0  0  0  0  0  0  0  0  0  0  0  0
   21.0610   26.0399   64.8564 O   0  0  0  0  0  0  0  0  0  0  0  0
   21.9357   23.4453   63.2143 C   0  0  2  0  0  0  0  0  0  0  0  0
   23.0854   23.9375   62.3314 C   0  0  0  0  0  0  0  0  0  0  0  0
   21.3148   25.1495   61.0096 C   0  0  0  0  0  0  0  0  0  0  0  0
   22.5866   24.5711   61.0859 N   0  0  0  0  0  0  0  0  0  0  0  0
   21.3515   22.1470   62.6471 C   0  0  0  0  0  0  0  0  0  0  0  0
   21.0383   22.3262   61.2241 N   0  0  0  0  0  0  0  0  0  0  0  0
   17.2087   21.9560   59.7108 C   0  0  0  0  0  0  0  0  0  0  0  0
   18.1810   22.6758   59.0207 C   0  0  0  0  0  0  0  0  0  0  0  0
   19.4641   22.8136   59.5464 C   0  0  0  0  0  0  0  0  0  0  0  0
   19.8015   22.1953   60.7457 C   0  0  0  0  0  0  0  0  0  0  0  0
   18.8342   21.4686   61.4318 C   0  0  0  0  0  0  0  0  0  0  0  0
   17.5402   21.3600   60.9243 C   0  0  0  0  0  0  0  0  0  0  0  0
   14.2052   21.4245   56.2319 C   0  0  0  0  0  0  0  0  0  0  0  0
  1  3  1  0  0  0  0
  2  1  1  6  0  0  0
  2  6  1  0  0  0  0
  2 34  1  0  0  0  0
  3  4  2  0  0  0  0
  3 28  1  0  0  0  0
  5 13  1  0  0  0  0
  6  7  1  0  0  0  0
  7  8  1  0  0  0  0
  8  9  1  0  0  0  0
  8 10  1  0  0  0  0
 11 13  2  0  0  0  0
 11 24  1  0  0  0  0
 12 34  1  0  0  0  0
 13 15  1  0  0  0  0
 14 34  1  0  0  0  0
 15 16  1  0  0  0  0
 16 17  1  0  0  0  0
 16 18  2  0  0  0  0
 17 20  1  0  0  0  0
 17 24  2  0  0  0  0
 19 21  1  0  0  0  0
 19 20  1  0  0  0  0
 20 22  1  0  0  0  0
 22 23  1  0  0  0  0
 22 26  1  6  0  0  0
 23 25  1  0  0  0  0
 24 25  1  0  0  0  0
 26 27  1  0  0  0  0
 27 31  1  0  0  0  0
 28 29  2  0  0  0  0
 28 33  1  0  0  0  0
 29 30  1  0  0  0  0
 30 31  2  0  0  0  0
 31 32  1  0  0  0  0
 32 33  2  0  0  0  0
M  END
>  <CHROM.1>
146.41841414,-57.51339148,154.53592465,-83.86858811,-66.35886005,-76.85232999
69.02308031,-119.34305837,157.33239489,-1.82168774,17.86126623,23.77787994
60.09488084,-2.77932961,-0.52164587,0.35364996

>  <Name>
ligand

>  <RI>
0

>  <Rbt.Current_Directory>
/home/itssahil/PROJECTS/Mol_Feturizer/New_Systems/rnas/3SUH

>  <Rbt.Executable>
rbdock ($Id: //depot/dev/client3/rdock/2013.1/src/exe/rbdock.cxx#4 $)

>  <Rbt.Library>
libRbt.so (2013.1, Build901 2013/11/27)

>  <Rbt.Parameter_File>
/export/apps/rDock/src/rDock_2013.1_src/data/scripts/dock_solv.prm

>  <Rbt.Receptor>
prm/blind_docking_100.prm

>  <SCORE>
-10.0363

>  <SCORE.INTER>
-7.5599

>  <SCORE.INTER.CONST>
1

>  <SCORE.INTER.POLAR>
0

>  <SCORE.INTER.ROT>
10

>  <SCORE.INTER.SOLV>
7.75569

>  <SCORE.INTER.VDW>
-17.8918

>  <SCORE.INTER.norm>
-0.22235

>  <SCORE.INTRA>
-2.47637

>  <SCORE.INTRA.DIHEDRAL>
-1.77164

>  <SCORE.INTRA.DIHEDRAL.0>
12.2703

>  <SCORE.INTRA.POLAR>
0

>  <SCORE.INTRA.POLAR.0>
0

>  <SCORE.INTRA.REPUL>
0

>  <SCORE.INTRA.REPUL.0>
0

>  <SCORE.INTRA.SOLV>
1.91703

>  <SCORE.INTRA.SOLV.lig_0>
-64.3214

>  <SCORE.INTRA.VDW>
-2.54906

>  <SCORE.INTRA.VDW.0>
-1.67301

>  <SCORE.INTRA.norm>
-0.0728343

>  <SCORE.RESTR>
0

>  <SCORE.RESTR.CAVITY>
0

>  <SCORE.RESTR.norm>
0

>  <SCORE.SYSTEM>
0

>  <SCORE.SYSTEM.CONST>
0

>  <SCORE.SYSTEM.DIHEDRAL>
0

>  <SCORE.SYSTEM.SOLV>
0

>  <SCORE.SYSTEM.norm>
0

>  <SCORE.heavy>
34

>  <SCORE.norm>
-0.295184

>  <RMSD>
25.582

$$$$
ligand
 OpenBabel11021811483D
libRbt.so/2013.1/901 2013/11/27
 34 36  0  0  0  0  0  0  0  0999 V2000
   15.5814   25.1752   58.3335 N   0  0  0  0  0  0  0  0  0  0  0  0
   14.3081   25.0921   57.5808 C   0  0  1  0  0  0  0  0  0  0  0  0
   16.4765   26.1599   58.1804 C   0  0  0  0  0  0  0  0  0  0  0  0
   16.3436   27.1044   57.3973 O   0  0  0  0  0  0  0  0  0  0  0  0
   16.6411   20.7922   62.0493 N   0  0  0  0  0  0  0  0  0  0  0  0
   14.0431   23.6350   57.1664 C   0  0  0  0  0  0  0  0  0  0  0  0
   15.0308   23.1652   56.0898 C   0  0  0  0  0  0  0  0  0  0  0  0
   14.6102   21.8093   55.5026 C   0  0  0  0  0  0  0  0  0  0  0  0
   14.0100   21.8238   54.4023 O   0  0  0  0  0  0  0  0  0  0  0  0
   14.9005   20.7874   56.1660 O   0  0  0  0  0  0  0  0  0  0  0  0
   18.2209   21.9778   63.2564 N   0  0  0  0  0  0  0  0  0  0  0  0
   13.0467   25.2969   59.6092 O   0  0  0  0  0  0  0  0  0  0  0  0
   17.8220   21.4024   62.1087 C   0  0  0  0  0  0  0  0  0  0  0  0
   12.2954   26.3568   57.7924 O   0  0  0  0  0  0  0  0  0  0  0  0
   18.6369   21.4374   60.9701 N   0  0  0  0  0  0  0  0  0  0  0  0
   19.8649   22.0812   61.0424 C   0  0  0  0  0  0  0  0  0  0  0  0
   20.2326   22.6930   62.2336 C   0  0  0  0  0  0  0  0  0  0  0  0
   20.5928   22.1341   60.0543 O   0  0  0  0  0  0  0  0  0  0  0  0
   22.5188   22.7813   61.7158 C   0  0  0  0  0  0  0  0  0  0  0  0
   21.4809   23.2894   62.3734 N   0  0  0  0  0  0  0  0  0  0  0  0
   23.2768   21.9858   62.2661 O   0  0  0  0  0  0  0  0  0  0  0  0
   21.6760   24.3326   63.3863 C   0  0  2  0  0  0  0  0  0  0  0  0
   21.1214   23.8305   64.7219 C   0  0  0  0  0  0  0  0  0  0  0  0
   19.4042   22.6040   63.3441 C   0  0  0  0  0  0  0  0  0  0  0  0
   19.7967   23.1831   64.5559 N   0  0  0  0  0  0  0  0  0  0  0  0
   20.9645   25.6245   62.9701 C   0  0  0  0  0  0  0  0  0  0  0  0
   21.0524   25.7901   61.5140 N   0  0  0  0  0  0  0  0  0  0  0  0
   17.7011   26.0634   59.1083 C   0  0  0  0  0  0  0  0  0  0  0  0
   18.2251   24.8223   59.4619 C   0  0  0  0  0  0  0  0  0  0  0  0
   19.3667   24.7379   60.2564 C   0  0  0  0  0  0  0  0  0  0  0  0
   19.9703   25.8926   60.7430 C   0  0  0  0  0  0  0  0  0  0  0  0
   19.4431   27.1325   60.3981 C   0  0  0  0  0  0  0  0  0  0  0  0
   18.3219   27.2189   59.5741 C   0  0  0  0  0  0  0  0  0  0  0  0
   13.1161   25.6274   58.4007 C   0  0  0  0  0  0  0  0  0  0  0  0
  1  3  1  0  0  0  0
  2  1  1  1  0  0  0
  2  6  1  0  0  0  0
  2 34  1  0  0  0  0
  3  4  2  0  0  0  0
  3 28  1  0  0  0  0
  5 13  1  0  0  0  0
  6  7  1  0  0  0  0
  7  8  1  0  0  0  0
  8  9  1  0  0  0  0
  8 10  1  0  0  0  0
 11 13  2  0  0  0  0
 11 24  1  0  0  0  0
 12 34  1  0  0  0  0
 13 15  1  0  0  0  0
 14 34  1  0  0  0  0
 15 16  1  0  0  0  0
 16 17  1  0  0  0  0
 16 18  2  0  0  0  0
 17 20  1  0  0  0  0
 17 24  2  0  0  0  0
 19 21  1  0  0  0  0
 19 20  1  0  0  0  0
 20 22  1  0  0  0  0
 22 23  1  0  0  0  0
 22 26  1  6  0  0  0
 23 25  1  0  0  0  0
 24 25  1  0  0  0  0
 26 27  1  0  0  0  0
 27 31  1  0  0  0  0
 28 29  2  0  0  0  0
 28 33  1  0  0  0  0
 29 30  1  0  0  0  0
 30 31  2  0  0  0  0
 31 32  1  0  0  0  0
 32 33  2  0  0  0  0
M  END
>  <CHROM.1>
139.30307525,-69.66906141,-43.03912364,-169.84094887,99.63827765,-95.63710035
-35.89162543,121.76887186,-87.29519975,34.61559891,17.89033054,23.89371483
60.08659980,-3.08182451,0.70220145,-3.09555010

>  <Name>
ligand

>  <RI>
0

>  <Rbt.Current_Directory>
/home/itssahil/PROJECTS/Mol_Feturizer/New_Systems/rnas/3SUH

>  <Rbt.Executable>
rbdock ($Id: //depot/dev/client3/rdock/2013.1/src/exe/rbdock.cxx#4 $)

>  <Rbt.Library>
libRbt.so (2013.1, Build901 2013/11/27)

>  <Rbt.Parameter_File>
/export/apps/rDock/src/rDock_2013.1_src/data/scripts/dock_solv.prm

>  <Rbt.Receptor>
prm/blind_docking_100.prm

>  <SCORE>
-11.1343

>  <SCORE.INTER>
-7.71456

>  <SCORE.INTER.CONST>
1

>  <SCORE.INTER.POLAR>
0

>  <SCORE.INTER.ROT>
10

>  <SCORE.INTER.SOLV>
15.9603

>  <SCORE.INTER.VDW>
-20.7298

>  <SCORE.INTER.norm>
-0.226899

>  <SCORE.INTRA>
-3.42293

>  <SCORE.INTRA.DIHEDRAL>
-1.4187

>  <SCORE.INTRA.DIHEDRAL.0>
12.2703

>  <SCORE.INTRA.POLAR>
0

>  <SCORE.INTRA.POLAR.0>
0

>  <SCORE.INTRA.REPUL>
0

>  <SCORE.INTRA.REPUL.0>
0

>  <SCORE.INTRA.SOLV>
0.414195

>  <SCORE.INTRA.SOLV.lig_0>
-64.3214

>  <SCORE.INTRA.VDW>
-2.92068

>  <SCORE.INTRA.VDW.0>
-1.67301

>  <SCORE.INTRA.norm>
-0.100674

>  <SCORE.RESTR>
0.00316506

>  <SCORE.RESTR.CAVITY>
0.00316506

>  <SCORE.RESTR.norm>
9.30901e-05

>  <SCORE.SYSTEM>
0

>  <SCORE.SYSTEM.CONST>
0

>  <SCORE.SYSTEM.DIHEDRAL>
0

>  <SCORE.SYSTEM.SOLV>
0

>  <SCORE.SYSTEM.norm>
0

>  <SCORE.heavy>
34

>  <SCORE.norm>
-0.32748

>  <RMSD>
25.615

$$$$
ligand
 OpenBabel11021811483D
libRbt.so/2013.1/901 2013/11/27
 34 36  0  0  0  0  0  0  0  0999 V2000
   15.0130   22.2069   57.9315 N   0  0  0  0  0  0  0  0  0  0  0  0
   13.8254   22.5346   57.1087 C   0  0  1  0  0  0  0  0  0  0  0  0
   16.2644   22.5606   57.6106 C   0  0  0  0  0  0  0  0  0  0  0  0
   16.5690   23.1951   56.5968 O   0  0  0  0  0  0  0  0  0  0  0  0
   19.8086   27.8999   59.1859 N   0  0  0  0  0  0  0  0  0  0  0  0
   13.1207   23.7750   57.6832 C   0  0  0  0  0  0  0  0  0  0  0  0
   14.0905   24.9542   57.8388 C   0  0  0  0  0  0  0  0  0  0  0  0
   15.0141   24.7588   59.0509 C   0  0  0  0  0  0  0  0  0  0  0  0
   16.1089   25.3690   59.0402 O   0  0  0  0  0  0  0  0  0  0  0  0
   14.6036   24.0050   59.9631 O   0  0  0  0  0  0  0  0  0  0  0  0
   20.8847   26.4898   60.6731 N   0  0  0  0  0  0  0  0  0  0  0  0
   14.2495   23.9710   55.2367 O   0  0  0  0  0  0  0  0  0  0  0  0
   19.7696   26.8671   60.0239 C   0  0  0  0  0  0  0  0  0  0  0  0
   14.4144   21.7650   54.9279 O   0  0  0  0  0  0  0  0  0  0  0  0
   18.5625   26.1840   60.2190 N   0  0  0  0  0  0  0  0  0  0  0  0
   18.5349   25.1048   61.0920 C   0  0  0  0  0  0  0  0  0  0  0  0
   19.7115   24.7212   61.7220 C   0  0  0  0  0  0  0  0  0  0  0  0
   17.4905   24.4835   61.2719 O   0  0  0  0  0  0  0  0  0  0  0  0
   18.6426   23.4984   63.4146 C   0  0  0  0  0  0  0  0  0  0  0  0
   19.7173   23.6909   62.6557 N   0  0  0  0  0  0  0  0  0  0  0  0
   18.3598   22.3738   63.8214 O   0  0  0  0  0  0  0  0  0  0  0  0
   20.9641   22.9677   62.9288 C   0  0  2  0  0  0  0  0  0  0  0  0
   22.0775   23.9868   63.1842 C   0  0  0  0  0  0  0  0  0  0  0  0
   20.8761   25.4494   61.5202 C   0  0  0  0  0  0  0  0  0  0  0  0
   22.0501   25.0881   62.1903 N   0  0  0  0  0  0  0  0  0  0  0  0
   21.3326   22.0672   61.7447 C   0  0  0  0  0  0  0  0  0  0  0  0
   20.2124   21.1686   61.4399 N   0  0  0  0  0  0  0  0  0  0  0  0
   17.3306   22.1548   58.6441 C   0  0  0  0  0  0  0  0  0  0  0  0
   18.6827   22.1722   58.3103 C   0  0  0  0  0  0  0  0  0  0  0  0
   19.6497   21.8584   59.2633 C   0  0  0  0  0  0  0  0  0  0  0  0
   19.2730   21.4799   60.5475 C   0  0  0  0  0  0  0  0  0  0  0  0
   17.9228   21.4533   60.8800 C   0  0  0  0  0  0  0  0  0  0  0  0
   16.9563   21.8016   59.9375 C   0  0  0  0  0  0  0  0  0  0  0  0
   14.1958   22.7812   55.6317 C   0  0  0  0  0  0  0  0  0  0  0  0
  1  3  1  0  0  0  0
  2  1  1  1  0  0  0
  2  6  1  0  0  0  0
  2 34  1  0  0  0  0
  3  4  2  0  0  0  0
  3 28  1  0  0  0  0
  5 13  1  0  0  0  0
  6  7  1  0  0  0  0
  7  8  1  0  0  0  0
  8  9  1  0  0  0  0
  8 10  1  0  0  0  0
 11 13  2  0  0  0  0
 11 24  1  0  0  0  0
 12 34  1  0  0  0  0
 13 15  1  0  0  0  0
 14 34  1  0  0  0  0
 15 16  1  0  0  0  0
 16 17  1  0  0  0  0
 16 18  2  0  0  0  0
 17 20  1  0  0  0  0
 17 24  2  0  0  0  0
 19 21  1  0  0  0  0
 19 20  1  0  0  0  0
 20 22  1  0  0  0  0
 22 23  1  0  0  0  0
 22 26  1  6  0  0  0
 23 25  1  0  0  0  0
 24 25  1  0  0  0  0
 26 27  1  0  0  0  0
 27 31  1  0  0  0  0
 28 29  2  0  0  0  0
 28 33  1  0  0  0  0
 29 30  1  0  0  0  0
 30 31  2  0  0  0  0
 31 32  1  0  0  0  0
 32 33  2  0  0  0  0
M  END
>  <CHROM.1>
-98.54382128,53.74597110,-102.41478057,-75.52395000,156.37727230,150.07848890
-55.20464534,92.22234438,52.96580773,164.92074843,17.76723265,23.69304095
59.78230803,3.11880641,-0.73135044,-0.19337414

>  <Name>
ligand

>  <RI>
0

>  <Rbt.Current_Directory>
/home/itssahil/PROJECTS/Mol_Feturizer/New_Systems/rnas/3SUH

>  <Rbt.Executable>
rbdock ($Id: //depot/dev/client3/rdock/2013.1/src/exe/rbdock.cxx#4 $)

>  <Rbt.Library>
libRbt.so (2013.1, Build901 2013/11/27)

>  <Rbt.Parameter_File>
/export/apps/rDock/src/rDock_2013.1_src/data/scripts/dock_solv.prm

>  <Rbt.Receptor>
prm/blind_docking_100.prm

>  <SCORE>
-7.95433

>  <SCORE.INTER>
-5.2854

>  <SCORE.INTER.CONST>
1

>  <SCORE.INTER.POLAR>
0

>  <SCORE.INTER.ROT>
10

>  <SCORE.INTER.SOLV>
14.2372

>  <SCORE.INTER.VDW>
-18.536

>  <SCORE.INTER.norm>
-0.155453

>  <SCORE.INTRA>
-2.66893

>  <SCORE.INTRA.DIHEDRAL>
-3.46672

>  <SCORE.INTRA.DIHEDRAL.0>
12.2703

>  <SCORE.INTRA.POLAR>
0

>  <SCORE.INTRA.POLAR.0>
0

>  <SCORE.INTRA.REPUL>
0

>  <SCORE.INTRA.REPUL.0>
0

>  <SCORE.INTRA.SOLV>
2.52827

>  <SCORE.INTRA.SOLV.lig_0>
-64.3214

>  <SCORE.INTRA.VDW>
-2.1997

>  <SCORE.INTRA.VDW.0>
-1.67301

>  <SCORE.INTRA.norm>
-0.0784979

>  <SCORE.RESTR>
0

>  <SCORE.RESTR.CAVITY>
0

>  <SCORE.RESTR.norm>
0

>  <SCORE.SYSTEM>
0

>  <SCORE.SYSTEM.CONST>
0

>  <SCORE.SYSTEM.DIHEDRAL>
0

>  <SCORE.SYSTEM.SOLV>
0

>  <SCORE.SYSTEM.norm>
0

>  <SCORE.heavy>
34

>  <SCORE.norm>
-0.233951

>  <RMSD>
25.726

$$$$
ligand
 OpenBabel11021811483D
libRbt.so/2013.1/901 2013/11/27
 34 36  0  0  0  0  0  0  0  0999 V2000
   14.8650   21.0013   61.7733 N   0  0  0  0  0  0  0  0  0  0  0  0
   13.4180   20.7037   61.8847 C   0  0  1  0  0  0  0  0  0  0  0  0
   15.7584   20.1686   61.2233 C   0  0  0  0  0  0  0  0  0  0  0  0
   15.4792   19.0632   60.7507 O   0  0  0  0  0  0  0  0  0  0  0  0
   17.8949   25.3299   55.1652 N   0  0  0  0  0  0  0  0  0  0  0  0
   12.8834   20.2069   60.5310 C   0  0  0  0  0  0  0  0  0  0  0  0
   12.7629   21.3521   59.5164 C   0  0  0  0  0  0  0  0  0  0  0  0
   14.1449   21.9013   59.1307 C   0  0  0  0  0  0  0  0  0  0  0  0
   14.7206   21.3671   58.1539 O   0  0  0  0  0  0  0  0  0  0  0  0
   14.5944   22.8455   59.8200 O   0  0  0  0  0  0  0  0  0  0  0  0
   19.6156   25.4360   56.7100 N   0  0  0  0  0  0  0  0  0  0  0  0
   13.4437   18.4649   62.7419 O   0  0  0  0  0  0  0  0  0  0  0  0
   18.3346   25.1602   56.4095 C   0  0  0  0  0  0  0  0  0  0  0  0
   12.5848   20.0744   64.0307 O   0  0  0  0  0  0  0  0  0  0  0  0
   17.4535   24.6944   57.3936 N   0  0  0  0  0  0  0  0  0  0  0  0
   17.9247   24.5165   58.6874 C   0  0  0  0  0  0  0  0  0  0  0  0
   19.2612   24.7800   58.9569 C   0  0  0  0  0  0  0  0  0  0  0  0
   17.1737   24.0993   59.5655 O   0  0  0  0  0  0  0  0  0  0  0  0
   18.9641   24.9695   61.2760 C   0  0  0  0  0  0  0  0  0  0  0  0
   19.7607   24.6821   60.2509 N   0  0  0  0  0  0  0  0  0  0  0  0
   18.8023   26.1344   61.6324 O   0  0  0  0  0  0  0  0  0  0  0  0
   21.1961   24.4618   60.4586 C   0  0  2  0  0  0  0  0  0  0  0  0
   21.9757   25.4712   59.6120 C   0  0  0  0  0  0  0  0  0  0  0  0
   20.0878   25.2698   57.9547 C   0  0  0  0  0  0  0  0  0  0  0  0
   21.4230   25.5768   58.2391 N   0  0  0  0  0  0  0  0  0  0  0  0
   21.5820   23.0317   60.0657 C   0  0  0  0  0  0  0  0  0  0  0  0
   21.0943   22.0913   61.0820 N   0  0  0  0  0  0  0  0  0  0  0  0
   17.1969   20.7144   61.1717 C   0  0  0  0  0  0  0  0  0  0  0  0
   17.7636   21.3226   62.2892 C   0  0  0  0  0  0  0  0  0  0  0  0
   19.0843   21.7661   62.2585 C   0  0  0  0  0  0  0  0  0  0  0  0
   19.8380   21.6469   61.0957 C   0  0  0  0  0  0  0  0  0  0  0  0
   19.2707   21.0479   59.9761 C   0  0  0  0  0  0  0  0  0  0  0  0
   17.9610   20.5718   60.0170 C   0  0  0  0  0  0  0  0  0  0  0  0
   13.1260   19.6556   62.9784 C   0  0  0  0  0  0  0  0  0  0  0  0
  1  3  1  0  0  0  0
  2  1  1  6  0  0  0
  2  6  1  0  0  0  0
  2 34  1  0  0  0  0
  3  4  2  0  0  0  0
  3 28  1  0  0  0  0
  5 13  1  0  0  0  0
  6  7  1  0  0  0  0
  7  8  1  0  0  0  0
  8  9  1  0  0  0  0
  8 10  1  0  0  0  0
 11 13  2  0  0  0  0
 11 24  1  0  0  0  0
 12 34  1  0  0  0  0
 13 15  1  0  0  0  0
 14 34  1  0  0  0  0
 15 16  1  0  0  0  0
 16 17  1  0  0  0  0
 16 18  2  0  0  0  0
 17 20  1  0  0  0  0
 17 24  2  0  0  0  0
 19 21  1  0  0  0  0
 19 20  1  0  0  0  0
 20 22  1  0  0  0  0
 22 23  1  0  0  0  0
 22 26  1  6  0  0  0
 23 25  1  0  0  0  0
 24 25  1  0  0  0  0
 26 27  1  0  0  0  0
 27 31  1  0  0  0  0
 28 29  2  0  0  0  0
 28 33  1  0  0  0  0
 29 30  1  0  0  0  0
 30 31  2  0  0  0  0
 31 32  1  0  0  0  0
 32 33  2  0  0  0  0
M  END
>  <CHROM.1>
-48.37298691,-73.57616991,-72.70177849,66.87078157,89.71155309,-83.03339095
-73.61792932,82.15507355,-126.85573323,46.27416145,17.31560251,22.63214869
60.09951535,-2.48714058,-0.33700634,-0.94819927

>  <Name>
ligand

>  <RI>
0

>  <Rbt.Current_Directory>
/home/itssahil/PROJECTS/Mol_Feturizer/New_Systems/rnas/3SUH

>  <Rbt.Executable>
rbdock ($Id: //depot/dev/client3/rdock/2013.1/src/exe/rbdock.cxx#4 $)

>  <Rbt.Library>
libRbt.so (2013.1, Build901 2013/11/27)

>  <Rbt.Parameter_File>
/export/apps/rDock/src/rDock_2013.1_src/data/scripts/dock_solv.prm

>  <Rbt.Receptor>
prm/blind_docking_80.prm

>  <SCORE>
-14.9828

>  <SCORE.INTER>
-9.2961

>  <SCORE.INTER.CONST>
1

>  <SCORE.INTER.POLAR>
0

>  <SCORE.INTER.ROT>
10

>  <SCORE.INTER.SOLV>
10.6682

>  <SCORE.INTER.VDW>
-20.0201

>  <SCORE.INTER.norm>
-0.273415

>  <SCORE.INTRA>
-5.70331

>  <SCORE.INTRA.DIHEDRAL>
-4.16392

>  <SCORE.INTRA.DIHEDRAL.0>
12.2703

>  <SCORE.INTRA.POLAR>
0

>  <SCORE.INTRA.POLAR.0>
0

>  <SCORE.INTRA.REPUL>
4.13606e-06

>  <SCORE.INTRA.REPUL.0>
0

>  <SCORE.INTRA.SOLV>
0.86476

>  <SCORE.INTRA.SOLV.lig_0>
-64.3214

>  <SCORE.INTRA.VDW>
-4.05375

>  <SCORE.INTRA.VDW.0>
-1.67301

>  <SCORE.INTRA.norm>
-0.167744

>  <SCORE.RESTR>
0.0165868

>  <SCORE.RESTR.CAVITY>
0.0165868

>  <SCORE.RESTR.norm>
0.000487847

>  <SCORE.SYSTEM>
0

>  <SCORE.SYSTEM.CONST>
0

>  <SCORE.SYSTEM.DIHEDRAL>
0

>  <SCORE.SYSTEM.SOLV>
0

>  <SCORE.SYSTEM.norm>
0

>  <SCORE.heavy>
34

>  <SCORE.norm>
-0.440671

>  <RMSD>
25.729

$$$$
ligand
 OpenBabel11021811483D
libRbt.so/2013.1/901 2013/11/27
 34 36  0  0  0  0  0  0  0  0999 V2000
   15.2723   21.0303   59.9862 N   0  0  0  0  0  0  0  0  0  0  0  0
   13.8763   20.5395   59.9150 C   0  0  1  0  0  0  0  0  0  0  0  0
   16.2811   20.3362   60.5290 C   0  0  0  0  0  0  0  0  0  0  0  0
   16.1625   19.2148   61.0307 O   0  0  0  0  0  0  0  0  0  0  0  0
   17.2463   24.0397   56.8496 N   0  0  0  0  0  0  0  0  0  0  0  0
   12.9017   21.7160   60.0919 C   0  0  0  0  0  0  0  0  0  0  0  0
   13.1344   22.8059   59.0368 C   0  0  0  0  0  0  0  0  0  0  0  0
   12.1814   23.9930   59.2437 C   0  0  0  0  0  0  0  0  0  0  0  0
   12.5631   24.9056   60.0135 O   0  0  0  0  0  0  0  0  0  0  0  0
   11.0927   23.9630   58.6252 O   0  0  0  0  0  0  0  0  0  0  0  0
   19.2889   24.5640   57.8043 N   0  0  0  0  0  0  0  0  0  0  0  0
   12.9695   18.7236   58.6391 O   0  0  0  0  0  0  0  0  0  0  0  0
   17.9685   24.3416   57.9255 C   0  0  0  0  0  0  0  0  0  0  0  0
   13.9929   20.3750   57.5371 O   0  0  0  0  0  0  0  0  0  0  0  0
   17.3412   24.4239   59.1750 N   0  0  0  0  0  0  0  0  0  0  0  0
   18.1057   24.7348   60.2914 C   0  0  0  0  0  0  0  0  0  0  0  0
   19.4723   24.9270   60.1365 C   0  0  0  0  0  0  0  0  0  0  0  0
   17.5800   24.8027   61.3996 O   0  0  0  0  0  0  0  0  0  0  0  0
   19.7434   26.0783   62.1621 C   0  0  0  0  0  0  0  0  0  0  0  0
   20.2656   25.3071   61.2133 N   0  0  0  0  0  0  0  0  0  0  0  0
   19.8399   25.7623   63.3458 O   0  0  0  0  0  0  0  0  0  0  0  0
   21.7049   25.0243   61.1881 C   0  0  2  0  0  0  0  0  0  0  0  0
   22.2763   25.5022   59.8507 C   0  0  0  0  0  0  0  0  0  0  0  0
   20.0428   24.8655   58.8723 C   0  0  0  0  0  0  0  0  0  0  0  0
   21.4124   25.1031   58.7124 N   0  0  0  0  0  0  0  0  0  0  0  0
   21.9603   23.5238   61.3666 C   0  0  0  0  0  0  0  0  0  0  0  0
   21.3893   22.7870   60.2324 N   0  0  0  0  0  0  0  0  0  0  0  0
   17.6543   21.0265   60.4423 C   0  0  0  0  0  0  0  0  0  0  0  0
   18.3172   21.4314   61.5984 C   0  0  0  0  0  0  0  0  0  0  0  0
   19.5845   22.0056   61.5217 C   0  0  0  0  0  0  0  0  0  0  0  0
   20.1834   22.2224   60.2853 C   0  0  0  0  0  0  0  0  0  0  0  0
   19.5190   21.8268   59.1292 C   0  0  0  0  0  0  0  0  0  0  0  0
   18.2664   21.2198   59.2071 C   0  0  0  0  0  0  0  0  0  0  0  0
   13.5855   19.8155   58.5842 C   0  0  0  0  0  0  0  0  0  0  0  0
  1  3  1  0  0  0  0
  2  1  1  6  0  0  0
  2  6  1  0  0  0  0
  2 34  1  0  0  0  0
  3  4  2  0  0  0  0
  3 28  1  0  0  0  0
  5 13  1  0  0  0  0
  6  7  1  0  0  0  0
  7  8  1  0  0  0  0
  8  9  1  0  0  0  0
  8 10  1  0  0  0  0
 11 13  2  0  0  0  0
 11 24  1  0  0  0  0
 12 34  1  0  0  0  0
 13 15  1  0  0  0  0
 14 34  1  0  0  0  0
 15 16  1  0  0  0  0
 16 17  1  0  0  0  0
 16 18  2  0  0  0  0
 17 20  1  0  0  0  0
 17 24  2  0  0  0  0
 19 21  1  0  0  0  0
 19 20  1  0  0  0  0
 20 22  1  0  0  0  0
 22 23  1  0  0  0  0
 22 26  1  6  0  0  0
 23 25  1  0  0  0  0
 24 25  1  0  0  0  0
 26 27  1  0  0  0  0
 27 31  1  0  0  0  0
 28 29  2  0  0  0  0
 28 33  1  0  0  0  0
 29 30  1  0  0  0  0
 30 31  2  0  0  0  0
 31 32  1  0  0  0  0
 32 33  2  0  0  0  0
M  END
>  <CHROM.1>
144.82069535,57.54283009,134.42744340,-178.51001066,88.32053509,128.96409190
63.79599032,-96.41507518,-17.30481366,115.12633384,17.34892232,23.04253511
59.88701043,-2.75244847,-0.19527947,-0.00825248

>  <Name>
ligand

>  <RI>
0

>  <Rbt.Current_Directory>
/home/itssahil/PROJECTS/Mol_Feturizer/New_Systems/rnas/3SUH

>  <Rbt.Executable>
rbdock ($Id: //depot/dev/client3/rdock/2013.1/src/exe/rbdock.cxx#4 $)

>  <Rbt.Library>
libRbt.so (2013.1, Build901 2013/11/27)

>  <Rbt.Parameter_File>
/export/apps/rDock/src/rDock_2013.1_src/data/scripts/dock_solv.prm

>  <Rbt.Receptor>
prm/blind_docking_80.prm

>  <SCORE>
-14.0353

>  <SCORE.INTER>
-9.74279

>  <SCORE.INTER.CONST>
1

>  <SCORE.INTER.POLAR>
0

>  <SCORE.INTER.ROT>
10

>  <SCORE.INTER.SOLV>
9.65208

>  <SCORE.INTER.VDW>
-19.9792

>  <SCORE.INTER.norm>
-0.286553

>  <SCORE.INTRA>
-4.29255

>  <SCORE.INTRA.DIHEDRAL>
-4.24685

>  <SCORE.INTRA.DIHEDRAL.0>
12.2703

>  <SCORE.INTRA.POLAR>
0

>  <SCORE.INTRA.POLAR.0>
0

>  <SCORE.INTRA.REPUL>
0

>  <SCORE.INTRA.REPUL.0>
0

>  <SCORE.INTRA.SOLV>
2.50115

>  <SCORE.INTRA.SOLV.lig_0>
-64.3214

>  <SCORE.INTRA.VDW>
-3.4197

>  <SCORE.INTRA.VDW.0>
-1.67301

>  <SCORE.INTRA.norm>
-0.126251

>  <SCORE.RESTR>
0

>  <SCORE.RESTR.CAVITY>
0

>  <SCORE.RESTR.norm>
0

>  <SCORE.SYSTEM>
0

>  <SCORE.SYSTEM.CONST>
0

>  <SCORE.SYSTEM.DIHEDRAL>
0

>  <SCORE.SYSTEM.SOLV>
0

>  <SCORE.SYSTEM.norm>
0

>  <SCORE.heavy>
34

>  <SCORE.norm>
-0.412804

>  <RMSD>
25.755

$$$$
ligand
 OpenBabel11021811483D
libRbt.so/2013.1/901 2013/11/27
 34 36  0  0  0  0  0  0  0  0999 V2000
   15.0026   21.2880   59.8592 N   0  0  0  0  0  0  0  0  0  0  0  0
   13.5998   21.0690   59.4360 C   0  0  1  0  0  0  0  0  0  0  0  0
   15.7458   20.3668   60.4861 C   0  0  0  0  0  0  0  0  0  0  0  0
   15.3478   19.2368   60.7826 O   0  0  0  0  0  0  0  0  0  0  0  0
   17.3935   25.5220   56.5397 N   0  0  0  0  0  0  0  0  0  0  0  0
   13.0728   22.3207   58.7142 C   0  0  0  0  0  0  0  0  0  0  0  0
   13.0197   23.5337   59.6528 C   0  0  0  0  0  0  0  0  0  0  0  0
   14.3332   24.3294   59.6084 C   0  0  0  0  0  0  0  0  0  0  0  0
   15.3461   23.7902   60.1125 O   0  0  0  0  0  0  0  0  0  0  0  0
   14.2959   25.4590   59.0685 O   0  0  0  0  0  0  0  0  0  0  0  0
   19.4537   25.3913   57.5870 N   0  0  0  0  0  0  0  0  0  0  0  0
   12.8958   18.8210   58.9903 O   0  0  0  0  0  0  0  0  0  0  0  0
   18.1118   25.3326   57.6436 C   0  0  0  0  0  0  0  0  0  0  0  0
   13.9247   19.9439   57.3565 O   0  0  0  0  0  0  0  0  0  0  0  0
   17.4577   25.0734   58.8546 N   0  0  0  0  0  0  0  0  0  0  0  0
   18.2177   24.8725   59.9990 C   0  0  0  0  0  0  0  0  0  0  0  0
   19.6024   24.9080   59.8997 C   0  0  0  0  0  0  0  0  0  0  0  0
   17.6673   24.6335   61.0709 O   0  0  0  0  0  0  0  0  0  0  0  0
   19.9588   25.2490   62.1930 C   0  0  0  0  0  0  0  0  0  0  0  0
   20.4020   24.7808   61.0301 N   0  0  0  0  0  0  0  0  0  0  0  0
   20.2511   24.6845   63.2447 O   0  0  0  0  0  0  0  0  0  0  0  0
   21.7877   24.3203   60.8892 C   0  0  2  0  0  0  0  0  0  0  0  0
   22.4677   25.1380   59.7881 C   0  0  0  0  0  0  0  0  0  0  0  0
   20.2036   25.1996   58.6828 C   0  0  0  0  0  0  0  0  0  0  0  0
   21.5978   25.2787   58.5943 N   0  0  0  0  0  0  0  0  0  0  0  0
   21.8247   22.8286   60.5398 C   0  0  0  0  0  0  0  0  0  0  0  0
   21.0556   22.0691   61.5333 N   0  0  0  0  0  0  0  0  0  0  0  0
   17.1925   20.8024   60.7812 C   0  0  0  0  0  0  0  0  0  0  0  0
   18.1511   20.8046   59.7708 C   0  0  0  0  0  0  0  0  0  0  0  0
   19.4458   21.2519   60.0263 C   0  0  0  0  0  0  0  0  0  0  0  0
   19.8081   21.6594   61.3058 C   0  0  0  0  0  0  0  0  0  0  0  0
   18.8545   21.6494   62.3182 C   0  0  0  0  0  0  0  0  0  0  0  0
   17.5494   21.2357   62.0551 C   0  0  0  0  0  0  0  0  0  0  0  0
   13.4588   19.8378   58.5173 C   0  0  0  0  0  0  0  0  0  0  0  0
  1  3  1  0  0  0  0
  2  1  1  6  0  0  0
  2  6  1  0  0  0  0
  2 34  1  0  0  0  0
  3  4  2  0  0  0  0
  3 28  1  0  0  0  0
  5 13  1  0  0  0  0
  6  7  1  0  0  0  0
  7  8  1  0  0  0  0
  8  9  1  0  0  0  0
  8 10  1  0  0  0  0
 11 13  2  0  0  0  0
 11 24  1  0  0  0  0
 12 34  1  0  0  0  0
 13 15  1  0  0  0  0
 14 34  1  0  0  0  0
 15 16  1  0  0  0  0
 16 17  1  0  0  0  0
 16 18  2  0  0  0  0
 17 20  1  0  0  0  0
 17 24  2  0  0  0  0
 19 21  1  0  0  0  0
 19 20  1  0  0  0  0
 20 22  1  0  0  0  0
 22 23  1  0  0  0  0
 22 26  1  6  0  0  0
 23 25  1  0  0  0  0
 24 25  1  0  0  0  0
 26 27  1  0  0  0  0
 27 31  1  0  0  0  0
 28 29  2  0  0  0  0
 28 33  1  0  0  0  0
 29 30  1  0  0  0  0
 30 31  2  0  0  0  0
 31 32  1  0  0  0  0
 32 33  2  0  0  0  0
M  END
>  <CHROM.1>
-178.43098499,-64.02247393,108.69576829,90.58770113,-69.73387141,146.48132838
-54.24634315,99.82639042,35.89798738,-77.42795672,17.53649697,23.03216358
59.90438079,-2.80175021,-0.37168869,-0.46924278

>  <Name>
ligand

>  <RI>
0

>  <Rbt.Current_Directory>
/home/itssahil/PROJECTS/Mol_Feturizer/New_Systems/rnas/3SUH

>  <Rbt.Executable>
rbdock ($Id: //depot/dev/client3/rdock/2013.1/src/exe/rbdock.cxx#4 $)

>  <Rbt.Library>
libRbt.so (2013.1, Build901 2013/11/27)

>  <Rbt.Parameter_File>
/export/apps/rDock/src/rDock_2013.1_src/data/scripts/dock_solv.prm

>  <Rbt.Receptor>
prm/blind_docking_80.prm

>  <SCORE>
-13.2994

>  <SCORE.INTER>
-8.62281

>  <SCORE.INTER.CONST>
1

>  <SCORE.INTER.POLAR>
0

>  <SCORE.INTER.ROT>
10

>  <SCORE.INTER.SOLV>
9.60474

>  <SCORE.INTER.VDW>
-19.2168

>  <SCORE.INTER.norm>
-0.253612

>  <SCORE.INTRA>
-4.67663

>  <SCORE.INTRA.DIHEDRAL>
-1.94323

>  <SCORE.INTRA.DIHEDRAL.0>
12.2703

>  <SCORE.INTRA.POLAR>
0

>  <SCORE.INTRA.POLAR.0>
0

>  <SCORE.INTRA.REPUL>
0

>  <SCORE.INTRA.REPUL.0>
0

>  <SCORE.INTRA.SOLV>
1.18103

>  <SCORE.INTRA.SOLV.lig_0>
-64.3214

>  <SCORE.INTRA.VDW>
-4.29553

>  <SCORE.INTRA.VDW.0>
-1.67301

>  <SCORE.INTRA.norm>
-0.137548

>  <SCORE.RESTR>
0

>  <SCORE.RESTR.CAVITY>
0

>  <SCORE.RESTR.norm>
0

>  <SCORE.SYSTEM>
0

>  <SCORE.SYSTEM.CONST>
0

>  <SCORE.SYSTEM.DIHEDRAL>
0

>  <SCORE.SYSTEM.SOLV>
0

>  <SCORE.SYSTEM.norm>
0

>  <SCORE.heavy>
34

>  <SCORE.norm>
-0.39116

>  <RMSD>
25.755

$$$$
ligand
 OpenBabel11021811483D
libRbt.so/2013.1/901 2013/11/27
 34 36  0  0  0  0  0  0  0  0999 V2000
   20.2114   22.9747   60.1092 N   0  0  0  0  0  0  0  0  0  0  0  0
   21.6832   22.8257   60.0275 C   0  0  1  0  0  0  0  0  0  0  0  0
   19.3557   22.4236   59.2385 C   0  0  0  0  0  0  0  0  0  0  0  0
   19.6945   21.7338   58.2728 O   0  0  0  0  0  0  0  0  0  0  0  0
   17.0774   27.0456   57.8378 N   0  0  0  0  0  0  0  0  0  0  0  0
   22.3164   24.1542   59.5811 C   0  0  0  0  0  0  0  0  0  0  0  0
   21.5732   25.3606   60.1706 C   0  0  0  0  0  0  0  0  0  0  0  0
   21.6227   25.3485   61.7061 C   0  0  0  0  0  0  0  0  0  0  0  0
   20.6862   24.7685   62.3041 O   0  0  0  0  0  0  0  0  0  0  0  0
   22.5978   25.9175   62.2483 O   0  0  0  0  0  0  0  0  0  0  0  0
   14.9581   26.2250   58.2778 N   0  0  0  0  0  0  0  0  0  0  0  0
   23.5336   22.5143   61.5198 O   0  0  0  0  0  0  0  0  0  0  0  0
   16.1833   26.0643   57.7482 C   0  0  0  0  0  0  0  0  0  0  0  0
   21.5014   21.9125   62.2249 O   0  0  0  0  0  0  0  0  0  0  0  0
   16.5319   24.8722   57.1009 N   0  0  0  0  0  0  0  0  0  0  0  0
   15.5924   23.8533   57.0179 C   0  0  0  0  0  0  0  0  0  0  0  0
   14.3471   24.0395   57.6034 C   0  0  0  0  0  0  0  0  0  0  0  0
   15.8780   22.7946   56.4641 O   0  0  0  0  0  0  0  0  0  0  0  0
   13.2953   22.3345   56.3832 C   0  0  0  0  0  0  0  0  0  0  0  0
   13.3524   23.0751   57.4860 N   0  0  0  0  0  0  0  0  0  0  0  0
   12.3919   21.5159   56.2279 O   0  0  0  0  0  0  0  0  0  0  0  0
   12.2719   23.0244   58.4770 C   0  0  2  0  0  0  0  0  0  0  0  0
   11.6959   24.4324   58.6484 C   0  0  0  0  0  0  0  0  0  0  0  0
   14.0381   25.2511   58.2067 C   0  0  0  0  0  0  0  0  0  0  0  0
   12.7676   25.4528   58.7571 N   0  0  0  0  0  0  0  0  0  0  0  0
   12.7977   22.5010   59.8180 C   0  0  0  0  0  0  0  0  0  0  0  0
   13.8665   23.3805   60.3070 N   0  0  0  0  0  0  0  0  0  0  0  0
   17.8698   22.6721   59.5551 C   0  0  0  0  0  0  0  0  0  0  0  0
   17.4300   23.9362   59.9403 C   0  0  0  0  0  0  0  0  0  0  0  0
   16.0766   24.1729   60.1725 C   0  0  0  0  0  0  0  0  0  0  0  0
   15.1544   23.1373   60.0658 C   0  0  0  0  0  0  0  0  0  0  0  0
   15.5931   21.8722   59.6899 C   0  0  0  0  0  0  0  0  0  0  0  0
   16.9420   21.6428   59.4227 C   0  0  0  0  0  0  0  0  0  0  0  0
   22.2945   22.3813   61.3723 C   0  0  0  0  0  0  0  0  0  0  0  0
  1  3  1  0  0  0  0
  2  1  1  1  0  0  0
  2  6  1  0  0  0  0
  2 34  1  0  0  0  0
  3  4  2  0  0  0  0
  3 28  1  0  0  0  0
  5 13  1  0  0  0  0
  6  7  1  0  0  0  0
  7  8  1  0  0  0  0
  8  9  1  0  0  0  0
  8 10  1  0  0  0  0
 11 13  2  0  0  0  0
 11 24  1  0  0  0  0
 12 34  1  0  0  0  0
 13 15  1  0  0  0  0
 14 34  1  0  0  0  0
 15 16  1  0  0  0  0
 16 17  1  0  0  0  0
 16 18  2  0  0  0  0
 17 20  1  0  0  0  0
 17 24  2  0  0  0  0
 19 21  1  0  0  0  0
 19 20  1  0  0  0  0
 20 22  1  0  0  0  0
 22 23  1  0  0  0  0
 22 26  1  1  0  0  0
 23 25  1  0  0  0  0
 24 25  1  0  0  0  0
 26 27  1  0  0  0  0
 27 31  1  0  0  0  0
 28 29  2  0  0  0  0
 28 33  1  0  0  0  0
 29 30  1  0  0  0  0
 30 31  2  0  0  0  0
 31 32  1  0  0  0  0
 32 33  2  0  0  0  0
M  END
>  <CHROM.1>
107.98313608,36.23381026,-164.08785958,61.23982231,-91.11363496,-176.79654289
59.33662710,-94.01594217,160.02382221,44.00427261,17.22495780,23.68278803
59.24726934,-0.03677666,0.35674919,-3.07380927

>  <Name>
ligand

>  <RI>
0

>  <Rbt.Current_Directory>
/home/itssahil/PROJECTS/Mol_Feturizer/New_Systems/rnas/3SUH

>  <Rbt.Executable>
rbdock ($Id: //depot/dev/client3/rdock/2013.1/src/exe/rbdock.cxx#4 $)

>  <Rbt.Library>
libRbt.so (2013.1, Build901 2013/11/27)

>  <Rbt.Parameter_File>
/export/apps/rDock/src/rDock_2013.1_src/data/scripts/dock_solv.prm

>  <Rbt.Receptor>
prm/blind_docking_80.prm

>  <SCORE>
-7.16366

>  <SCORE.INTER>
-4.81511

>  <SCORE.INTER.CONST>
1

>  <SCORE.INTER.POLAR>
0

>  <SCORE.INTER.ROT>
10

>  <SCORE.INTER.SOLV>
13.95

>  <SCORE.INTER.VDW>
-18.1267

>  <SCORE.INTER.norm>
-0.141621

>  <SCORE.INTRA>
-2.34855

>  <SCORE.INTRA.DIHEDRAL>
-2.12994

>  <SCORE.INTRA.DIHEDRAL.0>
12.2703

>  <SCORE.INTRA.POLAR>
0

>  <SCORE.INTRA.POLAR.0>
0

>  <SCORE.INTRA.REPUL>
0

>  <SCORE.INTRA.REPUL.0>
0

>  <SCORE.INTRA.SOLV>
2.99324

>  <SCORE.INTRA.SOLV.lig_0>
-64.3214

>  <SCORE.INTRA.VDW>
-2.7802

>  <SCORE.INTRA.VDW.0>
-1.67301

>  <SCORE.INTRA.norm>
-0.0690751

>  <SCORE.RESTR>
0

>  <SCORE.RESTR.CAVITY>
0

>  <SCORE.RESTR.norm>
0

>  <SCORE.SYSTEM>
0

>  <SCORE.SYSTEM.CONST>
0

>  <SCORE.SYSTEM.DIHEDRAL>
0

>  <SCORE.SYSTEM.SOLV>
0

>  <SCORE.SYSTEM.norm>
0

>  <SCORE.heavy>
34

>  <SCORE.norm>
-0.210696

>  <RMSD>
25.790

$$$$
ligand
 OpenBabel11021811483D
libRbt.so/2013.1/901 2013/11/27
 34 36  0  0  0  0  0  0  0  0999 V2000
   14.8490   20.4739   60.1141 N   0  0  0  0  0  0  0  0  0  0  0  0
   13.4938   19.9365   59.8508 C   0  0  1  0  0  0  0  0  0  0  0  0
   15.8665   19.7380   60.5803 C   0  0  0  0  0  0  0  0  0  0  0  0
   15.7905   18.5347   60.8439 O   0  0  0  0  0  0  0  0  0  0  0  0
   18.5011   26.4093   58.1513 N   0  0  0  0  0  0  0  0  0  0  0  0
   12.4614   21.0746   59.9151 C   0  0  0  0  0  0  0  0  0  0  0  0
   12.6807   22.1002   58.7947 C   0  0  0  0  0  0  0  0  0  0  0  0
   14.0412   22.7993   58.9388 C   0  0  0  0  0  0  0  0  0  0  0  0
   14.1891   23.5667   59.9187 O   0  0  0  0  0  0  0  0  0  0  0  0
   14.9047   22.5486   58.0669 O   0  0  0  0  0  0  0  0  0  0  0  0
   20.3400   25.5659   59.2764 N   0  0  0  0  0  0  0  0  0  0  0  0
   12.8632   18.1002   58.4443 O   0  0  0  0  0  0  0  0  0  0  0  0
   19.0809   26.0371   59.2896 C   0  0  0  0  0  0  0  0  0  0  0  0
   13.8969   19.8409   57.5005 O   0  0  0  0  0  0  0  0  0  0  0  0
   18.3689   26.1414   60.4912 N   0  0  0  0  0  0  0  0  0  0  0  0
   18.9823   25.7454   61.6721 C   0  0  0  0  0  0  0  0  0  0  0  0
   20.2720   25.2333   61.6193 C   0  0  0  0  0  0  0  0  0  0  0  0
   18.3746   25.8179   62.7373 O   0  0  0  0  0  0  0  0  0  0  0  0
   20.7168   25.5758   63.8968 C   0  0  0  0  0  0  0  0  0  0  0  0
   20.9507   24.8886   62.7829 N   0  0  0  0  0  0  0  0  0  0  0  0
   20.5882   24.9952   64.9723 O   0  0  0  0  0  0  0  0  0  0  0  0
   22.0484   23.9174   62.7206 C   0  0  2  0  0  0  0  0  0  0  0  0
   23.0011   24.3241   61.5935 C   0  0  0  0  0  0  0  0  0  0  0  0
   20.9481   25.1789   60.4080 C   0  0  0  0  0  0  0  0  0  0  0  0
   22.2634   24.7038   60.3634 N   0  0  0  0  0  0  0  0  0  0  0  0
   21.5037   22.5071   62.4697 C   0  0  0  0  0  0  0  0  0  0  0  0
   20.8023   22.4703   61.1805 N   0  0  0  0  0  0  0  0  0  0  0  0
   17.1955   20.5009   60.7265 C   0  0  0  0  0  0  0  0  0  0  0  0
   17.4566   21.2557   61.8675 C   0  0  0  0  0  0  0  0  0  0  0  0
   18.6821   21.9003   62.0231 C   0  0  0  0  0  0  0  0  0  0  0  0
   19.6425   21.8341   61.0193 C   0  0  0  0  0  0  0  0  0  0  0  0
   19.3801   21.0881   59.8752 C   0  0  0  0  0  0  0  0  0  0  0  0
   18.1681   20.4137   59.7344 C   0  0  0  0  0  0  0  0  0  0  0  0
   13.4081   19.2299   58.4821 C   0  0  0  0  0  0  0  0  0  0  0  0
  1  3  1  0  0  0  0
  2  1  1  6  0  0  0
  2  6  1  0  0  0  0
  2 34  1  0  0  0  0
  3  4  2  0  0  0  0
  3 28  1  0  0  0  0
  5 13  1  0  0  0  0
  6  7  1  0  0  0  0
  7  8  1  0  0  0  0
  8  9  1  0  0  0  0
  8 10  1  0  0  0  0
 11 13  2  0  0  0  0
 11 24  1  0  0  0  0
 12 34  1  0  0  0  0
 13 15  1  0  0  0  0
 14 34  1  0  0  0  0
 15 16  1  0  0  0  0
 16 17  1  0  0  0  0
 16 18  2  0  0  0  0
 17 20  1  0  0  0  0
 17 24  2  0  0  0  0
 19 21  1  0  0  0  0
 19 20  1  0  0  0  0
 20 22  1  0  0  0  0
 22 23  1  0  0  0  0
 22 26  1  6  0  0  0
 23 25  1  0  0  0  0
 24 25  1  0  0  0  0
 26 27  1  0  0  0  0
 27 31  1  0  0  0  0
 28 29  2  0  0  0  0
 28 33  1  0  0  0  0
 29 30  1  0  0  0  0
 30 31  2  0  0  0  0
 31 32  1  0  0  0  0
 32 33  2  0  0  0  0
M  END
>  <CHROM.1>
155.93791921,65.13984445,132.54490144,-63.47503360,-68.05256792,137.09045148
61.45329332,-137.68795644,39.63778230,83.99317410,17.74795124,22.77781674
60.59420254,-2.69920001,-0.50030262,-0.24710002

>  <Name>
ligand

>  <RI>
0

>  <Rbt.Current_Directory>
/home/itssahil/PROJECTS/Mol_Feturizer/New_Systems/rnas/3SUH

>  <Rbt.Executable>
rbdock ($Id: //depot/dev/client3/rdock/2013.1/src/exe/rbdock.cxx#4 $)

>  <Rbt.Library>
libRbt.so (2013.1, Build901 2013/11/27)

>  <Rbt.Parameter_File>
/export/apps/rDock/src/rDock_2013.1_src/data/scripts/dock_solv.prm

>  <Rbt.Receptor>
prm/blind_docking_80.prm

>  <SCORE>
-11.6636

>  <SCORE.INTER>
-8.52669

>  <SCORE.INTER.CONST>
1

>  <SCORE.INTER.POLAR>
0

>  <SCORE.INTER.ROT>
10

>  <SCORE.INTER.SOLV>
10.5813

>  <SCORE.INTER.VDW>
-19.4782

>  <SCORE.INTER.norm>
-0.250785

>  <SCORE.INTRA>
-3.13693

>  <SCORE.INTRA.DIHEDRAL>
-4.42284

>  <SCORE.INTRA.DIHEDRAL.0>
12.2703

>  <SCORE.INTRA.POLAR>
0

>  <SCORE.INTRA.POLAR.0>
0

>  <SCORE.INTRA.REPUL>
0

>  <SCORE.INTRA.REPUL.0>
0

>  <SCORE.INTRA.SOLV>
2.18273

>  <SCORE.INTRA.SOLV.lig_0>
-64.3214

>  <SCORE.INTRA.VDW>
-2.01688

>  <SCORE.INTRA.VDW.0>
-1.67301

>  <SCORE.INTRA.norm>
-0.0922627

>  <SCORE.RESTR>
0

>  <SCORE.RESTR.CAVITY>
0

>  <SCORE.RESTR.norm>
0

>  <SCORE.SYSTEM>
0

>  <SCORE.SYSTEM.CONST>
0

>  <SCORE.SYSTEM.DIHEDRAL>
0

>  <SCORE.SYSTEM.SOLV>
0

>  <SCORE.SYSTEM.norm>
0

>  <SCORE.heavy>
34

>  <SCORE.norm>
-0.343048

>  <RMSD>
25.811

$$$$
ligand
 OpenBabel11021811483D
libRbt.so/2013.1/901 2013/11/27
 34 36  0  0  0  0  0  0  0  0999 V2000
   15.8312   22.5734   57.0569 N   0  0  0  0  0  0  0  0  0  0  0  0
   15.3333   22.4517   55.6670 C   0  0  1  0  0  0  0  0  0  0  0  0
   16.7263   23.4882   57.4520 C   0  0  0  0  0  0  0  0  0  0  0  0
   17.2368   24.3286   56.7061 O   0  0  0  0  0  0  0  0  0  0  0  0
   22.3357   25.5190   58.0230 N   0  0  0  0  0  0  0  0  0  0  0  0
   14.5655   21.1291   55.5035 C   0  0  0  0  0  0  0  0  0  0  0  0
   13.4391   20.9983   56.5376 C   0  0  0  0  0  0  0  0  0  0  0  0
   12.8361   19.5853   56.5275 C   0  0  0  0  0  0  0  0  0  0  0  0
   12.3078   19.1964   55.4594 O   0  0  0  0  0  0  0  0  0  0  0  0
   12.9189   18.9238   57.5878 O   0  0  0  0  0  0  0  0  0  0  0  0
   22.2217   25.0183   60.2801 N   0  0  0  0  0  0  0  0  0  0  0  0
   13.7394   24.1682   56.1778 O   0  0  0  0  0  0  0  0  0  0  0  0
   21.6687   25.5456   59.1740 C   0  0  0  0  0  0  0  0  0  0  0  0
   14.4382   23.9774   54.0649 O   0  0  0  0  0  0  0  0  0  0  0  0
   20.3941   26.1245   59.2180 N   0  0  0  0  0  0  0  0  0  0  0  0
   19.7055   26.1421   60.4234 C   0  0  0  0  0  0  0  0  0  0  0  0
   20.2919   25.5603   61.5397 C   0  0  0  0  0  0  0  0  0  0  0  0
   18.5820   26.6352   60.4849 O   0  0  0  0  0  0  0  0  0  0  0  0
   18.9238   26.6724   63.0869 C   0  0  0  0  0  0  0  0  0  0  0  0
   19.6700   25.6150   62.7821 N   0  0  0  0  0  0  0  0  0  0  0  0
   18.1865   26.6528   64.0700 O   0  0  0  0  0  0  0  0  0  0  0  0
   20.0028   24.6157   63.8034 C   0  0  2  0  0  0  0  0  0  0  0  0
   21.5261   24.5228   63.9220 C   0  0  0  0  0  0  0  0  0  0  0  0
   21.5706   25.0266   61.4532 C   0  0  0  0  0  0  0  0  0  0  0  0
   22.1775   24.4807   62.5896 N   0  0  0  0  0  0  0  0  0  0  0  0
   19.4170   23.2500   63.4289 C   0  0  0  0  0  0  0  0  0  0  0  0
   18.0313   23.4148   62.9729 N   0  0  0  0  0  0  0  0  0  0  0  0
   17.0542   23.4569   58.9558 C   0  0  0  0  0  0  0  0  0  0  0  0
   17.8265   22.4286   59.4905 C   0  0  0  0  0  0  0  0  0  0  0  0
   18.1691   22.4313   60.8412 C   0  0  0  0  0  0  0  0  0  0  0  0
   17.7054   23.4384   61.6810 C   0  0  0  0  0  0  0  0  0  0  0  0
   16.9266   24.4614   61.1504 C   0  0  0  0  0  0  0  0  0  0  0  0
   16.6131   24.4785   59.7921 C   0  0  0  0  0  0  0  0  0  0  0  0
   14.4256   23.6350   55.2725 C   0  0  0  0  0  0  0  0  0  0  0  0
  1  3  1  0  0  0  0
  2  1  1  1  0  0  0
  2  6  1  0  0  0  0
  2 34  1  0  0  0  0
  3  4  2  0  0  0  0
  3 28  1  0  0  0  0
  5 13  1  0  0  0  0
  6  7  1  0  0  0  0
  7  8  1  0  0  0  0
  8  9  1  0  0  0  0
  8 10  1  0  0  0  0
 11 13  2  0  0  0  0
 11 24  1  0  0  0  0
 12 34  1  0  0  0  0
 13 15  1  0  0  0  0
 14 34  1  0  0  0  0
 15 16  1  0  0  0  0
 16 17  1  0  0  0  0
 16 18  2  0  0  0  0
 17 20  1  0  0  0  0
 17 24  2  0  0  0  0
 19 21  1  0  0  0  0
 19 20  1  0  0  0  0
 20 22  1  0  0  0  0
 22 23  1  0  0  0  0
 22 26  1  6  0  0  0
 23 25  1  0  0  0  0
 24 25  1  0  0  0  0
 26 27  1  0  0  0  0
 27 31  1  0  0  0  0
 28 29  2  0  0  0  0
 28 33  1  0  0  0  0
 29 30  1  0  0  0  0
 30 31  2  0  0  0  0
 31 32  1  0  0  0  0
 32 33  2  0  0  0  0
M  END
>  <CHROM.1>
167.83084643,54.91214330,-31.38735607,-170.28770646,-60.87747352,167.69494113
-44.90912192,99.74864284,50.29562773,72.75008576,17.65314621,23.81072329
59.45194892,-2.58598171,0.66527357,1.79798449

>  <Name>
ligand

>  <RI>
0

>  <Rbt.Current_Directory>
/home/itssahil/PROJECTS/Mol_Feturizer/New_Systems/rnas/3SUH

>  <Rbt.Executable>
rbdock ($Id: //depot/dev/client3/rdock/2013.1/src/exe/rbdock.cxx#4 $)

>  <Rbt.Library>
libRbt.so (2013.1, Build901 2013/11/27)

>  <Rbt.Parameter_File>
/export/apps/rDock/src/rDock_2013.1_src/data/scripts/dock_solv.prm

>  <Rbt.Receptor>
prm/blind_docking_80.prm

>  <SCORE>
-6.38195

>  <SCORE.INTER>
-1.82857

>  <SCORE.INTER.CONST>
1

>  <SCORE.INTER.POLAR>
0

>  <SCORE.INTER.ROT>
10

>  <SCORE.INTER.SOLV>
13.966

>  <SCORE.INTER.VDW>
-16.1411

>  <SCORE.INTER.norm>
-0.0537816

>  <SCORE.INTRA>
-4.63096

>  <SCORE.INTRA.DIHEDRAL>
-3.75097

>  <SCORE.INTRA.DIHEDRAL.0>
12.2703

>  <SCORE.INTRA.POLAR>
0

>  <SCORE.INTRA.POLAR.0>
0

>  <SCORE.INTRA.REPUL>
0

>  <SCORE.INTRA.REPUL.0>
0

>  <SCORE.INTRA.SOLV>
0.82765

>  <SCORE.INTRA.SOLV.lig_0>
-64.3214

>  <SCORE.INTRA.VDW>
-3.1693

>  <SCORE.INTRA.VDW.0>
-1.67301

>  <SCORE.INTRA.norm>
-0.136205

>  <SCORE.RESTR>
0.0775866

>  <SCORE.RESTR.CAVITY>
0.0775866

>  <SCORE.RESTR.norm>
0.00228196

>  <SCORE.SYSTEM>
0

>  <SCORE.SYSTEM.CONST>
0

>  <SCORE.SYSTEM.DIHEDRAL>
0

>  <SCORE.SYSTEM.SOLV>
0

>  <SCORE.SYSTEM.norm>
0

>  <SCORE.heavy>
34

>  <SCORE.norm>
-0.187704

>  <RMSD>
25.827

$$$$
ligand
 OpenBabel11021811483D
libRbt.so/2013.1/901 2013/11/27
 34 36  0  0  0  0  0  0  0  0999 V2000
   19.7833   25.8288   59.8530 N   0  0  0  0  0  0  0  0  0  0  0  0
   20.7227   25.9445   60.9928 C   0  0  1  0  0  0  0  0  0  0  0  0
   19.8349   26.6031   58.7613 C   0  0  0  0  0  0  0  0  0  0  0  0
   20.6660   27.4978   58.5824 O   0  0  0  0  0  0  0  0  0  0  0  0
   19.5885   21.8187   58.9534 N   0  0  0  0  0  0  0  0  0  0  0  0
   20.1111   25.2846   62.2400 C   0  0  0  0  0  0  0  0  0  0  0  0
   21.0172   25.4484   63.4677 C   0  0  0  0  0  0  0  0  0  0  0  0
   20.5345   24.5752   64.6359 C   0  0  0  0  0  0  0  0  0  0  0  0
   20.5889   25.0748   65.7842 O   0  0  0  0  0  0  0  0  0  0  0  0
   20.1190   23.4277   64.3545 O   0  0  0  0  0  0  0  0  0  0  0  0
   18.1308   21.6328   57.1650 N   0  0  0  0  0  0  0  0  0  0  0  0
   22.9427   26.0121   60.0900 O   0  0  0  0  0  0  0  0  0  0  0  0
   18.5017   22.2348   58.3084 C   0  0  0  0  0  0  0  0  0  0  0  0
   22.2518   24.1129   61.0411 O   0  0  0  0  0  0  0  0  0  0  0  0
   17.7559   23.2988   58.8310 N   0  0  0  0  0  0  0  0  0  0  0  0
   16.6266   23.7276   58.1467 C   0  0  0  0  0  0  0  0  0  0  0  0
   16.2893   23.1053   56.9520 C   0  0  0  0  0  0  0  0  0  0  0  0
   15.9619   24.6656   58.5799 O   0  0  0  0  0  0  0  0  0  0  0  0
   14.0653   23.8508   56.9589 C   0  0  0  0  0  0  0  0  0  0  0  0
   15.1301   23.4547   56.2682 N   0  0  0  0  0  0  0  0  0  0  0  0
   13.2340   23.0329   57.3467 O   0  0  0  0  0  0  0  0  0  0  0  0
   15.0319   23.1932   54.8280 C   0  0  2  0  0  0  0  0  0  0  0  0
   15.4462   21.7437   54.5623 C   0  0  0  0  0  0  0  0  0  0  0  0
   17.0425   22.0341   56.4907 C   0  0  0  0  0  0  0  0  0  0  0  0
   16.6752   21.3798   55.3097 N   0  0  0  0  0  0  0  0  0  0  0  0
   15.9344   24.1533   54.0455 C   0  0  0  0  0  0  0  0  0  0  0  0
   16.0032   25.4444   54.7409 N   0  0  0  0  0  0  0  0  0  0  0  0
   18.7877   26.2646   57.6849 C   0  0  0  0  0  0  0  0  0  0  0  0
   17.5401   26.8837   57.6918 C   0  0  0  0  0  0  0  0  0  0  0  0
   16.6140   26.6178   56.6852 C   0  0  0  0  0  0  0  0  0  0  0  0
   16.9083   25.6962   55.6860 C   0  0  0  0  0  0  0  0  0  0  0  0
   18.1504   25.0704   55.6826 C   0  0  0  0  0  0  0  0  0  0  0  0
   19.0911   25.3624   56.6692 C   0  0  0  0  0  0  0  0  0  0  0  0
   22.0913   25.3046   60.6809 C   0  0  0  0  0  0  0  0  0  0  0  0
  1  3  1  0  0  0  0
  2  1  1  6  0  0  0
  2  6  1  0  0  0  0
  2 34  1  0  0  0  0
  3  4  2  0  0  0  0
  3 28  1  0  0  0  0
  5 13  1  0  0  0  0
  6  7  1  0  0  0  0
  7  8  1  0  0  0  0
  8  9  1  0  0  0  0
  8 10  1  0  0  0  0
 11 13  2  0  0  0  0
 11 24  1  0  0  0  0
 12 34  1  0  0  0  0
 13 15  1  0  0  0  0
 14 34  1  0  0  0  0
 15 16  1  0  0  0  0
 16 17  1  0  0  0  0
 16 18  2  0  0  0  0
 17 20  1  0  0  0  0
 17 24  2  0  0  0  0
 19 21  1  0  0  0  0
 19 20  1  0  0  0  0
 20 22  1  0  0  0  0
 22 23  1  0  0  0  0
 22 26  1  6  0  0  0
 23 25  1  0  0  0  0
 24 25  1  0  0  0  0
 26 27  1  0  0  0  0
 27 31  1  0  0  0  0
 28 29  2  0  0  0  0
 28 33  1  0  0  0  0
 29 30  1  0  0  0  0
 30 31  2  0  0  0  0
 31 32  1  0  0  0  0
 32 33  2  0  0  0  0
M  END
>  <CHROM.1>
160.36770234,-176.84950723,85.70441513,-169.52737930,-140.04696743,-89.56761920
-32.63028174,88.31064501,-152.10417287,90.48786627,18.24242611,24.39059100
58.57222392,-0.60748900,-0.74387444,-1.03016456

>  <Name>
ligand

>  <RI>
0

>  <Rbt.Current_Directory>
/home/itssahil/PROJECTS/Mol_Feturizer/New_Systems/rnas/3SUH

>  <Rbt.Executable>
rbdock ($Id: //depot/dev/client3/rdock/2013.1/src/exe/rbdock.cxx#4 $)

>  <Rbt.Library>
libRbt.so (2013.1, Build901 2013/11/27)

>  <Rbt.Parameter_File>
/export/apps/rDock/src/rDock_2013.1_src/data/scripts/dock_solv.prm

>  <Rbt.Receptor>
prm/blind_docking_100.prm

>  <SCORE>
-8.25209

>  <SCORE.INTER>
-4.1486

>  <SCORE.INTER.CONST>
1

>  <SCORE.INTER.POLAR>
0

>  <SCORE.INTER.ROT>
10

>  <SCORE.INTER.SOLV>
14.8861

>  <SCORE.INTER.VDW>
-17.9944

>  <SCORE.INTER.norm>
-0.122018

>  <SCORE.INTRA>
-4.12457

>  <SCORE.INTRA.DIHEDRAL>
-2.47432

>  <SCORE.INTRA.DIHEDRAL.0>
12.2703

>  <SCORE.INTRA.POLAR>
0

>  <SCORE.INTRA.POLAR.0>
0

>  <SCORE.INTRA.REPUL>
0

>  <SCORE.INTRA.REPUL.0>
0

>  <SCORE.INTRA.SOLV>
1.19528

>  <SCORE.INTRA.SOLV.lig_0>
-64.3214

>  <SCORE.INTRA.VDW>
-3.48505

>  <SCORE.INTRA.VDW.0>
-1.67301

>  <SCORE.INTRA.norm>
-0.121311

>  <SCORE.RESTR>
0.0210742

>  <SCORE.RESTR.CAVITY>
0.0210742

>  <SCORE.RESTR.norm>
0.00061983

>  <SCORE.SYSTEM>
0

>  <SCORE.SYSTEM.CONST>
0

>  <SCORE.SYSTEM.DIHEDRAL>
0

>  <SCORE.SYSTEM.SOLV>
0

>  <SCORE.SYSTEM.norm>
0

>  <SCORE.heavy>
34

>  <SCORE.norm>
-0.242709

>  <RMSD>
25.830

$$$$
ligand
 OpenBabel11021811483D
libRbt.so/2013.1/901 2013/11/27
 34 36  0  0  0  0  0  0  0  0999 V2000
   15.0645   21.8121   59.7836 N   0  0  0  0  0  0  0  0  0  0  0  0
   13.6637   21.7626   59.3038 C   0  0  1  0  0  0  0  0  0  0  0  0
   15.7051   20.7685   60.3265 C   0  0  0  0  0  0  0  0  0  0  0  0
   15.2030   19.6529   60.4895 O   0  0  0  0  0  0  0  0  0  0  0  0
   21.5279   26.0867   55.5203 N   0  0  0  0  0  0  0  0  0  0  0  0
   13.3365   23.0453   58.5208 C   0  0  0  0  0  0  0  0  0  0  0  0
   13.3983   24.2874   59.4201 C   0  0  0  0  0  0  0  0  0  0  0  0
   13.2518   25.5770   58.5983 C   0  0  0  0  0  0  0  0  0  0  0  0
   14.2473   26.3366   58.5432 O   0  0  0  0  0  0  0  0  0  0  0  0
   12.1477   25.7739   58.0406 O   0  0  0  0  0  0  0  0  0  0  0  0
   22.1650   25.7621   57.7219 N   0  0  0  0  0  0  0  0  0  0  0  0
   12.5760   19.6781   58.8353 O   0  0  0  0  0  0  0  0  0  0  0  0
   21.2319   25.6933   56.7565 C   0  0  0  0  0  0  0  0  0  0  0  0
   14.0358   20.4622   57.3376 O   0  0  0  0  0  0  0  0  0  0  0  0
   19.9473   25.2106   57.0365 N   0  0  0  0  0  0  0  0  0  0  0  0
   19.6514   24.7983   58.3288 C   0  0  0  0  0  0  0  0  0  0  0  0
   20.6475   24.8525   59.2949 C   0  0  0  0  0  0  0  0  0  0  0  0
   18.5349   24.3617   58.5965 O   0  0  0  0  0  0  0  0  0  0  0  0
   19.1683   24.7562   61.1129 C   0  0  0  0  0  0  0  0  0  0  0  0
   20.3780   24.5152   60.6167 N   0  0  0  0  0  0  0  0  0  0  0  0
   18.8809   25.8715   61.5416 O   0  0  0  0  0  0  0  0  0  0  0  0
   21.4744   24.0901   61.4938 C   0  0  2  0  0  0  0  0  0  0  0  0
   22.6182   25.1006   61.3757 C   0  0  0  0  0  0  0  0  0  0  0  0
   21.8964   25.3681   58.9760 C   0  0  0  0  0  0  0  0  0  0  0  0
   22.8848   25.4630   59.9618 N   0  0  0  0  0  0  0  0  0  0  0  0
   21.9623   22.6908   61.1033 C   0  0  0  0  0  0  0  0  0  0  0  0
   21.1216   21.6759   61.7501 N   0  0  0  0  0  0  0  0  0  0  0  0
   17.1724   21.0422   60.7034 C   0  0  0  0  0  0  0  0  0  0  0  0
   17.5236   21.3255   62.0210 C   0  0  0  0  0  0  0  0  0  0  0  0
   18.8587   21.5180   62.3705 C   0  0  0  0  0  0  0  0  0  0  0  0
   19.8523   21.4738   61.3982 C   0  0  0  0  0  0  0  0  0  0  0  0
   19.5023   21.1999   60.0803 C   0  0  0  0  0  0  0  0  0  0  0  0
   18.1707   20.9719   59.7359 C   0  0  0  0  0  0  0  0  0  0  0  0
   13.3996   20.5277   58.4177 C   0  0  0  0  0  0  0  0  0  0  0  0
  1  3  1  0  0  0  0
  2  1  1  6  0  0  0
  2  6  1  0  0  0  0
  2 34  1  0  0  0  0
  3  4  2  0  0  0  0
  3 28  1  0  0  0  0
  5 13  1  0  0  0  0
  6  7  1  0  0  0  0
  7  8  1  0  0  0  0
  8  9  1  0  0  0  0
  8 10  1  0  0  0  0
 11 13  2  0  0  0  0
 11 24  1  0  0  0  0
 12 34  1  0  0  0  0
 13 15  1  0  0  0  0
 14 34  1  0  0  0  0
 15 16  1  0  0  0  0
 16 17  1  0  0  0  0
 16 18  2  0  0  0  0
 17 20  1  0  0  0  0
 17 24  2  0  0  0  0
 19 21  1  0  0  0  0
 19 20  1  0  0  0  0
 20 22  1  0  0  0  0
 22 23  1  0  0  0  0
 22 26  1  6  0  0  0
 23 25  1  0  0  0  0
 24 25  1  0  0  0  0
 26 27  1  0  0  0  0
 27 31  1  0  0  0  0
 28 29  2  0  0  0  0
 28 33  1  0  0  0  0
 29 30  1  0  0  0  0
 30 31  2  0  0  0  0
 31 32  1  0  0  0  0
 32 33  2  0  0  0  0
M  END
>  <CHROM.1>
-169.96224999,-64.31221692,116.12546921,172.59986079,-113.54892225,-83.10696696
-84.65444382,69.61994982,-126.00710519,99.84423603,17.87744643,23.37093809
59.53178893,-2.91417034,-0.24119273,-0.56360582

>  <Name>
ligand

>  <RI>
0

>  <Rbt.Current_Directory>
/home/itssahil/PROJECTS/Mol_Feturizer/New_Systems/rnas/3SUH

>  <Rbt.Executable>
rbdock ($Id: //depot/dev/client3/rdock/2013.1/src/exe/rbdock.cxx#4 $)

>  <Rbt.Library>
libRbt.so (2013.1, Build901 2013/11/27)

>  <Rbt.Parameter_File>
/export/apps/rDock/src/rDock_2013.1_src/data/scripts/dock_solv.prm

>  <Rbt.Receptor>
prm/blind_docking_80.prm

>  <SCORE>
-16.9385

>  <SCORE.INTER>
-11.7414

>  <SCORE.INTER.CONST>
1

>  <SCORE.INTER.POLAR>
0

>  <SCORE.INTER.ROT>
10

>  <SCORE.INTER.SOLV>
12.7076

>  <SCORE.INTER.VDW>
-22.3302

>  <SCORE.INTER.norm>
-0.345336

>  <SCORE.INTRA>
-5.19704

>  <SCORE.INTRA.DIHEDRAL>
-3.70299

>  <SCORE.INTRA.DIHEDRAL.0>
12.2703

>  <SCORE.INTRA.POLAR>
0

>  <SCORE.INTRA.POLAR.0>
0

>  <SCORE.INTRA.REPUL>
0

>  <SCORE.INTRA.REPUL.0>
0

>  <SCORE.INTRA.SOLV>
-0.432109

>  <SCORE.INTRA.SOLV.lig_0>
-64.3214

>  <SCORE.INTRA.VDW>
-3.12949

>  <SCORE.INTRA.VDW.0>
-1.67301

>  <SCORE.INTRA.norm>
-0.152854

>  <SCORE.RESTR>
0

>  <SCORE.RESTR.CAVITY>
0

>  <SCORE.RESTR.norm>
0

>  <SCORE.SYSTEM>
0

>  <SCORE.SYSTEM.CONST>
0

>  <SCORE.SYSTEM.DIHEDRAL>
0

>  <SCORE.SYSTEM.SOLV>
0

>  <SCORE.SYSTEM.norm>
0

>  <SCORE.heavy>
34

>  <SCORE.norm>
-0.49819

>  <RMSD>
25.859

$$$$
ligand
 OpenBabel11021811483D
libRbt.so/2013.1/901 2013/11/27
 34 36  0  0  0  0  0  0  0  0999 V2000
   16.4628   23.9420   57.4087 N   0  0  0  0  0  0  0  0  0  0  0  0
   15.7636   24.3410   56.1651 C   0  0  1  0  0  0  0  0  0  0  0  0
   17.3988   22.9856   57.4652 C   0  0  0  0  0  0  0  0  0  0  0  0
   17.7821   22.3299   56.4923 O   0  0  0  0  0  0  0  0  0  0  0  0
   22.2690   25.0430   58.4311 N   0  0  0  0  0  0  0  0  0  0  0  0
   16.7672   24.9665   55.1819 C   0  0  0  0  0  0  0  0  0  0  0  0
   17.2688   26.3297   55.6775 C   0  0  0  0  0  0  0  0  0  0  0  0
   17.9767   26.2020   57.0350 C   0  0  0  0  0  0  0  0  0  0  0  0
   17.4703   26.8147   58.0042 O   0  0  0  0  0  0  0  0  0  0  0  0
   19.0077   25.4919   57.0743 O   0  0  0  0  0  0  0  0  0  0  0  0
   22.1600   24.3752   60.6448 N   0  0  0  0  0  0  0  0  0  0  0  0
   13.8106   23.0445   55.6623 O   0  0  0  0  0  0  0  0  0  0  0  0
   21.6663   25.0868   59.6166 C   0  0  0  0  0  0  0  0  0  0  0  0
   15.7681   22.3625   54.8306 O   0  0  0  0  0  0  0  0  0  0  0  0
   20.5210   25.8765   59.7780 N   0  0  0  0  0  0  0  0  0  0  0  0
   19.8977   25.9106   61.0181 C   0  0  0  0  0  0  0  0  0  0  0  0
   20.4148   25.1388   62.0503 C   0  0  0  0  0  0  0  0  0  0  0  0
   18.8859   26.5878   61.1817 O   0  0  0  0  0  0  0  0  0  0  0  0
   19.3368   26.3363   63.7550 C   0  0  0  0  0  0  0  0  0  0  0  0
   19.8654   25.1941   63.3264 N   0  0  0  0  0  0  0  0  0  0  0  0
   18.1194   26.5041   63.7409 O   0  0  0  0  0  0  0  0  0  0  0  0
   20.0534   24.0663   64.2456 C   0  0  2  0  0  0  0  0  0  0  0  0
   21.5383   23.6947   64.2702 C   0  0  0  0  0  0  0  0  0  0  0  0
   21.5706   24.3963   61.8499 C   0  0  0  0  0  0  0  0  0  0  0  0
   22.1151   23.6542   62.9037 N   0  0  0  0  0  0  0  0  0  0  0  0
   19.2145   22.8641   63.7989 C   0  0  0  0  0  0  0  0  0  0  0  0
   19.7798   22.2968   62.5686 N   0  0  0  0  0  0  0  0  0  0  0  0
   18.0233   22.7806   58.8572 C   0  0  0  0  0  0  0  0  0  0  0  0
   19.0793   21.8902   59.0351 C   0  0  0  0  0  0  0  0  0  0  0  0
   19.6800   21.7470   60.2843 C   0  0  0  0  0  0  0  0  0  0  0  0
   19.2017   22.4593   61.3790 C   0  0  0  0  0  0  0  0  0  0  0  0
   18.1413   23.3423   61.2050 C   0  0  0  0  0  0  0  0  0  0  0  0
   17.5629   23.5127   59.9480 C   0  0  0  0  0  0  0  0  0  0  0  0
   15.0499   23.1486   55.4954 C   0  0  0  0  0  0  0  0  0  0  0  0
  1  3  1  0  0  0  0
  2  1  1  1  0  0  0
  2  6  1  0  0  0  0
  2 34  1  0  0  0  0
  3  4  2  0  0  0  0
  3 28  1  0  0  0  0
  5 13  1  0  0  0  0
  6  7  1  0  0  0  0
  7  8  1  0  0  0  0
  8  9  1  0  0  0  0
  8 10  1  0  0  0  0
 11 13  2  0  0  0  0
 11 24  1  0  0  0  0
 12 34  1  0  0  0  0
 13 15  1  0  0  0  0
 14 34  1  0  0  0  0
 15 16  1  0  0  0  0
 16 17  1  0  0  0  0
 16 18  2  0  0  0  0
 17 20  1  0  0  0  0
 17 24  2  0  0  0  0
 19 21  1  0  0  0  0
 19 20  1  0  0  0  0
 20 22  1  0  0  0  0
 22 23  1  0  0  0  0
 22 26  1  6  0  0  0
 23 25  1  0  0  0  0
 24 25  1  0  0  0  0
 26 27  1  0  0  0  0
 27 31  1  0  0  0  0
 28 29  2  0  0  0  0
 28 33  1  0  0  0  0
 29 30  1  0  0  0  0
 30 31  2  0  0  0  0
 31 32  1  0  0  0  0
 32 33  2  0  0  0  0
M  END
>  <CHROM.1>
-65.24022405,-69.20786816,101.12652003,60.15619595,-117.78029360,100.65308724
70.35294853,-106.21390007,-171.13864544,-175.07813058,18.76482650,24.30018282
59.67229458,2.63263907,-0.93713561,-0.68901244

>  <Name>
ligand

>  <RI>
0

>  <Rbt.Current_Directory>
/home/itssahil/PROJECTS/Mol_Feturizer/New_Systems/rnas/3SUH

>  <Rbt.Executable>
rbdock ($Id: //depot/dev/client3/rdock/2013.1/src/exe/rbdock.cxx#4 $)

>  <Rbt.Library>
libRbt.so (2013.1, Build901 2013/11/27)

>  <Rbt.Parameter_File>
/export/apps/rDock/src/rDock_2013.1_src/data/scripts/dock_solv.prm

>  <Rbt.Receptor>
prm/blind_docking_100.prm

>  <SCORE>
-8.0601

>  <SCORE.INTER>
-4.50628

>  <SCORE.INTER.CONST>
1

>  <SCORE.INTER.POLAR>
0

>  <SCORE.INTER.ROT>
10

>  <SCORE.INTER.SOLV>
14.7531

>  <SCORE.INTER.VDW>
-18.1885

>  <SCORE.INTER.norm>
-0.132538

>  <SCORE.INTRA>
-3.55382

>  <SCORE.INTRA.DIHEDRAL>
-3.79234

>  <SCORE.INTRA.DIHEDRAL.0>
12.2703

>  <SCORE.INTRA.POLAR>
0

>  <SCORE.INTRA.POLAR.0>
0

>  <SCORE.INTRA.REPUL>
0

>  <SCORE.INTRA.REPUL.0>
0

>  <SCORE.INTRA.SOLV>
3.91071

>  <SCORE.INTRA.SOLV.lig_0>
-64.3214

>  <SCORE.INTRA.VDW>
-3.61301

>  <SCORE.INTRA.VDW.0>
-1.67301

>  <SCORE.INTRA.norm>
-0.104524

>  <SCORE.RESTR>
0

>  <SCORE.RESTR.CAVITY>
0

>  <SCORE.RESTR.norm>
0

>  <SCORE.SYSTEM>
0

>  <SCORE.SYSTEM.CONST>
0

>  <SCORE.SYSTEM.DIHEDRAL>
0

>  <SCORE.SYSTEM.SOLV>
0

>  <SCORE.SYSTEM.norm>
0

>  <SCORE.heavy>
34

>  <SCORE.norm>
-0.237062

>  <RMSD>
25.872

$$$$
ligand
 OpenBabel11021811483D
libRbt.so/2013.1/901 2013/11/27
 34 36  0  0  0  0  0  0  0  0999 V2000
   20.9426   25.2291   59.6037 N   0  0  0  0  0  0  0  0  0  0  0  0
   22.0387   25.1480   60.5971 C   0  0  1  0  0  0  0  0  0  0  0  0
   20.4980   26.3764   59.0744 C   0  0  0  0  0  0  0  0  0  0  0  0
   20.9476   27.4912   59.3542 O   0  0  0  0  0  0  0  0  0  0  0  0
   19.4612   21.5827   59.1818 N   0  0  0  0  0  0  0  0  0  0  0  0
   21.5086   25.5314   61.9889 C   0  0  0  0  0  0  0  0  0  0  0  0
   20.3566   24.6167   62.4264 C   0  0  0  0  0  0  0  0  0  0  0  0
   19.8088   25.0305   63.8008 C   0  0  0  0  0  0  0  0  0  0  0  0
   19.8676   24.1801   64.7198 O   0  0  0  0  0  0  0  0  0  0  0  0
   19.3455   26.1897   63.9030 O   0  0  0  0  0  0  0  0  0  0  0  0
   18.0324   21.6799   57.3632 N   0  0  0  0  0  0  0  0  0  0  0  0
   22.3114   22.9117   59.7769 O   0  0  0  0  0  0  0  0  0  0  0  0
   18.4456   22.1632   58.5477 C   0  0  0  0  0  0  0  0  0  0  0  0
   23.4992   23.5278   61.5653 O   0  0  0  0  0  0  0  0  0  0  0  0
   17.8183   23.2745   59.1249 N   0  0  0  0  0  0  0  0  0  0  0  0
   16.7629   23.8749   58.4517 C   0  0  0  0  0  0  0  0  0  0  0  0
   16.3819   23.3706   57.2152 C   0  0  0  0  0  0  0  0  0  0  0  0
   16.2034   24.8571   58.9328 O   0  0  0  0  0  0  0  0  0  0  0  0
   14.2612   24.3729   57.2351 C   0  0  0  0  0  0  0  0  0  0  0  0
   15.2875   23.8959   56.5372 N   0  0  0  0  0  0  0  0  0  0  0  0
   13.3352   23.6355   57.5654 O   0  0  0  0  0  0  0  0  0  0  0  0
   15.1917   23.7358   55.0821 C   0  0  2  0  0  0  0  0  0  0  0  0
   15.4388   22.2661   54.7321 C   0  0  0  0  0  0  0  0  0  0  0  0
   17.0142   22.2476   56.6990 C   0  0  0  0  0  0  0  0  0  0  0  0
   16.5994   21.7144   55.4737 N   0  0  0  0  0  0  0  0  0  0  0  0
   16.2182   24.6277   54.3753 C   0  0  0  0  0  0  0  0  0  0  0  0
   16.4287   25.8531   55.1559 N   0  0  0  0  0  0  0  0  0  0  0  0
   19.3858   26.2092   58.0233 C   0  0  0  0  0  0  0  0  0  0  0  0
   18.1731   26.8798   58.1632 C   0  0  0  0  0  0  0  0  0  0  0  0
   17.1887   26.7714   57.1830 C   0  0  0  0  0  0  0  0  0  0  0  0
   17.3886   25.9555   56.0745 C   0  0  0  0  0  0  0  0  0  0  0  0
   18.5955   25.2781   55.9376 C   0  0  0  0  0  0  0  0  0  0  0  0
   19.5949   25.4141   56.9001 C   0  0  0  0  0  0  0  0  0  0  0  0
   22.6699   23.7412   60.6476 C   0  0  0  0  0  0  0  0  0  0  0  0
  1  3  1  0  0  0  0
  2  1  1  6  0  0  0
  2  6  1  0  0  0  0
  2 34  1  0  0  0  0
  3  4  2  0  0  0  0
  3 28  1  0  0  0  0
  5 13  1  0  0  0  0
  6  7  1  0  0  0  0
  7  8  1  0  0  0  0
  8  9  1  0  0  0  0
  8 10  1  0  0  0  0
 11 13  2  0  0  0  0
 11 24  1  0  0  0  0
 12 34  1  0  0  0  0
 13 15  1  0  0  0  0
 14 34  1  0  0  0  0
 15 16  1  0  0  0  0
 16 17  1  0  0  0  0
 16 18  2  0  0  0  0
 17 20  1  0  0  0  0
 17 24  2  0  0  0  0
 19 21  1  0  0  0  0
 19 20  1  0  0  0  0
 20 22  1  0  0  0  0
 22 23  1  0  0  0  0
 22 26  1  6  0  0  0
 23 25  1  0  0  0  0
 24 25  1  0  0  0  0
 26 27  1  0  0  0  0
 27 31  1  0  0  0  0
 28 29  2  0  0  0  0
 28 33  1  0  0  0  0
 29 30  1  0  0  0  0
 30 31  2  0  0  0  0
 31 32  1  0  0  0  0
 32 33  2  0  0  0  0
M  END
>  <CHROM.1>
78.26322893,58.58711856,7.90619874,-178.48153797,-119.85810282,-89.09819358
-32.27769861,92.12634254,-148.88795461,125.08481846,18.45858660,24.38302606
58.66251627,-0.61978768,-0.59798209,-1.06722829

>  <Name>
ligand

>  <RI>
0

>  <Rbt.Current_Directory>
/home/itssahil/PROJECTS/Mol_Feturizer/New_Systems/rnas/3SUH

>  <Rbt.Executable>
rbdock ($Id: //depot/dev/client3/rdock/2013.1/src/exe/rbdock.cxx#4 $)

>  <Rbt.Library>
libRbt.so (2013.1, Build901 2013/11/27)

>  <Rbt.Parameter_File>
/export/apps/rDock/src/rDock_2013.1_src/data/scripts/dock_solv.prm

>  <Rbt.Receptor>
prm/blind_docking_100.prm

>  <SCORE>
-9.79563

>  <SCORE.INTER>
-5.51291

>  <SCORE.INTER.CONST>
1

>  <SCORE.INTER.POLAR>
0

>  <SCORE.INTER.ROT>
10

>  <SCORE.INTER.SOLV>
14.5349

>  <SCORE.INTER.VDW>
-18.7869

>  <SCORE.INTER.norm>
-0.162144

>  <SCORE.INTRA>
-4.29349

>  <SCORE.INTRA.DIHEDRAL>
-2.89039

>  <SCORE.INTRA.DIHEDRAL.0>
12.2703

>  <SCORE.INTRA.POLAR>
0

>  <SCORE.INTRA.POLAR.0>
0

>  <SCORE.INTRA.REPUL>
0

>  <SCORE.INTRA.REPUL.0>
0

>  <SCORE.INTRA.SOLV>
2.39882

>  <SCORE.INTRA.SOLV.lig_0>
-64.3214

>  <SCORE.INTRA.VDW>
-4.0477

>  <SCORE.INTRA.VDW.0>
-1.67301

>  <SCORE.INTRA.norm>
-0.126279

>  <SCORE.RESTR>
0.0107675

>  <SCORE.RESTR.CAVITY>
0.0107675

>  <SCORE.RESTR.norm>
0.00031669

>  <SCORE.SYSTEM>
0

>  <SCORE.SYSTEM.CONST>
0

>  <SCORE.SYSTEM.DIHEDRAL>
0

>  <SCORE.SYSTEM.SOLV>
0

>  <SCORE.SYSTEM.norm>
0

>  <SCORE.heavy>
34

>  <SCORE.norm>
-0.288107

>  <RMSD>
25.898

$$$$
ligand
 OpenBabel11021811483D
libRbt.so/2013.1/901 2013/11/27
 34 36  0  0  0  0  0  0  0  0999 V2000
   15.7827   22.7102   56.7677 N   0  0  0  0  0  0  0  0  0  0  0  0
   15.2621   22.5088   55.3954 C   0  0  1  0  0  0  0  0  0  0  0  0
   15.2684   22.1215   57.8553 C   0  0  0  0  0  0  0  0  0  0  0  0
   14.3058   21.3494   57.8381 O   0  0  0  0  0  0  0  0  0  0  0  0
   19.2753   27.7832   59.6823 N   0  0  0  0  0  0  0  0  0  0  0  0
   16.3705   22.8019   54.3703 C   0  0  0  0  0  0  0  0  0  0  0  0
   17.1362   24.0858   54.7178 C   0  0  0  0  0  0  0  0  0  0  0  0
   16.1968   25.3009   54.7551 C   0  0  0  0  0  0  0  0  0  0  0  0
   16.4670   26.2079   55.5769 O   0  0  0  0  0  0  0  0  0  0  0  0
   15.2301   25.2972   53.9587 O   0  0  0  0  0  0  0  0  0  0  0  0
   20.0161   25.7359   60.4686 N   0  0  0  0  0  0  0  0  0  0  0  0
   13.4768   20.9220   55.1889 O   0  0  0  0  0  0  0  0  0  0  0  0
   19.5031   26.9569   60.7000 C   0  0  0  0  0  0  0  0  0  0  0  0
   15.5744   20.1710   55.0313 O   0  0  0  0  0  0  0  0  0  0  0  0
   19.2040   27.3716   62.0039 N   0  0  0  0  0  0  0  0  0  0  0  0
   19.4413   26.4991   63.0574 C   0  0  0  0  0  0  0  0  0  0  0  0
   19.9417   25.2336   62.7809 C   0  0  0  0  0  0  0  0  0  0  0  0
   19.1776   26.8362   64.2089 O   0  0  0  0  0  0  0  0  0  0  0  0
   20.7013   24.8372   64.9645 C   0  0  0  0  0  0  0  0  0  0  0  0
   20.2592   24.3520   63.8082 N   0  0  0  0  0  0  0  0  0  0  0  0
   21.7574   25.4636   65.0149 O   0  0  0  0  0  0  0  0  0  0  0  0
   20.2944   22.9101   63.5404 C   0  0  2  0  0  0  0  0  0  0  0  0
   21.1356   22.6637   62.2854 C   0  0  0  0  0  0  0  0  0  0  0  0
   20.2517   24.8801   61.4746 C   0  0  0  0  0  0  0  0  0  0  0  0
   20.7974   23.6206   61.2031 N   0  0  0  0  0  0  0  0  0  0  0  0
   18.8755   22.3663   63.3414 C   0  0  0  0  0  0  0  0  0  0  0  0
   18.0589   23.3623   62.6367 N   0  0  0  0  0  0  0  0  0  0  0  0
   16.0077   22.4405   59.1673 C   0  0  0  0  0  0  0  0  0  0  0  0
   17.2037   21.7988   59.4799 C   0  0  0  0  0  0  0  0  0  0  0  0
   17.9002   22.1289   60.6408 C   0  0  0  0  0  0  0  0  0  0  0  0
   17.3854   23.0718   61.5242 C   0  0  0  0  0  0  0  0  0  0  0  0
   16.1866   23.7071   61.2180 C   0  0  0  0  0  0  0  0  0  0  0  0
   15.5071   23.4033   60.0392 C   0  0  0  0  0  0  0  0  0  0  0  0
   14.7217   21.0791   55.1863 C   0  0  0  0  0  0  0  0  0  0  0  0
  1  3  1  0  0  0  0
  2  1  1  1  0  0  0
  2  6  1  0  0  0  0
  2 34  1  0  0  0  0
  3  4  2  0  0  0  0
  3 28  1  0  0  0  0
  5 13  1  0  0  0  0
  6  7  1  0  0  0  0
  7  8  1  0  0  0  0
  8  9  1  0  0  0  0
  8 10  1  0  0  0  0
 11 13  2  0  0  0  0
 11 24  1  0  0  0  0
 12 34  1  0  0  0  0
 13 15  1  0  0  0  0
 14 34  1  0  0  0  0
 15 16  1  0  0  0  0
 16 17  1  0  0  0  0
 16 18  2  0  0  0  0
 17 20  1  0  0  0  0
 17 24  2  0  0  0  0
 19 21  1  0  0  0  0
 19 20  1  0  0  0  0
 20 22  1  0  0  0  0
 22 23  1  0  0  0  0
 22 26  1  6  0  0  0
 23 25  1  0  0  0  0
 24 25  1  0  0  0  0
 26 27  1  0  0  0  0
 27 31  1  0  0  0  0
 28 29  2  0  0  0  0
 28 33  1  0  0  0  0
 29 30  1  0  0  0  0
 30 31  2  0  0  0  0
 31 32  1  0  0  0  0
 32 33  2  0  0  0  0
M  END
>  <CHROM.1>
-155.90576575,-44.57691384,103.38367441,-59.53636503,147.06219660,-62.81853507
36.34150584,126.53944061,-32.23172887,-78.45259815,17.77265953,23.89057470
59.64808452,2.77352951,-0.99665490,-0.72670739

>  <Name>
ligand

>  <RI>
0

>  <Rbt.Current_Directory>
/home/itssahil/PROJECTS/Mol_Feturizer/New_Systems/rnas/3SUH

>  <Rbt.Executable>
rbdock ($Id: //depot/dev/client3/rdock/2013.1/src/exe/rbdock.cxx#4 $)

>  <Rbt.Library>
libRbt.so (2013.1, Build901 2013/11/27)

>  <Rbt.Parameter_File>
/export/apps/rDock/src/rDock_2013.1_src/data/scripts/dock_solv.prm

>  <Rbt.Receptor>
prm/blind_docking_100.prm

>  <SCORE>
-2.56743

>  <SCORE.INTER>
-2.63795

>  <SCORE.INTER.CONST>
1

>  <SCORE.INTER.POLAR>
0

>  <SCORE.INTER.ROT>
10

>  <SCORE.INTER.SOLV>
13.8635

>  <SCORE.INTER.VDW>
-16.6465

>  <SCORE.INTER.norm>
-0.0775866

>  <SCORE.INTRA>
0.0705163

>  <SCORE.INTRA.DIHEDRAL>
-1.82632

>  <SCORE.INTRA.DIHEDRAL.0>
12.2703

>  <SCORE.INTRA.POLAR>
0

>  <SCORE.INTRA.POLAR.0>
0

>  <SCORE.INTRA.REPUL>
0

>  <SCORE.INTRA.REPUL.0>
0

>  <SCORE.INTRA.SOLV>
2.85977

>  <SCORE.INTRA.SOLV.lig_0>
-64.3214

>  <SCORE.INTRA.VDW>
-0.44621

>  <SCORE.INTRA.VDW.0>
-1.67301

>  <SCORE.INTRA.norm>
0.00207401

>  <SCORE.RESTR>
0

>  <SCORE.RESTR.CAVITY>
0

>  <SCORE.RESTR.norm>
0

>  <SCORE.SYSTEM>
0

>  <SCORE.SYSTEM.CONST>
0

>  <SCORE.SYSTEM.DIHEDRAL>
0

>  <SCORE.SYSTEM.SOLV>
0

>  <SCORE.SYSTEM.norm>
0

>  <SCORE.heavy>
34

>  <SCORE.norm>
-0.0755126

>  <RMSD>
25.903

$$$$
ligand
 OpenBabel11021811483D
libRbt.so/2013.1/901 2013/11/27
 34 36  0  0  0  0  0  0  0  0999 V2000
   15.4063   22.8068   57.8732 N   0  0  0  0  0  0  0  0  0  0  0  0
   14.4333   22.9825   56.7699 C   0  0  1  0  0  0  0  0  0  0  0  0
   15.3106   21.8526   58.8083 C   0  0  0  0  0  0  0  0  0  0  0  0
   14.4044   21.0163   58.8578 O   0  0  0  0  0  0  0  0  0  0  0  0
   20.2480   27.7827   59.0358 N   0  0  0  0  0  0  0  0  0  0  0  0
   14.9292   24.0756   55.8083 C   0  0  0  0  0  0  0  0  0  0  0  0
   16.2394   23.6702   55.1197 C   0  0  0  0  0  0  0  0  0  0  0  0
   17.3681   23.4734   56.1432 C   0  0  0  0  0  0  0  0  0  0  0  0
   17.9086   24.5059   56.6045 O   0  0  0  0  0  0  0  0  0  0  0  0
   17.6640   22.2941   56.4439 O   0  0  0  0  0  0  0  0  0  0  0  0
   21.4233   26.1866   60.2314 N   0  0  0  0  0  0  0  0  0  0  0  0
   15.1555   20.8647   55.9091 O   0  0  0  0  0  0  0  0  0  0  0  0
   20.3228   26.9401   60.0628 C   0  0  0  0  0  0  0  0  0  0  0  0
   13.0567   21.5073   55.4956 O   0  0  0  0  0  0  0  0  0  0  0  0
   19.2495   26.8488   60.9581 N   0  0  0  0  0  0  0  0  0  0  0  0
   19.3367   25.9626   62.0232 C   0  0  0  0  0  0  0  0  0  0  0  0
   20.4740   25.1759   62.1501 C   0  0  0  0  0  0  0  0  0  0  0  0
   18.4042   25.8573   62.8160 O   0  0  0  0  0  0  0  0  0  0  0  0
   20.1161   24.6703   64.4126 C   0  0  0  0  0  0  0  0  0  0  0  0
   20.6348   24.3250   63.2380 N   0  0  0  0  0  0  0  0  0  0  0  0
   20.8379   25.0925   65.3131 O   0  0  0  0  0  0  0  0  0  0  0  0
   21.5338   23.1709   63.1284 C   0  0  2  0  0  0  0  0  0  0  0  0
   22.8742   23.6444   62.5605 C   0  0  0  0  0  0  0  0  0  0  0  0
   21.5245   25.3251   61.2549 C   0  0  0  0  0  0  0  0  0  0  0  0
   22.6877   24.5631   61.4104 N   0  0  0  0  0  0  0  0  0  0  0  0
   20.9229   22.0992   62.2190 C   0  0  0  0  0  0  0  0  0  0  0  0
   19.5266   21.8610   62.6049 N   0  0  0  0  0  0  0  0  0  0  0  0
   16.4667   21.8324   59.8246 C   0  0  0  0  0  0  0  0  0  0  0  0
   17.5309   22.7228   59.7039 C   0  0  0  0  0  0  0  0  0  0  0  0
   18.5485   22.7408   60.6557 C   0  0  0  0  0  0  0  0  0  0  0  0
   18.5361   21.8381   61.7137 C   0  0  0  0  0  0  0  0  0  0  0  0
   17.4788   20.9422   61.8308 C   0  0  0  0  0  0  0  0  0  0  0  0
   16.4420   20.9474   60.8988 C   0  0  0  0  0  0  0  0  0  0  0  0
   14.1975   21.6708   55.9931 C   0  0  0  0  0  0  0  0  0  0  0  0
  1  3  1  0  0  0  0
  2  1  1  1  0  0  0
  2  6  1  0  0  0  0
  2 34  1  0  0  0  0
  3  4  2  0  0  0  0
  3 28  1  0  0  0  0
  5 13  1  0  0  0  0
  6  7  1  0  0  0  0
  7  8  1  0  0  0  0
  8  9  1  0  0  0  0
  8 10  1  0  0  0  0
 11 13  2  0  0  0  0
 11 24  1  0  0  0  0
 12 34  1  0  0  0  0
 13 15  1  0  0  0  0
 14 34  1  0  0  0  0
 15 16  1  0  0  0  0
 16 17  1  0  0  0  0
 16 18  2  0  0  0  0
 17 20  1  0  0  0  0
 17 24  2  0  0  0  0
 19 21  1  0  0  0  0
 19 20  1  0  0  0  0
 20 22  1  0  0  0  0
 22 23  1  0  0  0  0
 22 26  1  6  0  0  0
 23 25  1  0  0  0  0
 24 25  1  0  0  0  0
 26 27  1  0  0  0  0
 27 31  1  0  0  0  0
 28 29  2  0  0  0  0
 28 33  1  0  0  0  0
 29 30  1  0  0  0  0
 30 31  2  0  0  0  0
 31 32  1  0  0  0  0
 32 33  2  0  0  0  0
M  END
>  <CHROM.1>
-174.23233365,64.09119145,-31.41849253,-62.21184053,-77.47645027,-104.14363567
-47.77405518,131.29209995,-38.57934027,-2.44816892,18.24385966,23.57308688
59.89430922,2.76400093,-0.77991094,-0.90791379

>  <Name>
ligand

>  <RI>
0

>  <Rbt.Current_Directory>
/home/itssahil/PROJECTS/Mol_Feturizer/New_Systems/rnas/3SUH

>  <Rbt.Executable>
rbdock ($Id: //depot/dev/client3/rdock/2013.1/src/exe/rbdock.cxx#4 $)

>  <Rbt.Library>
libRbt.so (2013.1, Build901 2013/11/27)

>  <Rbt.Parameter_File>
/export/apps/rDock/src/rDock_2013.1_src/data/scripts/dock_solv.prm

>  <Rbt.Receptor>
prm/blind_docking_100.prm

>  <SCORE>
-8.80364

>  <SCORE.INTER>
-4.2297

>  <SCORE.INTER.CONST>
1

>  <SCORE.INTER.POLAR>
0

>  <SCORE.INTER.ROT>
10

>  <SCORE.INTER.SOLV>
12.457

>  <SCORE.INTER.VDW>
-17.2388

>  <SCORE.INTER.norm>
-0.124403

>  <SCORE.INTRA>
-4.57393

>  <SCORE.INTRA.DIHEDRAL>
-4.29011

>  <SCORE.INTRA.DIHEDRAL.0>
12.2703

>  <SCORE.INTRA.POLAR>
0

>  <SCORE.INTRA.POLAR.0>
0

>  <SCORE.INTRA.REPUL>
0

>  <SCORE.INTRA.REPUL.0>
0

>  <SCORE.INTRA.SOLV>
0.519779

>  <SCORE.INTRA.SOLV.lig_0>
-64.3214

>  <SCORE.INTRA.VDW>
-2.68877

>  <SCORE.INTRA.VDW.0>
-1.67301

>  <SCORE.INTRA.norm>
-0.134527

>  <SCORE.RESTR>
0

>  <SCORE.RESTR.CAVITY>
0

>  <SCORE.RESTR.norm>
0

>  <SCORE.SYSTEM>
0

>  <SCORE.SYSTEM.CONST>
0

>  <SCORE.SYSTEM.DIHEDRAL>
0

>  <SCORE.SYSTEM.SOLV>
0

>  <SCORE.SYSTEM.norm>
0

>  <SCORE.heavy>
34

>  <SCORE.norm>
-0.25893

>  <RMSD>
26.006

$$$$
ligand
 OpenBabel11021811483D
libRbt.so/2013.1/901 2013/11/27
 34 36  0  0  0  0  0  0  0  0999 V2000
   15.2630   20.2221   59.9897 N   0  0  0  0  0  0  0  0  0  0  0  0
   13.8834   19.7072   59.8267 C   0  0  1  0  0  0  0  0  0  0  0  0
   15.8386   20.4525   61.1770 C   0  0  0  0  0  0  0  0  0  0  0  0
   15.2871   20.2648   62.2650 O   0  0  0  0  0  0  0  0  0  0  0  0
   17.1479   23.4623   57.4323 N   0  0  0  0  0  0  0  0  0  0  0  0
   12.8732   20.7727   60.2844 C   0  0  0  0  0  0  0  0  0  0  0  0
   13.0449   22.0848   59.5070 C   0  0  0  0  0  0  0  0  0  0  0  0
   11.8669   22.3226   58.5500 C   0  0  0  0  0  0  0  0  0  0  0  0
   11.6098   21.4165   57.7228 O   0  0  0  0  0  0  0  0  0  0  0  0
   11.2473   23.4047   58.6683 O   0  0  0  0  0  0  0  0  0  0  0  0
   19.2781   23.7929   58.2756 N   0  0  0  0  0  0  0  0  0  0  0  0
   13.9463   20.0861   57.4602 O   0  0  0  0  0  0  0  0  0  0  0  0
   17.9435   23.8322   58.4326 C   0  0  0  0  0  0  0  0  0  0  0  0
   13.0020   18.2014   58.1986 O   0  0  0  0  0  0  0  0  0  0  0  0
   17.3777   24.2590   59.6406 N   0  0  0  0  0  0  0  0  0  0  0  0
   18.2178   24.6379   60.6790 C   0  0  0  0  0  0  0  0  0  0  0  0
   19.5917   24.5550   60.4949 C   0  0  0  0  0  0  0  0  0  0  0  0
   17.7453   25.0062   61.7515 O   0  0  0  0  0  0  0  0  0  0  0  0
   20.1182   26.0050   62.2620 C   0  0  0  0  0  0  0  0  0  0  0  0
   20.4709   24.9882   61.4812 N   0  0  0  0  0  0  0  0  0  0  0  0
   20.0185   25.8525   63.4774 O   0  0  0  0  0  0  0  0  0  0  0  0
   21.8384   24.4584   61.5161 C   0  0  2  0  0  0  0  0  0  0  0  0
   22.4430   24.5658   60.1139 C   0  0  0  0  0  0  0  0  0  0  0  0
   20.1047   24.1554   59.2683 C   0  0  0  0  0  0  0  0  0  0  0  0
   21.4893   24.1150   59.0705 N   0  0  0  0  0  0  0  0  0  0  0  0
   21.8366   22.9981   61.9811 C   0  0  0  0  0  0  0  0  0  0  0  0
   21.2474   22.1484   60.9389 N   0  0  0  0  0  0  0  0  0  0  0  0
   17.2977   20.9371   61.0990 C   0  0  0  0  0  0  0  0  0  0  0  0
   17.9062   21.5309   62.2022 C   0  0  0  0  0  0  0  0  0  0  0  0
   19.2436   21.9183   62.1479 C   0  0  0  0  0  0  0  0  0  0  0  0
   19.9740   21.7573   60.9754 C   0  0  0  0  0  0  0  0  0  0  0  0
   19.3654   21.1727   59.8699 C   0  0  0  0  0  0  0  0  0  0  0  0
   18.0377   20.7523   59.9346 C   0  0  0  0  0  0  0  0  0  0  0  0
   13.5875   19.2985   58.3689 C   0  0  0  0  0  0  0  0  0  0  0  0
  1  3  1  0  0  0  0
  2  1  1  6  0  0  0
  2  6  1  0  0  0  0
  2 34  1  0  0  0  0
  3  4  2  0  0  0  0
  3 28  1  0  0  0  0
  5 13  1  0  0  0  0
  6  7  1  0  0  0  0
  7  8  1  0  0  0  0
  8  9  1  0  0  0  0
  8 10  1  0  0  0  0
 11 13  2  0  0  0  0
 11 24  1  0  0  0  0
 12 34  1  0  0  0  0
 13 15  1  0  0  0  0
 14 34  1  0  0  0  0
 15 16  1  0  0  0  0
 16 17  1  0  0  0  0
 16 18  2  0  0  0  0
 17 20  1  0  0  0  0
 17 24  2  0  0  0  0
 19 21  1  0  0  0  0
 19 20  1  0  0  0  0
 20 22  1  0  0  0  0
 22 23  1  0  0  0  0
 22 26  1  6  0  0  0
 23 25  1  0  0  0  0
 24 25  1  0  0  0  0
 26 27  1  0  0  0  0
 27 31  1  0  0  0  0
 28 29  2  0  0  0  0
 28 33  1  0  0  0  0
 29 30  1  0  0  0  0
 30 31  2  0  0  0  0
 31 32  1  0  0  0  0
 32 33  2  0  0  0  0
M  END
>  <CHROM.1>
68.27033662,57.50812132,-45.28008851,109.70426008,-55.31434953,118.95750399
70.12126624,-97.89359768,-13.30318670,163.70446069,17.26041561,22.51430714
60.13491910,-2.78825887,-0.35948262,-0.19987950

>  <Name>
ligand

>  <RI>
0

>  <Rbt.Current_Directory>
/home/itssahil/PROJECTS/Mol_Feturizer/New_Systems/rnas/3SUH

>  <Rbt.Executable>
rbdock ($Id: //depot/dev/client3/rdock/2013.1/src/exe/rbdock.cxx#4 $)

>  <Rbt.Library>
libRbt.so (2013.1, Build901 2013/11/27)

>  <Rbt.Parameter_File>
/export/apps/rDock/src/rDock_2013.1_src/data/scripts/dock_solv.prm

>  <Rbt.Receptor>
prm/blind_docking_80.prm

>  <SCORE>
-9.20983

>  <SCORE.INTER>
-8.06409

>  <SCORE.INTER.CONST>
1

>  <SCORE.INTER.POLAR>
0

>  <SCORE.INTER.ROT>
10

>  <SCORE.INTER.SOLV>
10.1685

>  <SCORE.INTER.VDW>
-19.0322

>  <SCORE.INTER.norm>
-0.237179

>  <SCORE.INTRA>
-1.14574

>  <SCORE.INTRA.DIHEDRAL>
1.12145

>  <SCORE.INTRA.DIHEDRAL.0>
12.2703

>  <SCORE.INTRA.POLAR>
0

>  <SCORE.INTRA.POLAR.0>
0

>  <SCORE.INTRA.REPUL>
0

>  <SCORE.INTRA.REPUL.0>
0

>  <SCORE.INTRA.SOLV>
2.72185

>  <SCORE.INTRA.SOLV.lig_0>
-64.3214

>  <SCORE.INTRA.VDW>
-3.06739

>  <SCORE.INTRA.VDW.0>
-1.67301

>  <SCORE.INTRA.norm>
-0.0336982

>  <SCORE.RESTR>
0

>  <SCORE.RESTR.CAVITY>
0

>  <SCORE.RESTR.norm>
0

>  <SCORE.SYSTEM>
0

>  <SCORE.SYSTEM.CONST>
0

>  <SCORE.SYSTEM.DIHEDRAL>
0

>  <SCORE.SYSTEM.SOLV>
0

>  <SCORE.SYSTEM.norm>
0

>  <SCORE.heavy>
34

>  <SCORE.norm>
-0.270877

>  <RMSD>
26.014

$$$$
ligand
 OpenBabel11021811483D
libRbt.so/2013.1/901 2013/11/27
 34 36  0  0  0  0  0  0  0  0999 V2000
   15.0831   21.2517   59.8062 N   0  0  0  0  0  0  0  0  0  0  0  0
   13.6807   21.0107   59.3937 C   0  0  1  0  0  0  0  0  0  0  0  0
   15.8304   20.3592   60.4687 C   0  0  0  0  0  0  0  0  0  0  0  0
   15.4370   19.2405   60.8107 O   0  0  0  0  0  0  0  0  0  0  0  0
   17.5751   24.6626   55.8068 N   0  0  0  0  0  0  0  0  0  0  0  0
   13.0452   22.3275   58.9170 C   0  0  0  0  0  0  0  0  0  0  0  0
   13.9456   23.0579   57.9115 C   0  0  0  0  0  0  0  0  0  0  0  0
   13.3230   24.3927   57.4746 C   0  0  0  0  0  0  0  0  0  0  0  0
   13.0343   25.2123   58.3780 O   0  0  0  0  0  0  0  0  0  0  0  0
   13.1519   24.5654   56.2459 O   0  0  0  0  0  0  0  0  0  0  0  0
   19.4431   24.9788   57.1368 N   0  0  0  0  0  0  0  0  0  0  0  0
   14.0704   20.2329   57.1596 O   0  0  0  0  0  0  0  0  0  0  0  0
   18.1479   24.6426   57.0076 C   0  0  0  0  0  0  0  0  0  0  0  0
   13.0086   18.8715   58.5767 O   0  0  0  0  0  0  0  0  0  0  0  0
   17.3908   24.2697   58.1254 N   0  0  0  0  0  0  0  0  0  0  0  0
   18.0003   24.2477   59.3726 C   0  0  0  0  0  0  0  0  0  0  0  0
   19.3479   24.5696   59.4666 C   0  0  0  0  0  0  0  0  0  0  0  0
   17.3598   23.9143   60.3664 O   0  0  0  0  0  0  0  0  0  0  0  0
   19.2884   25.0096   61.7699 C   0  0  0  0  0  0  0  0  0  0  0  0
   19.9828   24.6277   60.7023 N   0  0  0  0  0  0  0  0  0  0  0  0
   18.9918   26.1913   61.9309 O   0  0  0  0  0  0  0  0  0  0  0  0
   21.4388   24.4642   60.7771 C   0  0  2  0  0  0  0  0  0  0  0  0
   22.0908   25.3901   59.7471 C   0  0  0  0  0  0  0  0  0  0  0  0
   20.0481   24.9631   58.3342 C   0  0  0  0  0  0  0  0  0  0  0  0
   21.3944   25.3297   58.4383 N   0  0  0  0  0  0  0  0  0  0  0  0
   21.8302   23.0082   60.5023 C   0  0  0  0  0  0  0  0  0  0  0  0
   21.1338   22.1231   61.4440 N   0  0  0  0  0  0  0  0  0  0  0  0
   17.2758   20.8117   60.7444 C   0  0  0  0  0  0  0  0  0  0  0  0
   18.2230   20.8163   59.7233 C   0  0  0  0  0  0  0  0  0  0  0  0
   19.5158   21.2786   59.9611 C   0  0  0  0  0  0  0  0  0  0  0  0
   19.8881   21.6990   61.2335 C   0  0  0  0  0  0  0  0  0  0  0  0
   18.9460   21.6867   62.2565 C   0  0  0  0  0  0  0  0  0  0  0  0
   17.6424   21.2578   62.0111 C   0  0  0  0  0  0  0  0  0  0  0  0
   13.5805   19.9486   58.2793 C   0  0  0  0  0  0  0  0  0  0  0  0
  1  3  1  0  0  0  0
  2  1  1  6  0  0  0
  2  6  1  0  0  0  0
  2 34  1  0  0  0  0
  3  4  2  0  0  0  0
  3 28  1  0  0  0  0
  5 13  1  0  0  0  0
  6  7  1  0  0  0  0
  7  8  1  0  0  0  0
  8  9  1  0  0  0  0
  8 10  1  0  0  0  0
 11 13  2  0  0  0  0
 11 24  1  0  0  0  0
 12 34  1  0  0  0  0
 13 15  1  0  0  0  0
 14 34  1  0  0  0  0
 15 16  1  0  0  0  0
 16 17  1  0  0  0  0
 16 18  2  0  0  0  0
 17 20  1  0  0  0  0
 17 24  2  0  0  0  0
 19 21  1  0  0  0  0
 19 20  1  0  0  0  0
 20 22  1  0  0  0  0
 22 23  1  0  0  0  0
 22 26  1  6  0  0  0
 23 25  1  0  0  0  0
 24 25  1  0  0  0  0
 26 27  1  0  0  0  0
 27 31  1  0  0  0  0
 28 29  2  0  0  0  0
 28 33  1  0  0  0  0
 29 30  1  0  0  0  0
 30 31  2  0  0  0  0
 31 32  1  0  0  0  0
 32 33  2  0  0  0  0
M  END
>  <CHROM.1>
168.61729764,48.93174412,-66.20806790,-178.22163920,56.18914023,-74.52866850
-56.34477330,83.66795882,42.87758548,-75.42002982,17.32838911,22.97721499
59.38987111,-2.97367267,-0.41818804,-0.58125849

>  <Name>
ligand

>  <RI>
0

>  <Rbt.Current_Directory>
/home/itssahil/PROJECTS/Mol_Feturizer/New_Systems/rnas/3SUH

>  <Rbt.Executable>
rbdock ($Id: //depot/dev/client3/rdock/2013.1/src/exe/rbdock.cxx#4 $)

>  <Rbt.Library>
libRbt.so (2013.1, Build901 2013/11/27)

>  <Rbt.Parameter_File>
/export/apps/rDock/src/rDock_2013.1_src/data/scripts/dock_solv.prm

>  <Rbt.Receptor>
prm/blind_docking_80.prm

>  <SCORE>
-16.3832

>  <SCORE.INTER>
-10.0267

>  <SCORE.INTER.CONST>
1

>  <SCORE.INTER.POLAR>
0

>  <SCORE.INTER.ROT>
10

>  <SCORE.INTER.SOLV>
11.274

>  <SCORE.INTER.VDW>
-20.7091

>  <SCORE.INTER.norm>
-0.294903

>  <SCORE.INTRA>
-6.35647

>  <SCORE.INTRA.DIHEDRAL>
-5.0928

>  <SCORE.INTRA.DIHEDRAL.0>
12.2703

>  <SCORE.INTRA.POLAR>
0

>  <SCORE.INTRA.POLAR.0>
0

>  <SCORE.INTRA.REPUL>
0

>  <SCORE.INTRA.REPUL.0>
0

>  <SCORE.INTRA.SOLV>
0.867454

>  <SCORE.INTRA.SOLV.lig_0>
-64.3214

>  <SCORE.INTRA.VDW>
-4.24379

>  <SCORE.INTRA.VDW.0>
-1.67301

>  <SCORE.INTRA.norm>
-0.186955

>  <SCORE.RESTR>
0

>  <SCORE.RESTR.CAVITY>
0

>  <SCORE.RESTR.norm>
0

>  <SCORE.SYSTEM>
0

>  <SCORE.SYSTEM.CONST>
0

>  <SCORE.SYSTEM.DIHEDRAL>
0

>  <SCORE.SYSTEM.SOLV>
0

>  <SCORE.SYSTEM.norm>
0

>  <SCORE.heavy>
34

>  <SCORE.norm>
-0.481858

>  <RMSD>
26.059

$$$$
ligand
 OpenBabel11021811483D
libRbt.so/2013.1/901 2013/11/27
 34 36  0  0  0  0  0  0  0  0999 V2000
   16.0275   22.9230   56.4227 N   0  0  0  0  0  0  0  0  0  0  0  0
   14.8812   22.8914   55.4847 C   0  0  1  0  0  0  0  0  0  0  0  0
   17.0226   22.0265   56.4162 C   0  0  0  0  0  0  0  0  0  0  0  0
   17.0964   21.0757   55.6327 O   0  0  0  0  0  0  0  0  0  0  0  0
   22.0609   27.5968   66.5893 N   0  0  0  0  0  0  0  0  0  0  0  0
   14.0640   21.6073   55.7051 C   0  0  0  0  0  0  0  0  0  0  0  0
   13.5686   21.4946   57.1533 C   0  0  0  0  0  0  0  0  0  0  0  0
   12.8718   20.1477   57.3995 C   0  0  0  0  0  0  0  0  0  0  0  0
   11.7323   19.9934   56.9008 O   0  0  0  0  0  0  0  0  0  0  0  0
   13.4955   19.3005   58.0793 O   0  0  0  0  0  0  0  0  0  0  0  0
   21.6355   25.6283   65.4482 N   0  0  0  0  0  0  0  0  0  0  0  0
   13.6380   24.4560   56.8093 O   0  0  0  0  0  0  0  0  0  0  0  0
   21.3966   26.9367   65.6442 C   0  0  0  0  0  0  0  0  0  0  0  0
   13.6203   24.7095   54.5902 O   0  0  0  0  0  0  0  0  0  0  0  0
   20.4538   27.6164   64.8627 N   0  0  0  0  0  0  0  0  0  0  0  0
   19.7703   26.9185   63.8762 C   0  0  0  0  0  0  0  0  0  0  0  0
   20.0640   25.5757   63.6785 C   0  0  0  0  0  0  0  0  0  0  0  0
   18.9460   27.4952   63.1712 O   0  0  0  0  0  0  0  0  0  0  0  0
   18.0781   25.1047   62.5223 C   0  0  0  0  0  0  0  0  0  0  0  0
   19.3568   24.8202   62.7497 N   0  0  0  0  0  0  0  0  0  0  0  0
   17.6144   25.0270   61.3868 O   0  0  0  0  0  0  0  0  0  0  0  0
   19.9641   23.6084   62.1885 C   0  0  2  0  0  0  0  0  0  0  0  0
   20.5074   22.7540   63.3366 C   0  0  0  0  0  0  0  0  0  0  0  0
   20.9843   24.9383   64.4996 C   0  0  0  0  0  0  0  0  0  0  0  0
   21.2463   23.5746   64.3276 N   0  0  0  0  0  0  0  0  0  0  0  0
   21.0944   23.9736   61.2201 C   0  0  0  0  0  0  0  0  0  0  0  0
   21.1821   22.9627   60.1592 N   0  0  0  0  0  0  0  0  0  0  0  0
   18.1318   22.2919   57.4501 C   0  0  0  0  0  0  0  0  0  0  0  0
   18.5905   21.2674   58.2748 C   0  0  0  0  0  0  0  0  0  0  0  0
   19.6326   21.4953   59.1713 C   0  0  0  0  0  0  0  0  0  0  0  0
   20.1968   22.7614   59.2848 C   0  0  0  0  0  0  0  0  0  0  0  0
   19.7339   23.7878   58.4684 C   0  0  0  0  0  0  0  0  0  0  0  0
   18.7155   23.5519   57.5460 C   0  0  0  0  0  0  0  0  0  0  0  0
   13.9692   24.1253   55.6450 C   0  0  0  0  0  0  0  0  0  0  0  0
  1  3  1  0  0  0  0
  2  1  1  1  0  0  0
  2  6  1  0  0  0  0
  2 34  1  0  0  0  0
  3  4  2  0  0  0  0
  3 28  1  0  0  0  0
  5 13  1  0  0  0  0
  6  7  1  0  0  0  0
  7  8  1  0  0  0  0
  8  9  1  0  0  0  0
  8 10  1  0  0  0  0
 11 13  2  0  0  0  0
 11 24  1  0  0  0  0
 12 34  1  0  0  0  0
 13 15  1  0  0  0  0
 14 34  1  0  0  0  0
 15 16  1  0  0  0  0
 16 17  1  0  0  0  0
 16 18  2  0  0  0  0
 17 20  1  0  0  0  0
 17 24  2  0  0  0  0
 19 21  1  0  0  0  0
 19 20  1  0  0  0  0
 20 22  1  0  0  0  0
 22 23  1  0  0  0  0
 22 26  1  6  0  0  0
 23 25  1  0  0  0  0
 24 25  1  0  0  0  0
 26 27  1  0  0  0  0
 27 31  1  0  0  0  0
 28 29  2  0  0  0  0
 28 33  1  0  0  0  0
 29 30  1  0  0  0  0
 30 31  2  0  0  0  0
 31 32  1  0  0  0  0
 32 33  2  0  0  0  0
M  END
>  <CHROM.1>
63.22802389,57.46479638,-46.80924339,-174.47625456,-73.30807936,142.39562554
-148.51205002,64.21025850,-122.84336068,131.85177622,17.86631385,23.65375329
60.02195941,2.30026715,0.48568421,-2.42246723

>  <Name>
ligand

>  <RI>
0

>  <Rbt.Current_Directory>
/home/itssahil/PROJECTS/Mol_Feturizer/New_Systems/rnas/3SUH

>  <Rbt.Executable>
rbdock ($Id: //depot/dev/client3/rdock/2013.1/src/exe/rbdock.cxx#4 $)

>  <Rbt.Library>
libRbt.so (2013.1, Build901 2013/11/27)

>  <Rbt.Parameter_File>
/export/apps/rDock/src/rDock_2013.1_src/data/scripts/dock_solv.prm

>  <Rbt.Receptor>
prm/blind_docking_80.prm

>  <SCORE>
-16.1685

>  <SCORE.INTER>
-13.1061

>  <SCORE.INTER.CONST>
1

>  <SCORE.INTER.POLAR>
0

>  <SCORE.INTER.ROT>
10

>  <SCORE.INTER.SOLV>
15.4436

>  <SCORE.INTER.VDW>
-24.1519

>  <SCORE.INTER.norm>
-0.385474

>  <SCORE.INTRA>
-3.06237

>  <SCORE.INTRA.DIHEDRAL>
-3.10806

>  <SCORE.INTRA.DIHEDRAL.0>
12.2703

>  <SCORE.INTRA.POLAR>
0

>  <SCORE.INTRA.POLAR.0>
0

>  <SCORE.INTRA.REPUL>
0

>  <SCORE.INTRA.REPUL.0>
0

>  <SCORE.INTRA.SOLV>
-0.965257

>  <SCORE.INTRA.SOLV.lig_0>
-64.3214

>  <SCORE.INTRA.VDW>
-1.02571

>  <SCORE.INTRA.VDW.0>
-1.67301

>  <SCORE.INTRA.norm>
-0.0900697

>  <SCORE.RESTR>
0

>  <SCORE.RESTR.CAVITY>
0

>  <SCORE.RESTR.norm>
0

>  <SCORE.SYSTEM>
0

>  <SCORE.SYSTEM.CONST>
0

>  <SCORE.SYSTEM.DIHEDRAL>
0

>  <SCORE.SYSTEM.SOLV>
0

>  <SCORE.SYSTEM.norm>
0

>  <SCORE.heavy>
34

>  <SCORE.norm>
-0.475544

>  <RMSD>
26.090

$$$$
ligand
 OpenBabel11021811483D
libRbt.so/2013.1/901 2013/11/27
 34 36  0  0  0  0  0  0  0  0999 V2000
   15.5631   21.3283   59.3222 N   0  0  0  0  0  0  0  0  0  0  0  0
   14.1716   21.0798   58.8784 C   0  0  1  0  0  0  0  0  0  0  0  0
   15.9532   21.3079   60.6033 C   0  0  0  0  0  0  0  0  0  0  0  0
   15.2010   21.0825   61.5555 O   0  0  0  0  0  0  0  0  0  0  0  0
   18.2899   26.2280   56.5960 N   0  0  0  0  0  0  0  0  0  0  0  0
   14.0844   21.2008   57.3478 C   0  0  0  0  0  0  0  0  0  0  0  0
   14.6483   22.5400   56.8539 C   0  0  0  0  0  0  0  0  0  0  0  0
   16.1820   22.5633   56.9400 C   0  0  0  0  0  0  0  0  0  0  0  0
   16.6950   23.3072   57.8086 O   0  0  0  0  0  0  0  0  0  0  0  0
   16.8081   21.8344   56.1365 O   0  0  0  0  0  0  0  0  0  0  0  0
   20.2462   25.9283   57.7966 N   0  0  0  0  0  0  0  0  0  0  0  0
   12.4233   19.5436   59.4541 O   0  0  0  0  0  0  0  0  0  0  0  0
   18.9046   25.8806   57.7237 C   0  0  0  0  0  0  0  0  0  0  0  0
   14.5322   18.8112   59.5255 O   0  0  0  0  0  0  0  0  0  0  0  0
   18.1428   25.4680   58.8242 N   0  0  0  0  0  0  0  0  0  0  0  0
   18.7954   25.1032   59.9941 C   0  0  0  0  0  0  0  0  0  0  0  0
   20.1834   25.1331   60.0255 C   0  0  0  0  0  0  0  0  0  0  0  0
   18.1495   24.7281   60.9695 O   0  0  0  0  0  0  0  0  0  0  0  0
   20.3302   25.1545   62.3665 C   0  0  0  0  0  0  0  0  0  0  0  0
   20.8767   24.8427   61.1953 N   0  0  0  0  0  0  0  0  0  0  0  0
   20.5898   24.4957   63.3709 O   0  0  0  0  0  0  0  0  0  0  0  0
   22.2690   24.3870   61.1180 C   0  0  2  0  0  0  0  0  0  0  0  0
   23.0472   25.3375   60.2045 C   0  0  0  0  0  0  0  0  0  0  0  0
   20.8931   25.5793   58.9189 C   0  0  0  0  0  0  0  0  0  0  0  0
   22.2897   25.6509   58.9678 N   0  0  0  0  0  0  0  0  0  0  0  0
   22.3360   22.9562   60.5729 C   0  0  0  0  0  0  0  0  0  0  0  0
   21.5172   22.0699   61.4091 N   0  0  0  0  0  0  0  0  0  0  0  0
   17.4592   21.5434   60.8190 C   0  0  0  0  0  0  0  0  0  0  0  0
   17.9965   21.5571   62.1039 C   0  0  0  0  0  0  0  0  0  0  0  0
   19.3678   21.7147   62.2945 C   0  0  0  0  0  0  0  0  0  0  0  0
   20.2107   21.9055   61.2048 C   0  0  0  0  0  0  0  0  0  0  0  0
   19.6746   21.9011   59.9215 C   0  0  0  0  0  0  0  0  0  0  0  0
   18.3075   21.7078   59.7277 C   0  0  0  0  0  0  0  0  0  0  0  0
   13.6623   19.6931   59.3229 C   0  0  0  0  0  0  0  0  0  0  0  0
  1  3  1  0  0  0  0
  2  1  1  6  0  0  0
  2  6  1  0  0  0  0
  2 34  1  0  0  0  0
  3  4  2  0  0  0  0
  3 28  1  0  0  0  0
  5 13  1  0  0  0  0
  6  7  1  0  0  0  0
  7  8  1  0  0  0  0
  8  9  1  0  0  0  0
  8 10  1  0  0  0  0
 11 13  2  0  0  0  0
 11 24  1  0  0  0  0
 12 34  1  0  0  0  0
 13 15  1  0  0  0  0
 14 34  1  0  0  0  0
 15 16  1  0  0  0  0
 16 17  1  0  0  0  0
 16 18  2  0  0  0  0
 17 20  1  0  0  0  0
 17 24  2  0  0  0  0
 19 21  1  0  0  0  0
 19 20  1  0  0  0  0
 20 22  1  0  0  0  0
 22 23  1  0  0  0  0
 22 26  1  6  0  0  0
 23 25  1  0  0  0  0
 24 25  1  0  0  0  0
 26 27  1  0  0  0  0
 27 31  1  0  0  0  0
 28 29  2  0  0  0  0
 28 33  1  0  0  0  0
 29 30  1  0  0  0  0
 30 31  2  0  0  0  0
 31 32  1  0  0  0  0
 32 33  2  0  0  0  0
M  END
>  <CHROM.1>
179.24266796,-53.56759156,154.63831734,73.61119572,-109.72769607,150.92700559
-56.27510077,86.19152308,-145.21850534,179.53501335,18.17009706,23.03233674
59.68976620,-3.00136633,-0.56491506,-0.94179097

>  <Name>
ligand

>  <RI>
0

>  <Rbt.Current_Directory>
/home/itssahil/PROJECTS/Mol_Feturizer/New_Systems/rnas/3SUH

>  <Rbt.Executable>
rbdock ($Id: //depot/dev/client3/rdock/2013.1/src/exe/rbdock.cxx#4 $)

>  <Rbt.Library>
libRbt.so (2013.1, Build901 2013/11/27)

>  <Rbt.Parameter_File>
/export/apps/rDock/src/rDock_2013.1_src/data/scripts/dock_solv.prm

>  <Rbt.Receptor>
prm/blind_docking_80.prm

>  <SCORE>
-12.3121

>  <SCORE.INTER>
-5.92795

>  <SCORE.INTER.CONST>
1

>  <SCORE.INTER.POLAR>
0

>  <SCORE.INTER.ROT>
10

>  <SCORE.INTER.SOLV>
9.52483

>  <SCORE.INTER.VDW>
-17.3936

>  <SCORE.INTER.norm>
-0.174352

>  <SCORE.INTRA>
-6.39046

>  <SCORE.INTRA.DIHEDRAL>
-4.72915

>  <SCORE.INTRA.DIHEDRAL.0>
12.2703

>  <SCORE.INTRA.POLAR>
0

>  <SCORE.INTRA.POLAR.0>
0

>  <SCORE.INTRA.REPUL>
0

>  <SCORE.INTRA.REPUL.0>
0

>  <SCORE.INTRA.SOLV>
1.96968

>  <SCORE.INTRA.SOLV.lig_0>
-64.3214

>  <SCORE.INTRA.VDW>
-5.01072

>  <SCORE.INTRA.VDW.0>
-1.67301

>  <SCORE.INTRA.norm>
-0.187955

>  <SCORE.RESTR>
0.00631774

>  <SCORE.RESTR.CAVITY>
0.00631774

>  <SCORE.RESTR.norm>
0.000185816

>  <SCORE.SYSTEM>
0

>  <SCORE.SYSTEM.CONST>
0

>  <SCORE.SYSTEM.DIHEDRAL>
0

>  <SCORE.SYSTEM.SOLV>
0

>  <SCORE.SYSTEM.norm>
0

>  <SCORE.heavy>
34

>  <SCORE.norm>
-0.36212

>  <RMSD>
26.148

$$$$
ligand
 OpenBabel11021811483D
libRbt.so/2013.1/901 2013/11/27
 34 36  0  0  0  0  0  0  0  0999 V2000
   21.1921   22.2830   60.9711 N   0  0  0  0  0  0  0  0  0  0  0  0
   22.2081   22.2300   62.0480 C   0  0  1  0  0  0  0  0  0  0  0  0
   19.9727   21.7372   61.0674 C   0  0  0  0  0  0  0  0  0  0  0  0
   19.5596   21.1295   62.0590 O   0  0  0  0  0  0  0  0  0  0  0  0
   18.5562   27.4276   59.3839 N   0  0  0  0  0  0  0  0  0  0  0  0
   23.4089   23.1152   61.6741 C   0  0  0  0  0  0  0  0  0  0  0  0
   22.9961   24.5829   61.4988 C   0  0  0  0  0  0  0  0  0  0  0  0
   22.0184   24.7494   60.3255 C   0  0  0  0  0  0  0  0  0  0  0  0
   20.9461   25.3561   60.5560 O   0  0  0  0  0  0  0  0  0  0  0  0
   22.3662   24.2684   59.2226 O   0  0  0  0  0  0  0  0  0  0  0  0
   16.6382   26.3019   58.7416 N   0  0  0  0  0  0  0  0  0  0  0  0
   22.1910   22.2451   64.4453 O   0  0  0  0  0  0  0  0  0  0  0  0
   17.8623   26.7771   58.4534 C   0  0  0  0  0  0  0  0  0  0  0  0
   20.6388   23.4428   63.3753 O   0  0  0  0  0  0  0  0  0  0  0  0
   18.4188   26.5952   57.1810 N   0  0  0  0  0  0  0  0  0  0  0  0
   17.6876   25.9106   56.2196 C   0  0  0  0  0  0  0  0  0  0  0  0
   16.4399   25.4049   56.5597 C   0  0  0  0  0  0  0  0  0  0  0  0
   18.1586   25.7296   55.0995 O   0  0  0  0  0  0  0  0  0  0  0  0
   15.7085   25.1695   54.3434 C   0  0  0  0  0  0  0  0  0  0  0  0
   15.6435   24.7732   55.6109 N   0  0  0  0  0  0  0  0  0  0  0  0
   15.4643   24.3833   53.4310 O   0  0  0  0  0  0  0  0  0  0  0  0
   14.6094   23.8282   56.0464 C   0  0  2  0  0  0  0  0  0  0  0  0
   13.7807   24.4829   57.1545 C   0  0  0  0  0  0  0  0  0  0  0  0
   15.9178   25.6381   57.8248 C   0  0  0  0  0  0  0  0  0  0  0  0
   14.6418   25.1659   58.1513 N   0  0  0  0  0  0  0  0  0  0  0  0
   15.2477   22.5324   56.5585 C   0  0  0  0  0  0  0  0  0  0  0  0
   16.7104   22.6520   56.5168 N   0  0  0  0  0  0  0  0  0  0  0  0
   19.0698   21.9641   59.8414 C   0  0  0  0  0  0  0  0  0  0  0  0
   18.1314   22.9932   59.8343 C   0  0  0  0  0  0  0  0  0  0  0  0
   17.3537   23.2323   58.7030 C   0  0  0  0  0  0  0  0  0  0  0  0
   17.4742   22.4165   57.5831 C   0  0  0  0  0  0  0  0  0  0  0  0
   18.4046   21.3827   57.5917 C   0  0  0  0  0  0  0  0  0  0  0  0
   19.2081   21.1650   58.7100 C   0  0  0  0  0  0  0  0  0  0  0  0
   21.6328   22.6770   63.4078 C   0  0  0  0  0  0  0  0  0  0  0  0
  1  3  1  0  0  0  0
  2  1  1  6  0  0  0
  2  6  1  0  0  0  0
  2 34  1  0  0  0  0
  3  4  2  0  0  0  0
  3 28  1  0  0  0  0
  5 13  1  0  0  0  0
  6  7  1  0  0  0  0
  7  8  1  0  0  0  0
  8  9  1  0  0  0  0
  8 10  1  0  0  0  0
 11 13  2  0  0  0  0
 11 24  1  0  0  0  0
 12 34  1  0  0  0  0
 13 15  1  0  0  0  0
 14 34  1  0  0  0  0
 15 16  1  0  0  0  0
 16 17  1  0  0  0  0
 16 18  2  0  0  0  0
 17 20  1  0  0  0  0
 17 24  2  0  0  0  0
 19 21  1  0  0  0  0
 19 20  1  0  0  0  0
 20 22  1  0  0  0  0
 22 23  1  0  0  0  0
 22 26  1  1  0  0  0
 23 25  1  0  0  0  0
 24 25  1  0  0  0  0
 26 27  1  0  0  0  0
 27 31  1  0  0  0  0
 28 29  2  0  0  0  0
 28 33  1  0  0  0  0
 29 30  1  0  0  0  0
 30 31  2  0  0  0  0
 31 32  1  0  0  0  0
 32 33  2  0  0  0  0
M  END
>  <CHROM.1>
-172.34036648,60.85288264,155.02740269,-63.84155283,127.66483178,151.90281597
2.61958738,126.69883821,-63.94061447,-97.35474007,18.57789147,23.95522239
58.84980600,0.50971154,0.67918609,2.70065475

>  <Name>
ligand

>  <RI>
0

>  <Rbt.Current_Directory>
/home/itssahil/PROJECTS/Mol_Feturizer/New_Systems/rnas/3SUH

>  <Rbt.Executable>
rbdock ($Id: //depot/dev/client3/rdock/2013.1/src/exe/rbdock.cxx#4 $)

>  <Rbt.Library>
libRbt.so (2013.1, Build901 2013/11/27)

>  <Rbt.Parameter_File>
/export/apps/rDock/src/rDock_2013.1_src/data/scripts/dock_solv.prm

>  <Rbt.Receptor>
prm/blind_docking_100.prm

>  <SCORE>
-9.44641

>  <SCORE.INTER>
-8.1454

>  <SCORE.INTER.CONST>
1

>  <SCORE.INTER.POLAR>
0

>  <SCORE.INTER.ROT>
10

>  <SCORE.INTER.SOLV>
15.109

>  <SCORE.INTER.VDW>
-20.7333

>  <SCORE.INTER.norm>
-0.239571

>  <SCORE.INTRA>
-1.30102

>  <SCORE.INTRA.DIHEDRAL>
0.324957

>  <SCORE.INTRA.DIHEDRAL.0>
12.2703

>  <SCORE.INTRA.POLAR>
0

>  <SCORE.INTRA.POLAR.0>
0

>  <SCORE.INTRA.REPUL>
0

>  <SCORE.INTRA.REPUL.0>
0

>  <SCORE.INTRA.SOLV>
3.29458

>  <SCORE.INTRA.SOLV.lig_0>
-64.3214

>  <SCORE.INTRA.VDW>
-3.11079

>  <SCORE.INTRA.VDW.0>
-1.67301

>  <SCORE.INTRA.norm>
-0.0382652

>  <SCORE.RESTR>
0

>  <SCORE.RESTR.CAVITY>
0

>  <SCORE.RESTR.norm>
0

>  <SCORE.SYSTEM>
0

>  <SCORE.SYSTEM.CONST>
0

>  <SCORE.SYSTEM.DIHEDRAL>
0

>  <SCORE.SYSTEM.SOLV>
0

>  <SCORE.SYSTEM.norm>
0

>  <SCORE.heavy>
34

>  <SCORE.norm>
-0.277836

>  <RMSD>
26.156

$$$$
ligand
 OpenBabel11021811483D
libRbt.so/2013.1/901 2013/11/27
 34 36  0  0  0  0  0  0  0  0999 V2000
   19.9661   23.5244   60.3974 N   0  0  0  0  0  0  0  0  0  0  0  0
   20.8515   23.5840   61.5837 C   0  0  1  0  0  0  0  0  0  0  0  0
   20.3085   22.9473   59.2383 C   0  0  0  0  0  0  0  0  0  0  0  0
   21.3962   22.4036   59.0271 O   0  0  0  0  0  0  0  0  0  0  0  0
   15.5744   19.5136   61.2155 N   0  0  0  0  0  0  0  0  0  0  0  0
   20.6384   24.9142   62.3256 C   0  0  0  0  0  0  0  0  0  0  0  0
   19.1471   25.2425   62.4796 C   0  0  0  0  0  0  0  0  0  0  0  0
   18.9356   26.4442   63.4130 C   0  0  0  0  0  0  0  0  0  0  0  0
   19.8473   27.3034   63.4552 O   0  0  0  0  0  0  0  0  0  0  0  0
   17.8651   26.4787   64.0623 O   0  0  0  0  0  0  0  0  0  0  0  0
   14.4480   20.1855   59.3082 N   0  0  0  0  0  0  0  0  0  0  0  0
   19.4775   21.8592   62.5243 O   0  0  0  0  0  0  0  0  0  0  0  0
   15.3443   20.4309   60.2796 C   0  0  0  0  0  0  0  0  0  0  0  0
   21.5647   22.0752   63.2896 O   0  0  0  0  0  0  0  0  0  0  0  0
   16.0421   21.6447   60.3189 N   0  0  0  0  0  0  0  0  0  0  0  0
   15.7975   22.5924   59.3343 C   0  0  0  0  0  0  0  0  0  0  0  0
   14.8890   22.2944   58.3271 C   0  0  0  0  0  0  0  0  0  0  0  0
   16.4044   23.6604   59.3416 O   0  0  0  0  0  0  0  0  0  0  0  0
   14.5608   24.5270   57.6867 C   0  0  0  0  0  0  0  0  0  0  0  0
   14.5615   23.2382   57.3599 N   0  0  0  0  0  0  0  0  0  0  0  0
   13.5400   25.0614   58.1142 O   0  0  0  0  0  0  0  0  0  0  0  0
   14.0326   22.7952   56.0653 C   0  0  2  0  0  0  0  0  0  0  0  0
   12.8948   21.8015   56.3133 C   0  0  0  0  0  0  0  0  0  0  0  0
   14.1992   21.0898   58.3488 C   0  0  0  0  0  0  0  0  0  0  0  0
   13.2518   20.8100   57.3578 N   0  0  0  0  0  0  0  0  0  0  0  0
   15.1370   22.1374   55.2310 C   0  0  0  0  0  0  0  0  0  0  0  0
   16.3199   23.0064   55.2039 N   0  0  0  0  0  0  0  0  0  0  0  0
   19.2058   22.9618   58.1642 C   0  0  0  0  0  0  0  0  0  0  0  0
   18.7991   24.1607   57.5836 C   0  0  0  0  0  0  0  0  0  0  0  0
   17.8406   24.1665   56.5722 C   0  0  0  0  0  0  0  0  0  0  0  0
   17.2458   22.9780   56.1619 C   0  0  0  0  0  0  0  0  0  0  0  0
   17.6443   21.7808   56.7469 C   0  0  0  0  0  0  0  0  0  0  0  0
   18.6289   21.7703   57.7339 C   0  0  0  0  0  0  0  0  0  0  0  0
   20.6078   22.4037   62.5467 C   0  0  0  0  0  0  0  0  0  0  0  0
  1  3  1  0  0  0  0
  2  1  1  6  0  0  0
  2  6  1  0  0  0  0
  2 34  1  0  0  0  0
  3  4  2  0  0  0  0
  3 28  1  0  0  0  0
  5 13  1  0  0  0  0
  6  7  1  0  0  0  0
  7  8  1  0  0  0  0
  8  9  1  0  0  0  0
  8 10  1  0  0  0  0
 11 13  2  0  0  0  0
 11 24  1  0  0  0  0
 12 34  1  0  0  0  0
 13 15  1  0  0  0  0
 14 34  1  0  0  0  0
 15 16  1  0  0  0  0
 16 17  1  0  0  0  0
 16 18  2  0  0  0  0
 17 20  1  0  0  0  0
 17 24  2  0  0  0  0
 19 21  1  0  0  0  0
 19 20  1  0  0  0  0
 20 22  1  0  0  0  0
 22 23  1  0  0  0  0
 22 26  1  6  0  0  0
 23 25  1  0  0  0  0
 24 25  1  0  0  0  0
 26 27  1  0  0  0  0
 27 31  1  0  0  0  0
 28 29  2  0  0  0  0
 28 33  1  0  0  0  0
 29 30  1  0  0  0  0
 30 31  2  0  0  0  0
 31 32  1  0  0  0  0
 32 33  2  0  0  0  0
M  END
>  <CHROM.1>
144.62688940,45.22523969,-25.17937620,170.76361240,29.46797191,-90.12517854
-49.66284969,85.58599177,-142.29819969,67.74746814,17.28102896,23.03957499
59.42081441,-0.80465520,0.13259456,-2.07479051

>  <Name>
ligand

>  <RI>
0

>  <Rbt.Current_Directory>
/home/itssahil/PROJECTS/Mol_Feturizer/New_Systems/rnas/3SUH

>  <Rbt.Executable>
rbdock ($Id: //depot/dev/client3/rdock/2013.1/src/exe/rbdock.cxx#4 $)

>  <Rbt.Library>
libRbt.so (2013.1, Build901 2013/11/27)

>  <Rbt.Parameter_File>
/export/apps/rDock/src/rDock_2013.1_src/data/scripts/dock_solv.prm

>  <Rbt.Receptor>
prm/blind_docking_80.prm

>  <SCORE>
-11.767

>  <SCORE.INTER>
-6.68303

>  <SCORE.INTER.CONST>
1

>  <SCORE.INTER.POLAR>
0

>  <SCORE.INTER.ROT>
10

>  <SCORE.INTER.SOLV>
14.4942

>  <SCORE.INTER.VDW>
-19.5534

>  <SCORE.INTER.norm>
-0.19656

>  <SCORE.INTRA>
-5.08401

>  <SCORE.INTRA.DIHEDRAL>
-3.33271

>  <SCORE.INTRA.DIHEDRAL.0>
12.2703

>  <SCORE.INTRA.POLAR>
0

>  <SCORE.INTRA.POLAR.0>
0

>  <SCORE.INTRA.REPUL>
0

>  <SCORE.INTRA.REPUL.0>
0

>  <SCORE.INTRA.SOLV>
0.642057

>  <SCORE.INTRA.SOLV.lig_0>
-64.3214

>  <SCORE.INTRA.VDW>
-3.73868

>  <SCORE.INTRA.VDW.0>
-1.67301

>  <SCORE.INTRA.norm>
-0.14953

>  <SCORE.RESTR>
0

>  <SCORE.RESTR.CAVITY>
0

>  <SCORE.RESTR.norm>
0

>  <SCORE.SYSTEM>
0

>  <SCORE.SYSTEM.CONST>
0

>  <SCORE.SYSTEM.DIHEDRAL>
0

>  <SCORE.SYSTEM.SOLV>
0

>  <SCORE.SYSTEM.norm>
0

>  <SCORE.heavy>
34

>  <SCORE.norm>
-0.346089

>  <RMSD>
26.210

$$$$
ligand
 OpenBabel11021811483D
libRbt.so/2013.1/901 2013/11/27
 34 36  0  0  0  0  0  0  0  0999 V2000
   18.5591   23.5612   61.3598 N   0  0  0  0  0  0  0  0  0  0  0  0
   19.7373   24.2893   61.8857 C   0  0  1  0  0  0  0  0  0  0  0  0
   18.0766   22.4337   61.8982 C   0  0  0  0  0  0  0  0  0  0  0  0
   18.5575   21.8749   62.8880 O   0  0  0  0  0  0  0  0  0  0  0  0
   13.1981   25.7912   58.3177 N   0  0  0  0  0  0  0  0  0  0  0  0
   20.8390   24.3388   60.8138 C   0  0  0  0  0  0  0  0  0  0  0  0
   21.2477   22.9314   60.3583 C   0  0  0  0  0  0  0  0  0  0  0  0
   21.9111   22.1476   61.5010 C   0  0  0  0  0  0  0  0  0  0  0  0
   23.1526   22.2630   61.6286 O   0  0  0  0  0  0  0  0  0  0  0  0
   21.1612   21.4519   62.2238 O   0  0  0  0  0  0  0  0  0  0  0  0
   12.3537   23.6540   58.0388 N   0  0  0  0  0  0  0  0  0  0  0  0
   19.6056   26.0305   63.5284 O   0  0  0  0  0  0  0  0  0  0  0  0
   13.3314   24.5556   57.8424 C   0  0  0  0  0  0  0  0  0  0  0  0
   18.8804   26.4762   61.4634 O   0  0  0  0  0  0  0  0  0  0  0  0
   14.4933   24.2093   57.1411 N   0  0  0  0  0  0  0  0  0  0  0  0
   14.6236   22.9157   56.6541 C   0  0  0  0  0  0  0  0  0  0  0  0
   13.6095   22.0000   56.9021 C   0  0  0  0  0  0  0  0  0  0  0  0
   15.6378   22.5852   56.0448 O   0  0  0  0  0  0  0  0  0  0  0  0
   14.2547   20.5208   55.1999 C   0  0  0  0  0  0  0  0  0  0  0  0
   13.6650   20.7143   56.3757 N   0  0  0  0  0  0  0  0  0  0  0  0
   15.4061   20.0950   55.1423 O   0  0  0  0  0  0  0  0  0  0  0  0
   12.9067   19.6351   57.0180 C   0  0  2  0  0  0  0  0  0  0  0  0
   11.4678   20.1090   57.2380 C   0  0  0  0  0  0  0  0  0  0  0  0
   12.4629   22.3997   57.5752 C   0  0  0  0  0  0  0  0  0  0  0  0
   11.4230   21.4874   57.7854 N   0  0  0  0  0  0  0  0  0  0  0  0
   13.5478   19.2516   58.3562 C   0  0  0  0  0  0  0  0  0  0  0  0
   13.4764   20.3884   59.2823 N   0  0  0  0  0  0  0  0  0  0  0  0
   16.8125   21.8850   61.2120 C   0  0  0  0  0  0  0  0  0  0  0  0
   16.1078   22.6653   60.2986 C   0  0  0  0  0  0  0  0  0  0  0  0
   14.9962   22.1476   59.6367 C   0  0  0  0  0  0  0  0  0  0  0  0
   14.5506   20.8597   59.9145 C   0  0  0  0  0  0  0  0  0  0  0  0
   15.2479   20.0823   60.8330 C   0  0  0  0  0  0  0  0  0  0  0  0
   16.3811   20.5868   61.4694 C   0  0  0  0  0  0  0  0  0  0  0  0
   19.3791   25.7214   62.3335 C   0  0  0  0  0  0  0  0  0  0  0  0
  1  3  1  0  0  0  0
  2  1  1  6  0  0  0
  2  6  1  0  0  0  0
  2 34  1  0  0  0  0
  3  4  2  0  0  0  0
  3 28  1  0  0  0  0
  5 13  1  0  0  0  0
  6  7  1  0  0  0  0
  7  8  1  0  0  0  0
  8  9  1  0  0  0  0
  8 10  1  0  0  0  0
 11 13  2  0  0  0  0
 11 24  1  0  0  0  0
 12 34  1  0  0  0  0
 13 15  1  0  0  0  0
 14 34  1  0  0  0  0
 15 16  1  0  0  0  0
 16 17  1  0  0  0  0
 16 18  2  0  0  0  0
 17 20  1  0  0  0  0
 17 24  2  0  0  0  0
 19 21  1  0  0  0  0
 19 20  1  0  0  0  0
 20 22  1  0  0  0  0
 22 23  1  0  0  0  0
 22 26  1  1  0  0  0
 23 25  1  0  0  0  0
 24 25  1  0  0  0  0
 26 27  1  0  0  0  0
 27 31  1  0  0  0  0
 28 29  2  0  0  0  0
 28 33  1  0  0  0  0
 29 30  1  0  0  0  0
 30 31  2  0  0  0  0
 31 32  1  0  0  0  0
 32 33  2  0  0  0  0
M  END
>  <CHROM.1>
118.83726222,-57.60937143,121.47732127,-65.54454407,-88.88436685,99.82134123
64.03140145,-127.36692398,115.17432131,-12.39975637,16.30273304,22.43616447
59.42188801,0.35634525,-0.53284696,0.21039660

>  <Name>
ligand

>  <RI>
0

>  <Rbt.Current_Directory>
/home/itssahil/PROJECTS/Mol_Feturizer/New_Systems/rnas/3SUH

>  <Rbt.Executable>
rbdock ($Id: //depot/dev/client3/rdock/2013.1/src/exe/rbdock.cxx#4 $)

>  <Rbt.Library>
libRbt.so (2013.1, Build901 2013/11/27)

>  <Rbt.Parameter_File>
/export/apps/rDock/src/rDock_2013.1_src/data/scripts/dock_solv.prm

>  <Rbt.Receptor>
prm/blind_docking_80.prm

>  <SCORE>
-8.33746

>  <SCORE.INTER>
-5.00525

>  <SCORE.INTER.CONST>
1

>  <SCORE.INTER.POLAR>
0

>  <SCORE.INTER.ROT>
10

>  <SCORE.INTER.SOLV>
12.7993

>  <SCORE.INTER.VDW>
-17.8699

>  <SCORE.INTER.norm>
-0.147213

>  <SCORE.INTRA>
-3.33221

>  <SCORE.INTRA.DIHEDRAL>
-2.9825

>  <SCORE.INTRA.DIHEDRAL.0>
12.2703

>  <SCORE.INTRA.POLAR>
0

>  <SCORE.INTRA.POLAR.0>
0

>  <SCORE.INTRA.REPUL>
0

>  <SCORE.INTRA.REPUL.0>
0

>  <SCORE.INTRA.SOLV>
2.50224

>  <SCORE.INTRA.SOLV.lig_0>
-64.3214

>  <SCORE.INTRA.VDW>
-3.09208

>  <SCORE.INTRA.VDW.0>
-1.67301

>  <SCORE.INTRA.norm>
-0.0980062

>  <SCORE.RESTR>
0

>  <SCORE.RESTR.CAVITY>
0

>  <SCORE.RESTR.norm>
0

>  <SCORE.SYSTEM>
0

>  <SCORE.SYSTEM.CONST>
0

>  <SCORE.SYSTEM.DIHEDRAL>
0

>  <SCORE.SYSTEM.SOLV>
0

>  <SCORE.SYSTEM.norm>
0

>  <SCORE.heavy>
34

>  <SCORE.norm>
-0.24522

>  <RMSD>
26.237

$$$$
ligand
 OpenBabel11021811483D
libRbt.so/2013.1/901 2013/11/27
 34 36  0  0  0  0  0  0  0  0999 V2000
   15.9165   24.0221   57.2799 N   0  0  0  0  0  0  0  0  0  0  0  0
   14.8824   23.7145   56.2645 C   0  0  1  0  0  0  0  0  0  0  0  0
   17.1726   23.5598   57.2302 C   0  0  0  0  0  0  0  0  0  0  0  0
   17.6088   22.8271   56.3380 O   0  0  0  0  0  0  0  0  0  0  0  0
   15.8486   20.4306   61.0855 N   0  0  0  0  0  0  0  0  0  0  0  0
   13.5001   24.1456   56.7827 C   0  0  0  0  0  0  0  0  0  0  0  0
   13.0493   23.2861   57.9716 C   0  0  0  0  0  0  0  0  0  0  0  0
   12.9963   21.7980   57.5938 C   0  0  0  0  0  0  0  0  0  0  0  0
   13.8559   21.0457   58.1097 O   0  0  0  0  0  0  0  0  0  0  0  0
   12.0951   21.4447   56.7989 O   0  0  0  0  0  0  0  0  0  0  0  0
   17.3203   21.4502   62.5527 N   0  0  0  0  0  0  0  0  0  0  0  0
   16.0218   25.3293   54.9072 O   0  0  0  0  0  0  0  0  0  0  0  0
   17.0357   20.9817   61.3252 C   0  0  0  0  0  0  0  0  0  0  0  0
   14.5324   23.9892   53.9198 O   0  0  0  0  0  0  0  0  0  0  0  0
   17.9767   21.0669   60.2912 N   0  0  0  0  0  0  0  0  0  0  0  0
   19.2102   21.6484   60.5517 C   0  0  0  0  0  0  0  0  0  0  0  0
   19.4601   22.1513   61.8218 C   0  0  0  0  0  0  0  0  0  0  0  0
   20.0481   21.7438   59.6585 O   0  0  0  0  0  0  0  0  0  0  0  0
   21.7922   22.1775   61.5712 C   0  0  0  0  0  0  0  0  0  0  0  0
   20.7043   22.6797   62.1476 N   0  0  0  0  0  0  0  0  0  0  0  0
   22.7718   22.8894   61.3614 O   0  0  0  0  0  0  0  0  0  0  0  0
   20.8186   23.6334   63.2564 C   0  0  2  0  0  0  0  0  0  0  0  0
   20.0970   23.0565   64.4770 C   0  0  0  0  0  0  0  0  0  0  0  0
   18.5071   22.0151   62.8221 C   0  0  0  0  0  0  0  0  0  0  0  0
   18.7781   22.4827   64.1127 N   0  0  0  0  0  0  0  0  0  0  0  0
   20.2057   24.9834   62.8685 C   0  0  0  0  0  0  0  0  0  0  0  0
   20.5256   25.2873   61.4683 N   0  0  0  0  0  0  0  0  0  0  0  0
   18.0837   24.0550   58.3680 C   0  0  0  0  0  0  0  0  0  0  0  0
   17.5419   24.4391   59.5922 C   0  0  0  0  0  0  0  0  0  0  0  0
   18.3721   24.8340   60.6394 C   0  0  0  0  0  0  0  0  0  0  0  0
   19.7499   24.8922   60.4593 C   0  0  0  0  0  0  0  0  0  0  0  0
   20.2920   24.5175   59.2345 C   0  0  0  0  0  0  0  0  0  0  0  0
   19.4648   24.0882   58.1976 C   0  0  0  0  0  0  0  0  0  0  0  0
   15.1735   24.4047   54.9158 C   0  0  0  0  0  0  0  0  0  0  0  0
  1  3  1  0  0  0  0
  2  1  1  1  0  0  0
  2  6  1  0  0  0  0
  2 34  1  0  0  0  0
  3  4  2  0  0  0  0
  3 28  1  0  0  0  0
  5 13  1  0  0  0  0
  6  7  1  0  0  0  0
  7  8  1  0  0  0  0
  8  9  1  0  0  0  0
  8 10  1  0  0  0  0
 11 13  2  0  0  0  0
 11 24  1  0  0  0  0
 12 34  1  0  0  0  0
 13 15  1  0  0  0  0
 14 34  1  0  0  0  0
 15 16  1  0  0  0  0
 16 17  1  0  0  0  0
 16 18  2  0  0  0  0
 17 20  1  0  0  0  0
 17 24  2  0  0  0  0
 19 21  1  0  0  0  0
 19 20  1  0  0  0  0
 20 22  1  0  0  0  0
 22 23  1  0  0  0  0
 22 26  1  6  0  0  0
 23 25  1  0  0  0  0
 24 25  1  0  0  0  0
 26 27  1  0  0  0  0
 27 31  1  0  0  0  0
 28 29  2  0  0  0  0
 28 33  1  0  0  0  0
 29 30  1  0  0  0  0
 30 31  2  0  0  0  0
 31 32  1  0  0  0  0
 32 33  2  0  0  0  0
M  END
>  <CHROM.1>
167.80121534,-67.55153396,-15.02454659,-58.20425810,110.33646499,149.16662800
-38.81673569,88.81318433,34.06116237,25.90515241,17.64472040,23.06386630
59.52610737,-2.45831737,0.43275642,2.08533883

>  <Name>
ligand

>  <RI>
0

>  <Rbt.Current_Directory>
/home/itssahil/PROJECTS/Mol_Feturizer/New_Systems/rnas/3SUH

>  <Rbt.Executable>
rbdock ($Id: //depot/dev/client3/rdock/2013.1/src/exe/rbdock.cxx#4 $)

>  <Rbt.Library>
libRbt.so (2013.1, Build901 2013/11/27)

>  <Rbt.Parameter_File>
/export/apps/rDock/src/rDock_2013.1_src/data/scripts/dock_solv.prm

>  <Rbt.Receptor>
prm/blind_docking_80.prm

>  <SCORE>
-9.81215

>  <SCORE.INTER>
-4.38195

>  <SCORE.INTER.CONST>
1

>  <SCORE.INTER.POLAR>
0

>  <SCORE.INTER.ROT>
10

>  <SCORE.INTER.SOLV>
12.7525

>  <SCORE.INTER.VDW>
-17.4388

>  <SCORE.INTER.norm>
-0.128881

>  <SCORE.INTRA>
-5.4302

>  <SCORE.INTRA.DIHEDRAL>
-3.80363

>  <SCORE.INTRA.DIHEDRAL.0>
12.2703

>  <SCORE.INTRA.POLAR>
0

>  <SCORE.INTRA.POLAR.0>
0

>  <SCORE.INTRA.REPUL>
0

>  <SCORE.INTRA.REPUL.0>
0

>  <SCORE.INTRA.SOLV>
1.96428

>  <SCORE.INTRA.SOLV.lig_0>
-64.3214

>  <SCORE.INTRA.VDW>
-4.51053

>  <SCORE.INTRA.VDW.0>
-1.67301

>  <SCORE.INTRA.norm>
-0.159712

>  <SCORE.RESTR>
0

>  <SCORE.RESTR.CAVITY>
0

>  <SCORE.RESTR.norm>
0

>  <SCORE.SYSTEM>
0

>  <SCORE.SYSTEM.CONST>
0

>  <SCORE.SYSTEM.DIHEDRAL>
0

>  <SCORE.SYSTEM.SOLV>
0

>  <SCORE.SYSTEM.norm>
0

>  <SCORE.heavy>
34

>  <SCORE.norm>
-0.288593

>  <RMSD>
26.420

$$$$
ligand
 OpenBabel11021811483D
libRbt.so/2013.1/901 2013/11/27
 34 36  0  0  0  0  0  0  0  0999 V2000
   15.5372   22.3124   57.8247 N   0  0  0  0  0  0  0  0  0  0  0  0
   14.1586   21.9920   57.3871 C   0  0  1  0  0  0  0  0  0  0  0  0
   16.5938   22.3425   57.0021 C   0  0  0  0  0  0  0  0  0  0  0  0
   16.5395   22.1062   55.7920 O   0  0  0  0  0  0  0  0  0  0  0  0
   16.2975   22.6724   63.0558 N   0  0  0  0  0  0  0  0  0  0  0  0
   13.6982   23.0107   56.3309 C   0  0  0  0  0  0  0  0  0  0  0  0
   13.8403   24.4526   56.8370 C   0  0  0  0  0  0  0  0  0  0  0  0
   12.8548   24.7407   57.9798 C   0  0  0  0  0  0  0  0  0  0  0  0
   11.7391   25.2181   57.6663 O   0  0  0  0  0  0  0  0  0  0  0  0
   13.2381   24.4747   59.1421 O   0  0  0  0  0  0  0  0  0  0  0  0
   18.1859   24.0062   62.9404 N   0  0  0  0  0  0  0  0  0  0  0  0
   14.5251   20.3560   55.6733 O   0  0  0  0  0  0  0  0  0  0  0  0
   17.5911   22.8116   62.7775 C   0  0  0  0  0  0  0  0  0  0  0  0
   13.4892   19.7066   57.5425 O   0  0  0  0  0  0  0  0  0  0  0  0
   18.3188   21.7073   62.3163 N   0  0  0  0  0  0  0  0  0  0  0  0
   19.6669   21.8655   62.0244 C   0  0  0  0  0  0  0  0  0  0  0  0
   20.2428   23.1204   62.1730 C   0  0  0  0  0  0  0  0  0  0  0  0
   20.3238   20.9143   61.6088 O   0  0  0  0  0  0  0  0  0  0  0  0
   22.4476   22.3221   62.2385 C   0  0  0  0  0  0  0  0  0  0  0  0
   21.6034   23.3106   61.9587 N   0  0  0  0  0  0  0  0  0  0  0  0
   22.7533   22.0740   63.4027 O   0  0  0  0  0  0  0  0  0  0  0  0
   22.1038   24.6480   61.6224 C   0  0  2  0  0  0  0  0  0  0  0  0
   21.5293   25.6536   62.6234 C   0  0  0  0  0  0  0  0  0  0  0  0
   19.4874   24.1770   62.6632 C   0  0  0  0  0  0  0  0  0  0  0  0
   20.0808   25.4297   62.8543 N   0  0  0  0  0  0  0  0  0  0  0  0
   21.6964   25.0304   60.1954 C   0  0  0  0  0  0  0  0  0  0  0  0
   21.5257   23.8161   59.3880 N   0  0  0  0  0  0  0  0  0  0  0  0
   17.9176   22.7514   57.6731 C   0  0  0  0  0  0  0  0  0  0  0  0
   18.7180   21.7985   58.2984 C   0  0  0  0  0  0  0  0  0  0  0  0
   19.9423   22.1607   58.8566 C   0  0  0  0  0  0  0  0  0  0  0  0
   20.3586   23.4876   58.8351 C   0  0  0  0  0  0  0  0  0  0  0  0
   19.5563   24.4420   58.2189 C   0  0  0  0  0  0  0  0  0  0  0  0
   18.3478   24.0745   57.6289 C   0  0  0  0  0  0  0  0  0  0  0  0
   14.0509   20.5628   56.8165 C   0  0  0  0  0  0  0  0  0  0  0  0
  1  3  1  0  0  0  0
  2  1  1  6  0  0  0
  2  6  1  0  0  0  0
  2 34  1  0  0  0  0
  3  4  2  0  0  0  0
  3 28  1  0  0  0  0
  5 13  1  0  0  0  0
  6  7  1  0  0  0  0
  7  8  1  0  0  0  0
  8  9  1  0  0  0  0
  8 10  1  0  0  0  0
 11 13  2  0  0  0  0
 11 24  1  0  0  0  0
 12 34  1  0  0  0  0
 13 15  1  0  0  0  0
 14 34  1  0  0  0  0
 15 16  1  0  0  0  0
 16 17  1  0  0  0  0
 16 18  2  0  0  0  0
 17 20  1  0  0  0  0
 17 24  2  0  0  0  0
 19 21  1  0  0  0  0
 19 20  1  0  0  0  0
 20 22  1  0  0  0  0
 22 23  1  0  0  0  0
 22 26  1  6  0  0  0
 23 25  1  0  0  0  0
 24 25  1  0  0  0  0
 26 27  1  0  0  0  0
 27 31  1  0  0  0  0
 28 29  2  0  0  0  0
 28 33  1  0  0  0  0
 29 30  1  0  0  0  0
 30 31  2  0  0  0  0
 31 32  1  0  0  0  0
 32 33  2  0  0  0  0
M  END
>  <CHROM.1>
-60.13203101,-54.24215972,-74.43966758,-67.77340409,-91.90923672,-76.36681902
-27.04921153,118.33637824,-138.68418211,86.37534972,17.84402012,23.02215920
59.67888964,-2.56331277,-0.21125805,1.09259473

>  <Name>
ligand

>  <RI>
0

>  <Rbt.Current_Directory>
/home/itssahil/PROJECTS/Mol_Feturizer/New_Systems/rnas/3SUH

>  <Rbt.Executable>
rbdock ($Id: //depot/dev/client3/rdock/2013.1/src/exe/rbdock.cxx#4 $)

>  <Rbt.Library>
libRbt.so (2013.1, Build901 2013/11/27)

>  <Rbt.Parameter_File>
/export/apps/rDock/src/rDock_2013.1_src/data/scripts/dock_solv.prm

>  <Rbt.Receptor>
prm/blind_docking_100.prm

>  <SCORE>
-12.112

>  <SCORE.INTER>
-9.37068

>  <SCORE.INTER.CONST>
1

>  <SCORE.INTER.POLAR>
0

>  <SCORE.INTER.ROT>
10

>  <SCORE.INTER.SOLV>
14.3195

>  <SCORE.INTER.VDW>
-21.2869

>  <SCORE.INTER.norm>
-0.275608

>  <SCORE.INTRA>
-2.74132

>  <SCORE.INTRA.DIHEDRAL>
-1.4317

>  <SCORE.INTRA.DIHEDRAL.0>
12.2703

>  <SCORE.INTRA.POLAR>
0

>  <SCORE.INTRA.POLAR.0>
0

>  <SCORE.INTRA.REPUL>
0

>  <SCORE.INTRA.REPUL.0>
0

>  <SCORE.INTRA.SOLV>
1.53237

>  <SCORE.INTRA.SOLV.lig_0>
-64.3214

>  <SCORE.INTRA.VDW>
-2.79165

>  <SCORE.INTRA.VDW.0>
-1.67301

>  <SCORE.INTRA.norm>
-0.080627

>  <SCORE.RESTR>
0

>  <SCORE.RESTR.CAVITY>
0

>  <SCORE.RESTR.norm>
0

>  <SCORE.SYSTEM>
0

>  <SCORE.SYSTEM.CONST>
0

>  <SCORE.SYSTEM.DIHEDRAL>
0

>  <SCORE.SYSTEM.SOLV>
0

>  <SCORE.SYSTEM.norm>
0

>  <SCORE.heavy>
34

>  <SCORE.norm>
-0.356235

>  <RMSD>
26.449

$$$$
ligand
 OpenBabel11021811483D
libRbt.so/2013.1/901 2013/11/27
 34 36  0  0  0  0  0  0  0  0999 V2000
   14.9848   21.5316   57.4967 N   0  0  0  0  0  0  0  0  0  0  0  0
   13.6747   21.3993   56.8177 C   0  0  1  0  0  0  0  0  0  0  0  0
   15.1361   21.9975   58.7433 C   0  0  0  0  0  0  0  0  0  0  0  0
   14.2058   22.3694   59.4640 O   0  0  0  0  0  0  0  0  0  0  0  0
   18.4108   25.8690   57.4514 N   0  0  0  0  0  0  0  0  0  0  0  0
   13.8754   20.8147   55.4095 C   0  0  0  0  0  0  0  0  0  0  0  0
   14.8561   21.6572   54.5825 C   0  0  0  0  0  0  0  0  0  0  0  0
   16.3097   21.3903   55.0019 C   0  0  0  0  0  0  0  0  0  0  0  0
   16.9372   22.3398   55.5271 O   0  0  0  0  0  0  0  0  0  0  0  0
   16.7609   20.2412   54.7904 O   0  0  0  0  0  0  0  0  0  0  0  0
   20.0416   25.0913   58.8984 N   0  0  0  0  0  0  0  0  0  0  0  0
   13.1787   19.5535   58.2650 O   0  0  0  0  0  0  0  0  0  0  0  0
   18.7681   25.4520   58.6634 C   0  0  0  0  0  0  0  0  0  0  0  0
   11.4806   20.8193   57.5559 O   0  0  0  0  0  0  0  0  0  0  0  0
   17.8086   25.3940   59.6821 N   0  0  0  0  0  0  0  0  0  0  0  0
   18.1918   24.9526   60.9414 C   0  0  0  0  0  0  0  0  0  0  0  0
   19.5077   24.5571   61.1421 C   0  0  0  0  0  0  0  0  0  0  0  0
   17.3661   24.8833   61.8484 O   0  0  0  0  0  0  0  0  0  0  0  0
   19.4181   24.7420   63.4788 C   0  0  0  0  0  0  0  0  0  0  0  0
   19.9529   24.1736   62.4023 N   0  0  0  0  0  0  0  0  0  0  0  0
   19.5658   25.9440   63.6877 O   0  0  0  0  0  0  0  0  0  0  0  0
   21.1305   23.3070   62.5220 C   0  0  2  0  0  0  0  0  0  0  0  0
   22.2565   23.8863   61.6617 C   0  0  0  0  0  0  0  0  0  0  0  0
   20.4293   24.6624   60.1092 C   0  0  0  0  0  0  0  0  0  0  0  0
   21.7647   24.3053   60.3260 N   0  0  0  0  0  0  0  0  0  0  0  0
   20.7968   21.8821   62.0669 C   0  0  0  0  0  0  0  0  0  0  0  0
   20.4846   21.8818   60.6324 N   0  0  0  0  0  0  0  0  0  0  0  0
   16.5872   21.9952   59.2571 C   0  0  0  0  0  0  0  0  0  0  0  0
   16.8619   21.7514   60.6006 C   0  0  0  0  0  0  0  0  0  0  0  0
   18.1785   21.6945   61.0535 C   0  0  0  0  0  0  0  0  0  0  0  0
   19.2331   21.9254   60.1766 C   0  0  0  0  0  0  0  0  0  0  0  0
   18.9603   22.1778   58.8364 C   0  0  0  0  0  0  0  0  0  0  0  0
   17.6447   22.1997   58.3753 C   0  0  0  0  0  0  0  0  0  0  0  0
   12.6965   20.5136   57.6167 C   0  0  0  0  0  0  0  0  0  0  0  0
  1  3  1  0  0  0  0
  2  1  1  1  0  0  0
  2  6  1  0  0  0  0
  2 34  1  0  0  0  0
  3  4  2  0  0  0  0
  3 28  1  0  0  0  0
  5 13  1  0  0  0  0
  6  7  1  0  0  0  0
  7  8  1  0  0  0  0
  8  9  1  0  0  0  0
  8 10  1  0  0  0  0
 11 13  2  0  0  0  0
 11 24  1  0  0  0  0
 12 34  1  0  0  0  0
 13 15  1  0  0  0  0
 14 34  1  0  0  0  0
 15 16  1  0  0  0  0
 16 17  1  0  0  0  0
 16 18  2  0  0  0  0
 17 20  1  0  0  0  0
 17 24  2  0  0  0  0
 19 21  1  0  0  0  0
 19 20  1  0  0  0  0
 20 22  1  0  0  0  0
 22 23  1  0  0  0  0
 22 26  1  6  0  0  0
 23 25  1  0  0  0  0
 24 25  1  0  0  0  0
 26 27  1  0  0  0  0
 27 31  1  0  0  0  0
 28 29  2  0  0  0  0
 28 33  1  0  0  0  0
 29 30  1  0  0  0  0
 30 31  2  0  0  0  0
 31 32  1  0  0  0  0
 32 33  2  0  0  0  0
M  END
>  <CHROM.1>
-179.20762885,-55.81830295,-33.93046316,77.08145465,-114.55593684,-64.46620666
65.32975329,-96.92028023,-13.27016855,-145.78733348,17.51458959,22.85717380
59.24922655,2.43689369,-0.37727833,-1.73609139

>  <Name>
ligand

>  <RI>
0

>  <Rbt.Current_Directory>
/home/itssahil/PROJECTS/Mol_Feturizer/New_Systems/rnas/3SUH

>  <Rbt.Executable>
rbdock ($Id: //depot/dev/client3/rdock/2013.1/src/exe/rbdock.cxx#4 $)

>  <Rbt.Library>
libRbt.so (2013.1, Build901 2013/11/27)

>  <Rbt.Parameter_File>
/export/apps/rDock/src/rDock_2013.1_src/data/scripts/dock_solv.prm

>  <Rbt.Receptor>
prm/blind_docking_80.prm

>  <SCORE>
-9.35646

>  <SCORE.INTER>
-4.83604

>  <SCORE.INTER.CONST>
1

>  <SCORE.INTER.POLAR>
0

>  <SCORE.INTER.ROT>
10

>  <SCORE.INTER.SOLV>
7.34896

>  <SCORE.INTER.VDW>
-15.9403

>  <SCORE.INTER.norm>
-0.142236

>  <SCORE.INTRA>
-4.52042

>  <SCORE.INTRA.DIHEDRAL>
-3.80355

>  <SCORE.INTRA.DIHEDRAL.0>
12.2703

>  <SCORE.INTRA.POLAR>
0

>  <SCORE.INTRA.POLAR.0>
0

>  <SCORE.INTRA.REPUL>
0

>  <SCORE.INTRA.REPUL.0>
0

>  <SCORE.INTRA.SOLV>
3.02132

>  <SCORE.INTRA.SOLV.lig_0>
-64.3214

>  <SCORE.INTRA.VDW>
-4.1293

>  <SCORE.INTRA.VDW.0>
-1.67301

>  <SCORE.INTRA.norm>
-0.132953

>  <SCORE.RESTR>
0

>  <SCORE.RESTR.CAVITY>
0

>  <SCORE.RESTR.norm>
0

>  <SCORE.SYSTEM>
0

>  <SCORE.SYSTEM.CONST>
0

>  <SCORE.SYSTEM.DIHEDRAL>
0

>  <SCORE.SYSTEM.SOLV>
0

>  <SCORE.SYSTEM.norm>
0

>  <SCORE.heavy>
34

>  <SCORE.norm>
-0.27519

>  <RMSD>
26.480

$$$$
ligand
 OpenBabel11021811483D
libRbt.so/2013.1/901 2013/11/27
 34 36  0  0  0  0  0  0  0  0999 V2000
   16.1674   23.5314   56.4359 N   0  0  0  0  0  0  0  0  0  0  0  0
   14.9462   23.3563   55.6157 C   0  0  1  0  0  0  0  0  0  0  0  0
   17.1268   22.6043   56.5541 C   0  0  0  0  0  0  0  0  0  0  0  0
   17.1017   21.5032   55.9973 O   0  0  0  0  0  0  0  0  0  0  0  0
   15.7740   22.4487   62.6613 N   0  0  0  0  0  0  0  0  0  0  0  0
   13.6998   23.6356   56.4724 C   0  0  0  0  0  0  0  0  0  0  0  0
   13.5436   22.6022   57.5962 C   0  0  0  0  0  0  0  0  0  0  0  0
   14.6702   22.7326   58.6325 C   0  0  0  0  0  0  0  0  0  0  0  0
   14.8120   23.8481   59.1861 O   0  0  0  0  0  0  0  0  0  0  0  0
   15.3636   21.7125   58.8503 O   0  0  0  0  0  0  0  0  0  0  0  0
   17.5905   23.8586   62.9279 N   0  0  0  0  0  0  0  0  0  0  0  0
   15.6077   25.3391   54.4416 O   0  0  0  0  0  0  0  0  0  0  0  0
   17.0831   22.6673   62.5663 C   0  0  0  0  0  0  0  0  0  0  0  0
   14.2740   23.8895   53.3888 O   0  0  0  0  0  0  0  0  0  0  0  0
   17.9183   21.6494   62.0888 N   0  0  0  0  0  0  0  0  0  0  0  0
   19.2819   21.8906   61.9894 C   0  0  0  0  0  0  0  0  0  0  0  0
   19.7693   23.1426   62.3408 C   0  0  0  0  0  0  0  0  0  0  0  0
   20.0334   21.0170   61.5638 O   0  0  0  0  0  0  0  0  0  0  0  0
   21.9878   22.4273   62.6031 C   0  0  0  0  0  0  0  0  0  0  0  0
   21.1341   23.4074   62.3228 N   0  0  0  0  0  0  0  0  0  0  0  0
   22.9190   22.1747   61.8419 O   0  0  0  0  0  0  0  0  0  0  0  0
   21.6018   24.7920   62.1950 C   0  0  2  0  0  0  0  0  0  0  0  0
   20.8573   25.6582   63.2142 C   0  0  0  0  0  0  0  0  0  0  0  0
   18.9055   24.1089   62.8384 C   0  0  0  0  0  0  0  0  0  0  0  0
   19.4051   25.3547   63.2336 N   0  0  0  0  0  0  0  0  0  0  0  0
   21.3532   25.3135   60.7755 C   0  0  0  0  0  0  0  0  0  0  0  0
   21.4830   24.2115   59.8143 N   0  0  0  0  0  0  0  0  0  0  0  0
   18.3272   23.0302   57.4186 C   0  0  0  0  0  0  0  0  0  0  0  0
   18.7639   24.3528   57.4210 C   0  0  0  0  0  0  0  0  0  0  0  0
   19.8150   24.7483   58.2460 C   0  0  0  0  0  0  0  0  0  0  0  0
   20.4700   23.8163   59.0439 C   0  0  0  0  0  0  0  0  0  0  0  0
   20.0411   22.4933   59.0361 C   0  0  0  0  0  0  0  0  0  0  0  0
   18.9665   22.1039   58.2377 C   0  0  0  0  0  0  0  0  0  0  0  0
   14.9454   24.2753   54.3767 C   0  0  0  0  0  0  0  0  0  0  0  0
  1  3  1  0  0  0  0
  2  1  1  1  0  0  0
  2  6  1  0  0  0  0
  2 34  1  0  0  0  0
  3  4  2  0  0  0  0
  3 28  1  0  0  0  0
  5 13  1  0  0  0  0
  6  7  1  0  0  0  0
  7  8  1  0  0  0  0
  8  9  1  0  0  0  0
  8 10  1  0  0  0  0
 11 13  2  0  0  0  0
 11 24  1  0  0  0  0
 12 34  1  0  0  0  0
 13 15  1  0  0  0  0
 14 34  1  0  0  0  0
 15 16  1  0  0  0  0
 16 17  1  0  0  0  0
 16 18  2  0  0  0  0
 17 20  1  0  0  0  0
 17 24  2  0  0  0  0
 19 21  1  0  0  0  0
 19 20  1  0  0  0  0
 20 22  1  0  0  0  0
 22 23  1  0  0  0  0
 22 26  1  6  0  0  0
 23 25  1  0  0  0  0
 24 25  1  0  0  0  0
 26 27  1  0  0  0  0
 27 31  1  0  0  0  0
 28 29  2  0  0  0  0
 28 33  1  0  0  0  0
 29 30  1  0  0  0  0
 30 31  2  0  0  0  0
 31 32  1  0  0  0  0
 32 33  2  0  0  0  0
M  END
>  <CHROM.1>
126.84345393,-65.25235599,-26.15888305,67.16012398,56.91725715,128.20591551
-32.82921277,118.35132650,54.17048145,-34.62518881,18.06881099,23.33062773
59.44250150,-2.29802027,0.18289673,1.72898751

>  <Name>
ligand

>  <RI>
0

>  <Rbt.Current_Directory>
/home/itssahil/PROJECTS/Mol_Feturizer/New_Systems/rnas/3SUH

>  <Rbt.Executable>
rbdock ($Id: //depot/dev/client3/rdock/2013.1/src/exe/rbdock.cxx#4 $)

>  <Rbt.Library>
libRbt.so (2013.1, Build901 2013/11/27)

>  <Rbt.Parameter_File>
/export/apps/rDock/src/rDock_2013.1_src/data/scripts/dock_solv.prm

>  <Rbt.Receptor>
prm/blind_docking_100.prm

>  <SCORE>
-10.8279

>  <SCORE.INTER>
-7.22481

>  <SCORE.INTER.CONST>
1

>  <SCORE.INTER.POLAR>
0

>  <SCORE.INTER.ROT>
10

>  <SCORE.INTER.SOLV>
12.265

>  <SCORE.INTER.VDW>
-19.1715

>  <SCORE.INTER.norm>
-0.212494

>  <SCORE.INTRA>
-3.61607

>  <SCORE.INTRA.DIHEDRAL>
-0.908752

>  <SCORE.INTRA.DIHEDRAL.0>
12.2703

>  <SCORE.INTRA.POLAR>
0

>  <SCORE.INTRA.POLAR.0>
0

>  <SCORE.INTRA.REPUL>
0

>  <SCORE.INTRA.REPUL.0>
0

>  <SCORE.INTRA.SOLV>
2.14664

>  <SCORE.INTRA.SOLV.lig_0>
-64.3214

>  <SCORE.INTRA.VDW>
-4.23501

>  <SCORE.INTRA.VDW.0>
-1.67301

>  <SCORE.INTRA.norm>
-0.106355

>  <SCORE.RESTR>
0.0129804

>  <SCORE.RESTR.CAVITY>
0.0129804

>  <SCORE.RESTR.norm>
0.000381776

>  <SCORE.SYSTEM>
0

>  <SCORE.SYSTEM.CONST>
0

>  <SCORE.SYSTEM.DIHEDRAL>
0

>  <SCORE.SYSTEM.SOLV>
0

>  <SCORE.SYSTEM.norm>
0

>  <SCORE.heavy>
34

>  <SCORE.norm>
-0.318468

>  <RMSD>
26.483

$$$$
ligand
 OpenBabel11021811483D
libRbt.so/2013.1/901 2013/11/27
 34 36  0  0  0  0  0  0  0  0999 V2000
   16.4670   23.4542   55.9205 N   0  0  0  0  0  0  0  0  0  0  0  0
   15.6974   23.6050   54.6636 C   0  0  1  0  0  0  0  0  0  0  0  0
   17.0818   22.3226   56.2885 C   0  0  0  0  0  0  0  0  0  0  0  0
   17.0756   21.2812   55.6262 O   0  0  0  0  0  0  0  0  0  0  0  0
   20.5593   27.4546   56.8473 N   0  0  0  0  0  0  0  0  0  0  0  0
   14.2713   23.0634   54.8588 C   0  0  0  0  0  0  0  0  0  0  0  0
   14.2731   21.5531   55.1318 C   0  0  0  0  0  0  0  0  0  0  0  0
   12.8994   21.0758   55.6273 C   0  0  0  0  0  0  0  0  0  0  0  0
   12.8835   20.3101   56.6195 O   0  0  0  0  0  0  0  0  0  0  0  0
   11.8947   21.4895   55.0042 O   0  0  0  0  0  0  0  0  0  0  0  0
   21.7206   26.2960   58.4805 N   0  0  0  0  0  0  0  0  0  0  0  0
   14.6971   25.4036   53.4340 O   0  0  0  0  0  0  0  0  0  0  0  0
   20.5874   26.8724   58.0434 C   0  0  0  0  0  0  0  0  0  0  0  0
   16.5476   25.8342   54.6083 O   0  0  0  0  0  0  0  0  0  0  0  0
   19.4315   26.8677   58.8343 N   0  0  0  0  0  0  0  0  0  0  0  0
   19.4713   26.2529   60.0785 C   0  0  0  0  0  0  0  0  0  0  0  0
   20.6482   25.6390   60.4862 C   0  0  0  0  0  0  0  0  0  0  0  0
   18.4674   26.2269   60.7860 O   0  0  0  0  0  0  0  0  0  0  0  0
   20.0810   25.6104   62.7621 C   0  0  0  0  0  0  0  0  0  0  0  0
   20.7554   25.0713   61.7510 N   0  0  0  0  0  0  0  0  0  0  0  0
   20.6114   26.4463   63.4902 O   0  0  0  0  0  0  0  0  0  0  0  0
   21.7535   24.0237   61.9926 C   0  0  2  0  0  0  0  0  0  0  0  0
   23.1055   24.4996   61.4550 C   0  0  0  0  0  0  0  0  0  0  0  0
   21.7769   25.6975   59.6799 C   0  0  0  0  0  0  0  0  0  0  0  0
   22.9742   25.1166   60.1121 N   0  0  0  0  0  0  0  0  0  0  0  0
   21.3397   22.7190   61.3033 C   0  0  0  0  0  0  0  0  0  0  0  0
   19.8759   22.6491   61.2155 N   0  0  0  0  0  0  0  0  0  0  0  0
   17.8641   22.4185   57.6109 C   0  0  0  0  0  0  0  0  0  0  0  0
   17.7724   23.5580   58.4064 C   0  0  0  0  0  0  0  0  0  0  0  0
   18.4369   23.6210   59.6296 C   0  0  0  0  0  0  0  0  0  0  0  0
   19.2363   22.5632   60.0495 C   0  0  0  0  0  0  0  0  0  0  0  0
   19.3362   21.4280   59.2522 C   0  0  0  0  0  0  0  0  0  0  0  0
   18.6433   21.3497   58.0449 C   0  0  0  0  0  0  0  0  0  0  0  0
   15.6391   25.0734   54.1943 C   0  0  0  0  0  0  0  0  0  0  0  0
  1  3  1  0  0  0  0
  2  1  1  1  0  0  0
  2  6  1  0  0  0  0
  2 34  1  0  0  0  0
  3  4  2  0  0  0  0
  3 28  1  0  0  0  0
  5 13  1  0  0  0  0
  6  7  1  0  0  0  0
  7  8  1  0  0  0  0
  8  9  1  0  0  0  0
  8 10  1  0  0  0  0
 11 13  2  0  0  0  0
 11 24  1  0  0  0  0
 12 34  1  0  0  0  0
 13 15  1  0  0  0  0
 14 34  1  0  0  0  0
 15 16  1  0  0  0  0
 16 17  1  0  0  0  0
 16 18  2  0  0  0  0
 17 20  1  0  0  0  0
 17 24  2  0  0  0  0
 19 21  1  0  0  0  0
 19 20  1  0  0  0  0
 20 22  1  0  0  0  0
 22 23  1  0  0  0  0
 22 26  1  6  0  0  0
 23 25  1  0  0  0  0
 24 25  1  0  0  0  0
 26 27  1  0  0  0  0
 27 31  1  0  0  0  0
 28 29  2  0  0  0  0
 28 33  1  0  0  0  0
 29 30  1  0  0  0  0
 30 31  2  0  0  0  0
 31 32  1  0  0  0  0
 32 33  2  0  0  0  0
M  END
>  <CHROM.1>
82.99114804,-64.54375588,-157.16545958,167.50524700,-134.05336051,-93.61207522
-28.90559285,120.01658238,-113.42761394,7.49274129,18.27395066,24.03983261
58.26815359,-2.96562395,0.75151934,2.45963976

>  <Name>
ligand

>  <RI>
0

>  <Rbt.Current_Directory>
/home/itssahil/PROJECTS/Mol_Feturizer/New_Systems/rnas/3SUH

>  <Rbt.Executable>
rbdock ($Id: //depot/dev/client3/rdock/2013.1/src/exe/rbdock.cxx#4 $)

>  <Rbt.Library>
libRbt.so (2013.1, Build901 2013/11/27)

>  <Rbt.Parameter_File>
/export/apps/rDock/src/rDock_2013.1_src/data/scripts/dock_solv.prm

>  <Rbt.Receptor>
prm/blind_docking_100.prm

>  <SCORE>
-9.34156

>  <SCORE.INTER>
-8.10292

>  <SCORE.INTER.CONST>
1

>  <SCORE.INTER.POLAR>
0

>  <SCORE.INTER.ROT>
10

>  <SCORE.INTER.SOLV>
11.7837

>  <SCORE.INTER.VDW>
-19.5965

>  <SCORE.INTER.norm>
-0.238321

>  <SCORE.INTRA>
-1.27058

>  <SCORE.INTRA.DIHEDRAL>
-1.04089

>  <SCORE.INTRA.DIHEDRAL.0>
12.2703

>  <SCORE.INTRA.POLAR>
0

>  <SCORE.INTRA.POLAR.0>
0

>  <SCORE.INTRA.REPUL>
0

>  <SCORE.INTRA.REPUL.0>
0

>  <SCORE.INTRA.SOLV>
1.08311

>  <SCORE.INTRA.SOLV.lig_0>
-64.3214

>  <SCORE.INTRA.VDW>
-1.2917

>  <SCORE.INTRA.VDW.0>
-1.67301

>  <SCORE.INTRA.norm>
-0.0373701

>  <SCORE.RESTR>
0.0319491

>  <SCORE.RESTR.CAVITY>
0.0319491

>  <SCORE.RESTR.norm>
0.00093968

>  <SCORE.SYSTEM>
0

>  <SCORE.SYSTEM.CONST>
0

>  <SCORE.SYSTEM.DIHEDRAL>
0

>  <SCORE.SYSTEM.SOLV>
0

>  <SCORE.SYSTEM.norm>
0

>  <SCORE.heavy>
34

>  <SCORE.norm>
-0.274752

>  <RMSD>
26.587

$$$$
ligand
 OpenBabel11021811483D
libRbt.so/2013.1/901 2013/11/27
 34 36  0  0  0  0  0  0  0  0999 V2000
   19.0758   22.1989   62.1249 N   0  0  0  0  0  0  0  0  0  0  0  0
   20.4091   22.4925   62.7003 C   0  0  1  0  0  0  0  0  0  0  0  0
   18.8771   21.3923   61.0742 C   0  0  0  0  0  0  0  0  0  0  0  0
   19.7780   20.8060   60.4678 O   0  0  0  0  0  0  0  0  0  0  0  0
   15.5537   25.5352   57.9771 N   0  0  0  0  0  0  0  0  0  0  0  0
   21.0342   23.6969   61.9766 C   0  0  0  0  0  0  0  0  0  0  0  0
   21.2024   23.4287   60.4749 C   0  0  0  0  0  0  0  0  0  0  0  0
   21.7944   24.6497   59.7546 C   0  0  0  0  0  0  0  0  0  0  0  0
   22.4920   24.4307   58.7365 O   0  0  0  0  0  0  0  0  0  0  0  0
   21.5341   25.7760   60.2366 O   0  0  0  0  0  0  0  0  0  0  0  0
   13.8413   23.9778   57.9988 N   0  0  0  0  0  0  0  0  0  0  0  0
   19.2421   23.1789   64.6788 O   0  0  0  0  0  0  0  0  0  0  0  0
   15.0814   24.3412   57.6280 C   0  0  0  0  0  0  0  0  0  0  0  0
   21.3842   22.5780   64.8767 O   0  0  0  0  0  0  0  0  0  0  0  0
   15.8857   23.4754   56.8763 N   0  0  0  0  0  0  0  0  0  0  0  0
   15.3841   22.2302   56.5222 C   0  0  0  0  0  0  0  0  0  0  0  0
   14.1115   21.8735   56.9485 C   0  0  0  0  0  0  0  0  0  0  0  0
   16.0744   21.4494   55.8718 O   0  0  0  0  0  0  0  0  0  0  0  0
   13.8440   20.1606   55.3684 C   0  0  0  0  0  0  0  0  0  0  0  0
   13.5418   20.6659   56.5605 N   0  0  0  0  0  0  0  0  0  0  0  0
   13.4756   20.7246   54.3405 O   0  0  0  0  0  0  0  0  0  0  0  0
   12.4745   20.0738   57.3744 C   0  0  2  0  0  0  0  0  0  0  0  0
   11.4201   21.1468   57.6579 C   0  0  0  0  0  0  0  0  0  0  0  0
   13.3406   22.7786   57.6653 C   0  0  0  0  0  0  0  0  0  0  0  0
   12.0420   22.4338   58.0558 N   0  0  0  0  0  0  0  0  0  0  0  0
   13.0419   19.5290   58.6896 C   0  0  0  0  0  0  0  0  0  0  0  0
   13.4650   20.6446   59.5450 N   0  0  0  0  0  0  0  0  0  0  0  0
   17.4003   21.1966   60.6862 C   0  0  0  0  0  0  0  0  0  0  0  0
   16.7088   22.1960   60.0059 C   0  0  0  0  0  0  0  0  0  0  0  0
   15.3890   21.9954   59.6064 C   0  0  0  0  0  0  0  0  0  0  0  0
   14.7321   20.8109   59.9225 C   0  0  0  0  0  0  0  0  0  0  0  0
   15.4183   19.8154   60.6098 C   0  0  0  0  0  0  0  0  0  0  0  0
   16.7499   20.0011   60.9786 C   0  0  0  0  0  0  0  0  0  0  0  0
   20.3355   22.7737   64.2153 C   0  0  0  0  0  0  0  0  0  0  0  0
  1  3  1  0  0  0  0
  2  1  1  6  0  0  0
  2  6  1  0  0  0  0
  2 34  1  0  0  0  0
  3  4  2  0  0  0  0
  3 28  1  0  0  0  0
  5 13  1  0  0  0  0
  6  7  1  0  0  0  0
  7  8  1  0  0  0  0
  8  9  1  0  0  0  0
  8 10  1  0  0  0  0
 11 13  2  0  0  0  0
 11 24  1  0  0  0  0
 12 34  1  0  0  0  0
 13 15  1  0  0  0  0
 14 34  1  0  0  0  0
 15 16  1  0  0  0  0
 16 17  1  0  0  0  0
 16 18  2  0  0  0  0
 17 20  1  0  0  0  0
 17 24  2  0  0  0  0
 19 21  1  0  0  0  0
 19 20  1  0  0  0  0
 20 22  1  0  0  0  0
 22 23  1  0  0  0  0
 22 26  1  1  0  0  0
 23 25  1  0  0  0  0
 24 25  1  0  0  0  0
 26 27  1  0  0  0  0
 27 31  1  0  0  0  0
 28 29  2  0  0  0  0
 28 33  1  0  0  0  0
 29 30  1  0  0  0  0
 30 31  2  0  0  0  0
 31 32  1  0  0  0  0
 32 33  2  0  0  0  0
M  END
>  <CHROM.1>
88.11451589,-59.77201924,-24.07532343,178.57008564,150.38307162,-67.37793789
69.35352593,-117.78031620,121.84584398,76.18387623,16.73183434,22.21970118
59.35488077,0.41476649,0.49389159,2.02861541

>  <Name>
ligand

>  <RI>
0

>  <Rbt.Current_Directory>
/home/itssahil/PROJECTS/Mol_Feturizer/New_Systems/rnas/3SUH

>  <Rbt.Executable>
rbdock ($Id: //depot/dev/client3/rdock/2013.1/src/exe/rbdock.cxx#4 $)

>  <Rbt.Library>
libRbt.so (2013.1, Build901 2013/11/27)

>  <Rbt.Parameter_File>
/export/apps/rDock/src/rDock_2013.1_src/data/scripts/dock_solv.prm

>  <Rbt.Receptor>
prm/blind_docking_80.prm

>  <SCORE>
-7.52755

>  <SCORE.INTER>
-4.87531

>  <SCORE.INTER.CONST>
1

>  <SCORE.INTER.POLAR>
0

>  <SCORE.INTER.ROT>
10

>  <SCORE.INTER.SOLV>
10.1892

>  <SCORE.INTER.VDW>
-16.9133

>  <SCORE.INTER.norm>
-0.143391

>  <SCORE.INTRA>
-2.65224

>  <SCORE.INTRA.DIHEDRAL>
-3.93293

>  <SCORE.INTRA.DIHEDRAL.0>
12.2703

>  <SCORE.INTRA.POLAR>
0

>  <SCORE.INTRA.POLAR.0>
0

>  <SCORE.INTRA.REPUL>
0

>  <SCORE.INTRA.REPUL.0>
0

>  <SCORE.INTRA.SOLV>
2.41125

>  <SCORE.INTRA.SOLV.lig_0>
-64.3214

>  <SCORE.INTRA.VDW>
-1.8914

>  <SCORE.INTRA.VDW.0>
-1.67301

>  <SCORE.INTRA.norm>
-0.0780071

>  <SCORE.RESTR>
0

>  <SCORE.RESTR.CAVITY>
0

>  <SCORE.RESTR.norm>
0

>  <SCORE.SYSTEM>
0

>  <SCORE.SYSTEM.CONST>
0

>  <SCORE.SYSTEM.DIHEDRAL>
0

>  <SCORE.SYSTEM.SOLV>
0

>  <SCORE.SYSTEM.norm>
0

>  <SCORE.heavy>
34

>  <SCORE.norm>
-0.221399

>  <RMSD>
26.617

$$$$
ligand
 OpenBabel11021811483D
libRbt.so/2013.1/901 2013/11/27
 34 36  0  0  0  0  0  0  0  0999 V2000
   19.6141   23.2978   60.7843 N   0  0  0  0  0  0  0  0  0  0  0  0
   20.3407   23.3713   62.0733 C   0  0  1  0  0  0  0  0  0  0  0  0
   20.2099   23.0971   59.6016 C   0  0  0  0  0  0  0  0  0  0  0  0
   21.4265   22.9530   59.4518 O   0  0  0  0  0  0  0  0  0  0  0  0
   14.7214   19.3048   61.2527 N   0  0  0  0  0  0  0  0  0  0  0  0
   19.3737   23.7937   63.1921 C   0  0  0  0  0  0  0  0  0  0  0  0
   18.3702   22.6803   63.5216 C   0  0  0  0  0  0  0  0  0  0  0  0
   17.4469   22.3924   62.3280 C   0  0  0  0  0  0  0  0  0  0  0  0
   17.5676   21.2781   61.7670 O   0  0  0  0  0  0  0  0  0  0  0  0
   16.6383   23.2925   62.0042 O   0  0  0  0  0  0  0  0  0  0  0  0
   14.0335   19.8322   59.1064 N   0  0  0  0  0  0  0  0  0  0  0  0
   21.9812   22.0597   63.2291 O   0  0  0  0  0  0  0  0  0  0  0  0
   14.6536   20.1754   60.2488 C   0  0  0  0  0  0  0  0  0  0  0  0
   20.5253   20.9976   61.9096 O   0  0  0  0  0  0  0  0  0  0  0  0
   15.2315   21.4426   60.3961 N   0  0  0  0  0  0  0  0  0  0  0  0
   15.1588   22.3410   59.3401 C   0  0  0  0  0  0  0  0  0  0  0  0
   14.5394   21.9436   58.1625 C   0  0  0  0  0  0  0  0  0  0  0  0
   15.6671   23.4548   59.4417 O   0  0  0  0  0  0  0  0  0  0  0  0
   14.2102   24.1244   57.3637 C   0  0  0  0  0  0  0  0  0  0  0  0
   14.3825   22.8318   57.1043 N   0  0  0  0  0  0  0  0  0  0  0  0
   13.0803   24.5874   57.5019 O   0  0  0  0  0  0  0  0  0  0  0  0
   14.2094   22.3132   55.7429 C   0  0  2  0  0  0  0  0  0  0  0  0
   13.1210   21.2370   55.7616 C   0  0  0  0  0  0  0  0  0  0  0  0
   13.9539   20.6877   58.0759 C   0  0  0  0  0  0  0  0  0  0  0  0
   13.2916   20.3057   56.9041 N   0  0  0  0  0  0  0  0  0  0  0  0
   15.5252   21.7260   55.2209 C   0  0  0  0  0  0  0  0  0  0  0  0
   16.5743   22.7523   55.2598 N   0  0  0  0  0  0  0  0  0  0  0  0
   19.2458   23.0059   58.4050 C   0  0  0  0  0  0  0  0  0  0  0  0
   18.7716   21.7704   57.9707 C   0  0  0  0  0  0  0  0  0  0  0  0
   17.8558   21.6936   56.9233 C   0  0  0  0  0  0  0  0  0  0  0  0
   17.4388   22.8482   56.2693 C   0  0  0  0  0  0  0  0  0  0  0  0
   17.9182   24.0821   56.6959 C   0  0  0  0  0  0  0  0  0  0  0  0
   18.8071   24.1626   57.7669 C   0  0  0  0  0  0  0  0  0  0  0  0
   21.0076   22.0290   62.4381 C   0  0  0  0  0  0  0  0  0  0  0  0
  1  3  1  0  0  0  0
  2  1  1  6  0  0  0
  2  6  1  0  0  0  0
  2 34  1  0  0  0  0
  3  4  2  0  0  0  0
  3 28  1  0  0  0  0
  5 13  1  0  0  0  0
  6  7  1  0  0  0  0
  7  8  1  0  0  0  0
  8  9  1  0  0  0  0
  8 10  1  0  0  0  0
 11 13  2  0  0  0  0
 11 24  1  0  0  0  0
 12 34  1  0  0  0  0
 13 15  1  0  0  0  0
 14 34  1  0  0  0  0
 15 16  1  0  0  0  0
 16 17  1  0  0  0  0
 16 18  2  0  0  0  0
 17 20  1  0  0  0  0
 17 24  2  0  0  0  0
 19 21  1  0  0  0  0
 19 20  1  0  0  0  0
 20 22  1  0  0  0  0
 22 23  1  0  0  0  0
 22 26  1  1  0  0  0
 23 25  1  0  0  0  0
 24 25  1  0  0  0  0
 26 27  1  0  0  0  0
 27 31  1  0  0  0  0
 28 29  2  0  0  0  0
 28 33  1  0  0  0  0
 29 30  1  0  0  0  0
 30 31  2  0  0  0  0
 31 32  1  0  0  0  0
 32 33  2  0  0  0  0
M  END
>  <CHROM.1>
172.55233231,70.34186625,157.05589266,-64.57577116,112.73981184,-90.89027596
-57.50461893,96.61220825,33.28373856,-93.30274771,16.97316349,22.29708475
59.28399804,-0.66090000,-0.31270535,-1.29248607

>  <Name>
ligand

>  <RI>
0

>  <Rbt.Current_Directory>
/home/itssahil/PROJECTS/Mol_Feturizer/New_Systems/rnas/3SUH

>  <Rbt.Executable>
rbdock ($Id: //depot/dev/client3/rdock/2013.1/src/exe/rbdock.cxx#4 $)

>  <Rbt.Library>
libRbt.so (2013.1, Build901 2013/11/27)

>  <Rbt.Parameter_File>
/export/apps/rDock/src/rDock_2013.1_src/data/scripts/dock_solv.prm

>  <Rbt.Receptor>
prm/blind_docking_80.prm

>  <SCORE>
-15.5716

>  <SCORE.INTER>
-8.6808

>  <SCORE.INTER.CONST>
1

>  <SCORE.INTER.POLAR>
0

>  <SCORE.INTER.ROT>
10

>  <SCORE.INTER.SOLV>
13.4506

>  <SCORE.INTER.VDW>
-20.5374

>  <SCORE.INTER.norm>
-0.255318

>  <SCORE.INTRA>
-6.8908

>  <SCORE.INTRA.DIHEDRAL>
-4.83258

>  <SCORE.INTRA.DIHEDRAL.0>
12.2703

>  <SCORE.INTRA.POLAR>
0

>  <SCORE.INTRA.POLAR.0>
0

>  <SCORE.INTRA.REPUL>
0

>  <SCORE.INTRA.REPUL.0>
0

>  <SCORE.INTRA.SOLV>
0.903322

>  <SCORE.INTRA.SOLV.lig_0>
-64.3214

>  <SCORE.INTRA.VDW>
-4.92618

>  <SCORE.INTRA.VDW.0>
-1.67301

>  <SCORE.INTRA.norm>
-0.202671

>  <SCORE.RESTR>
0

>  <SCORE.RESTR.CAVITY>
0

>  <SCORE.RESTR.norm>
0

>  <SCORE.SYSTEM>
0

>  <SCORE.SYSTEM.CONST>
0

>  <SCORE.SYSTEM.DIHEDRAL>
0

>  <SCORE.SYSTEM.SOLV>
0

>  <SCORE.SYSTEM.norm>
0

>  <SCORE.heavy>
34

>  <SCORE.norm>
-0.457988

>  <RMSD>
26.655

$$$$
ligand
 OpenBabel11021811483D
libRbt.so/2013.1/901 2013/11/27
 34 36  0  0  0  0  0  0  0  0999 V2000
   19.4914   22.7597   59.6253 N   0  0  0  0  0  0  0  0  0  0  0  0
   20.4166   22.8640   60.7777 C   0  0  1  0  0  0  0  0  0  0  0  0
   19.4131   23.6699   58.6458 C   0  0  0  0  0  0  0  0  0  0  0  0
   20.0982   24.6951   58.5933 O   0  0  0  0  0  0  0  0  0  0  0  0
   14.7852   19.7193   60.9126 N   0  0  0  0  0  0  0  0  0  0  0  0
   20.1979   21.6760   61.7295 C   0  0  0  0  0  0  0  0  0  0  0  0
   18.8106   21.7245   62.3841 C   0  0  0  0  0  0  0  0  0  0  0  0
   18.6641   22.9593   63.2863 C   0  0  0  0  0  0  0  0  0  0  0  0
   18.0242   23.9329   62.8240 O   0  0  0  0  0  0  0  0  0  0  0  0
   19.1933   22.9015   64.4200 O   0  0  0  0  0  0  0  0  0  0  0  0
   13.7955   20.0256   58.8426 N   0  0  0  0  0  0  0  0  0  0  0  0
   22.7613   23.1053   61.2159 O   0  0  0  0  0  0  0  0  0  0  0  0
   14.5822   20.4744   59.8361 C   0  0  0  0  0  0  0  0  0  0  0  0
   22.1166   22.7545   59.1064 O   0  0  0  0  0  0  0  0  0  0  0  0
   15.1935   21.7318   59.7518 N   0  0  0  0  0  0  0  0  0  0  0  0
   14.9785   22.5088   58.6215 C   0  0  0  0  0  0  0  0  0  0  0  0
   14.1864   22.0022   57.5996 C   0  0  0  0  0  0  0  0  0  0  0  0
   15.5119   23.6108   58.5199 O   0  0  0  0  0  0  0  0  0  0  0  0
   13.7739   24.0896   56.6124 C   0  0  0  0  0  0  0  0  0  0  0  0
   13.8876   22.7715   56.4806 N   0  0  0  0  0  0  0  0  0  0  0  0
   12.8424   24.5744   57.2509 O   0  0  0  0  0  0  0  0  0  0  0  0
   13.5081   22.1102   55.2272 C   0  0  2  0  0  0  0  0  0  0  0  0
   12.4192   21.0769   55.5269 C   0  0  0  0  0  0  0  0  0  0  0  0
   13.5768   20.7632   57.7434 C   0  0  0  0  0  0  0  0  0  0  0  0
   12.7433   20.2737   56.7317 N   0  0  0  0  0  0  0  0  0  0  0  0
   14.7239   21.4282   54.5907 C   0  0  0  0  0  0  0  0  0  0  0  0
   15.8159   22.3988   54.4467 N   0  0  0  0  0  0  0  0  0  0  0  0
   18.4155   23.3227   57.5259 C   0  0  0  0  0  0  0  0  0  0  0  0
   17.8522   24.3277   56.7433 C   0  0  0  0  0  0  0  0  0  0  0  0
   16.9927   24.0079   55.6942 C   0  0  0  0  0  0  0  0  0  0  0  0
   16.6518   22.6827   55.4450 C   0  0  0  0  0  0  0  0  0  0  0  0
   17.2064   21.6785   56.2313 C   0  0  0  0  0  0  0  0  0  0  0  0
   18.0943   21.9950   57.2585 C   0  0  0  0  0  0  0  0  0  0  0  0
   21.8925   22.9113   60.3315 C   0  0  0  0  0  0  0  0  0  0  0  0
  1  3  1  0  0  0  0
  2  1  1  6  0  0  0
  2  6  1  0  0  0  0
  2 34  1  0  0  0  0
  3  4  2  0  0  0  0
  3 28  1  0  0  0  0
  5 13  1  0  0  0  0
  6  7  1  0  0  0  0
  7  8  1  0  0  0  0
  8  9  1  0  0  0  0
  8 10  1  0  0  0  0
 11 13  2  0  0  0  0
 11 24  1  0  0  0  0
 12 34  1  0  0  0  0
 13 15  1  0  0  0  0
 14 34  1  0  0  0  0
 15 16  1  0  0  0  0
 16 17  1  0  0  0  0
 16 18  2  0  0  0  0
 17 20  1  0  0  0  0
 17 24  2  0  0  0  0
 19 21  1  0  0  0  0
 19 20  1  0  0  0  0
 20 22  1  0  0  0  0
 22 23  1  0  0  0  0
 22 26  1  1  0  0  0
 23 25  1  0  0  0  0
 24 25  1  0  0  0  0
 26 27  1  0  0  0  0
 27 31  1  0  0  0  0
 28 29  2  0  0  0  0
 28 33  1  0  0  0  0
 29 30  1  0  0  0  0
 30 31  2  0  0  0  0
 31 32  1  0  0  0  0
 32 33  2  0  0  0  0
M  END
>  <CHROM.1>
177.79158089,-66.06880650,174.52577053,-64.19880336,101.36398175,-67.81447408
-53.50962390,83.64572025,-136.29914775,155.63940319,16.88013838,22.48668408
58.62596962,-0.59682416,-0.30159050,-1.34697876

>  <Name>
ligand

>  <RI>
0

>  <Rbt.Current_Directory>
/home/itssahil/PROJECTS/Mol_Feturizer/New_Systems/rnas/3SUH

>  <Rbt.Executable>
rbdock ($Id: //depot/dev/client3/rdock/2013.1/src/exe/rbdock.cxx#4 $)

>  <Rbt.Library>
libRbt.so (2013.1, Build901 2013/11/27)

>  <Rbt.Parameter_File>
/export/apps/rDock/src/rDock_2013.1_src/data/scripts/dock_solv.prm

>  <Rbt.Receptor>
prm/blind_docking_80.prm

>  <SCORE>
-17.2076

>  <SCORE.INTER>
-10.4345

>  <SCORE.INTER.CONST>
1

>  <SCORE.INTER.POLAR>
0

>  <SCORE.INTER.ROT>
10

>  <SCORE.INTER.SOLV>
11.0887

>  <SCORE.INTER.VDW>
-20.9192

>  <SCORE.INTER.norm>
-0.306896

>  <SCORE.INTRA>
-6.77312

>  <SCORE.INTRA.DIHEDRAL>
-5.32136

>  <SCORE.INTRA.DIHEDRAL.0>
12.2703

>  <SCORE.INTRA.POLAR>
0

>  <SCORE.INTRA.POLAR.0>
0

>  <SCORE.INTRA.REPUL>
0

>  <SCORE.INTRA.REPUL.0>
0

>  <SCORE.INTRA.SOLV>
0.756644

>  <SCORE.INTRA.SOLV.lig_0>
-64.3214

>  <SCORE.INTRA.VDW>
-4.49076

>  <SCORE.INTRA.VDW.0>
-1.67301

>  <SCORE.INTRA.norm>
-0.199209

>  <SCORE.RESTR>
0

>  <SCORE.RESTR.CAVITY>
0

>  <SCORE.RESTR.norm>
0

>  <SCORE.SYSTEM>
0

>  <SCORE.SYSTEM.CONST>
0

>  <SCORE.SYSTEM.DIHEDRAL>
0

>  <SCORE.SYSTEM.SOLV>
0

>  <SCORE.SYSTEM.norm>
0

>  <SCORE.heavy>
34

>  <SCORE.norm>
-0.506106

>  <RMSD>
26.898

$$$$
ligand
 OpenBabel11021811483D
libRbt.so/2013.1/901 2013/11/27
 34 36  0  0  0  0  0  0  0  0999 V2000
   19.5395   22.6773   59.6933 N   0  0  0  0  0  0  0  0  0  0  0  0
   20.4445   22.8109   60.8586 C   0  0  1  0  0  0  0  0  0  0  0  0
   19.3364   23.6458   58.7906 C   0  0  0  0  0  0  0  0  0  0  0  0
   19.8763   24.7550   58.8278 O   0  0  0  0  0  0  0  0  0  0  0  0
   14.7705   19.5402   60.9028 N   0  0  0  0  0  0  0  0  0  0  0  0
   20.1928   21.6602   61.8473 C   0  0  0  0  0  0  0  0  0  0  0  0
   18.7295   21.6211   62.3081 C   0  0  0  0  0  0  0  0  0  0  0  0
   18.3605   22.8872   63.0963 C   0  0  0  0  0  0  0  0  0  0  0  0
   18.7306   22.9446   64.2924 O   0  0  0  0  0  0  0  0  0  0  0  0
   17.7183   23.7713   62.4842 O   0  0  0  0  0  0  0  0  0  0  0  0
   13.8614   19.7734   58.7868 N   0  0  0  0  0  0  0  0  0  0  0  0
   22.7903   22.7221   61.3456 O   0  0  0  0  0  0  0  0  0  0  0  0
   14.5727   20.2751   59.8114 C   0  0  0  0  0  0  0  0  0  0  0  0
   22.1671   22.9404   59.2119 O   0  0  0  0  0  0  0  0  0  0  0  0
   15.1107   21.5665   59.7441 N   0  0  0  0  0  0  0  0  0  0  0  0
   14.9021   22.3222   58.5982 C   0  0  0  0  0  0  0  0  0  0  0  0
   14.1902   21.7623   57.5456 C   0  0  0  0  0  0  0  0  0  0  0  0
   15.3726   23.4537   58.5115 O   0  0  0  0  0  0  0  0  0  0  0  0
   13.6994   23.8150   56.5218 C   0  0  0  0  0  0  0  0  0  0  0  0
   13.8981   22.5053   56.4071 N   0  0  0  0  0  0  0  0  0  0  0  0
   13.7807   24.5465   55.5376 O   0  0  0  0  0  0  0  0  0  0  0  0
   13.6176   21.8147   55.1436 C   0  0  2  0  0  0  0  0  0  0  0  0
   12.5800   20.7193   55.4021 C   0  0  0  0  0  0  0  0  0  0  0  0
   13.6501   20.4897   57.6722 C   0  0  0  0  0  0  0  0  0  0  0  0
   12.8955   19.9446   56.6276 N   0  0  0  0  0  0  0  0  0  0  0  0
   14.9004   21.2034   54.5698 C   0  0  0  0  0  0  0  0  0  0  0  0
   15.9389   22.2365   54.4710 N   0  0  0  0  0  0  0  0  0  0  0  0
   18.3926   23.2599   57.6373 C   0  0  0  0  0  0  0  0  0  0  0  0
   17.8055   24.2428   56.8442 C   0  0  0  0  0  0  0  0  0  0  0  0
   16.9958   23.8904   55.7662 C   0  0  0  0  0  0  0  0  0  0  0  0
   16.7282   22.5523   55.4972 C   0  0  0  0  0  0  0  0  0  0  0  0
   17.3065   21.5697   56.2937 C   0  0  0  0  0  0  0  0  0  0  0  0
   18.1453   21.9203   57.3506 C   0  0  0  0  0  0  0  0  0  0  0  0
   21.9289   22.8241   60.4389 C   0  0  0  0  0  0  0  0  0  0  0  0
  1  3  1  0  0  0  0
  2  1  1  6  0  0  0
  2  6  1  0  0  0  0
  2 34  1  0  0  0  0
  3  4  2  0  0  0  0
  3 28  1  0  0  0  0
  5 13  1  0  0  0  0
  6  7  1  0  0  0  0
  7  8  1  0  0  0  0
  8  9  1  0  0  0  0
  8 10  1  0  0  0  0
 11 13  2  0  0  0  0
 11 24  1  0  0  0  0
 12 34  1  0  0  0  0
 13 15  1  0  0  0  0
 14 34  1  0  0  0  0
 15 16  1  0  0  0  0
 16 17  1  0  0  0  0
 16 18  2  0  0  0  0
 17 20  1  0  0  0  0
 17 24  2  0  0  0  0
 19 21  1  0  0  0  0
 19 20  1  0  0  0  0
 20 22  1  0  0  0  0
 22 23  1  0  0  0  0
 22 26  1  1  0  0  0
 23 25  1  0  0  0  0
 24 25  1  0  0  0  0
 26 27  1  0  0  0  0
 27 31  1  0  0  0  0
 28 29  2  0  0  0  0
 28 33  1  0  0  0  0
 29 30  1  0  0  0  0
 30 31  2  0  0  0  0
 31 32  1  0  0  0  0
 32 33  2  0  0  0  0
M  END
>  <CHROM.1>
166.90915002,-57.26672375,-169.09499113,-63.93840094,-78.77345002,161.26294262
-53.35312609,85.18650970,-136.91017536,162.38747167,16.88965673,22.34530006
58.56556448,-0.60430550,-0.36738103,-1.29759049

>  <Name>
ligand

>  <RI>
0

>  <Rbt.Current_Directory>
/home/itssahil/PROJECTS/Mol_Feturizer/New_Systems/rnas/3SUH

>  <Rbt.Executable>
rbdock ($Id: //depot/dev/client3/rdock/2013.1/src/exe/rbdock.cxx#4 $)

>  <Rbt.Library>
libRbt.so (2013.1, Build901 2013/11/27)

>  <Rbt.Parameter_File>
/export/apps/rDock/src/rDock_2013.1_src/data/scripts/dock_solv.prm

>  <Rbt.Receptor>
prm/blind_docking_80.prm

>  <SCORE>
-16.42

>  <SCORE.INTER>
-10.3332

>  <SCORE.INTER.CONST>
1

>  <SCORE.INTER.POLAR>
0

>  <SCORE.INTER.ROT>
10

>  <SCORE.INTER.SOLV>
12.6803

>  <SCORE.INTER.VDW>
-21.3822

>  <SCORE.INTER.norm>
-0.303918

>  <SCORE.INTRA>
-6.09564

>  <SCORE.INTRA.DIHEDRAL>
-5.37854

>  <SCORE.INTRA.DIHEDRAL.0>
12.2703

>  <SCORE.INTRA.POLAR>
0

>  <SCORE.INTRA.POLAR.0>
0

>  <SCORE.INTRA.REPUL>
0

>  <SCORE.INTRA.REPUL.0>
0

>  <SCORE.INTRA.SOLV>
1.32974

>  <SCORE.INTRA.SOLV.lig_0>
-64.3214

>  <SCORE.INTRA.VDW>
-4.07124

>  <SCORE.INTRA.VDW.0>
-1.67301

>  <SCORE.INTRA.norm>
-0.179284

>  <SCORE.RESTR>
0.00883242

>  <SCORE.RESTR.CAVITY>
0.00883242

>  <SCORE.RESTR.norm>
0.000259777

>  <SCORE.SYSTEM>
0

>  <SCORE.SYSTEM.CONST>
0

>  <SCORE.SYSTEM.DIHEDRAL>
0

>  <SCORE.SYSTEM.SOLV>
0

>  <SCORE.SYSTEM.norm>
0

>  <SCORE.heavy>
34

>  <SCORE.norm>
-0.482942

>  <RMSD>
27.023

$$$$
ligand
 OpenBabel11021811483D
libRbt.so/2013.1/901 2013/11/27
 34 36  0  0  0  0  0  0  0  0999 V2000
   19.8515   23.0750   59.5321 N   0  0  0  0  0  0  0  0  0  0  0  0
   20.6782   23.4006   60.7176 C   0  0  1  0  0  0  0  0  0  0  0  0
   19.0477   23.9531   58.9183 C   0  0  0  0  0  0  0  0  0  0  0  0
   18.9038   25.1273   59.2700 O   0  0  0  0  0  0  0  0  0  0  0  0
   14.5180   19.6984   60.9271 N   0  0  0  0  0  0  0  0  0  0  0  0
   20.0247   22.8198   61.9829 C   0  0  0  0  0  0  0  0  0  0  0  0
   20.5130   23.5348   63.2500 C   0  0  0  0  0  0  0  0  0  0  0  0
   19.8479   22.9547   64.5074 C   0  0  0  0  0  0  0  0  0  0  0  0
   20.5553   22.8623   65.5380 O   0  0  0  0  0  0  0  0  0  0  0  0
   18.6452   22.6185   64.4111 O   0  0  0  0  0  0  0  0  0  0  0  0
   13.8420   19.7238   58.7134 N   0  0  0  0  0  0  0  0  0  0  0  0
   22.5324   22.5964   59.4281 O   0  0  0  0  0  0  0  0  0  0  0  0
   14.4214   20.3337   59.7620 C   0  0  0  0  0  0  0  0  0  0  0  0
   22.7754   22.7379   61.6439 O   0  0  0  0  0  0  0  0  0  0  0  0
   14.9267   21.6345   59.6431 N   0  0  0  0  0  0  0  0  0  0  0  0
   14.8247   22.2858   58.4212 C   0  0  0  0  0  0  0  0  0  0  0  0
   14.2495   21.6155   57.3496 C   0  0  0  0  0  0  0  0  0  0  0  0
   15.2697   23.4232   58.2893 O   0  0  0  0  0  0  0  0  0  0  0  0
   13.8170   23.5577   56.1075 C   0  0  0  0  0  0  0  0  0  0  0  0
   14.0640   22.2514   56.1271 N   0  0  0  0  0  0  0  0  0  0  0  0
   14.1968   24.2501   55.1659 O   0  0  0  0  0  0  0  0  0  0  0  0
   13.9445   21.4499   54.9043 C   0  0  2  0  0  0  0  0  0  0  0  0
   12.9161   20.3412   55.1420 C   0  0  0  0  0  0  0  0  0  0  0  0
   13.7349   20.3381   57.5254 C   0  0  0  0  0  0  0  0  0  0  0  0
   13.1160   19.6816   56.4560 N   0  0  0  0  0  0  0  0  0  0  0  0
   15.2996   20.8422   54.5262 C   0  0  0  0  0  0  0  0  0  0  0  0
   16.3001   21.9085   54.3952 N   0  0  0  0  0  0  0  0  0  0  0  0
   18.3263   23.4019   57.6751 C   0  0  0  0  0  0  0  0  0  0  0  0
   18.1840   22.0289   57.4900 C   0  0  0  0  0  0  0  0  0  0  0  0
   17.4825   21.5329   56.3929 C   0  0  0  0  0  0  0  0  0  0  0  0
   16.9544   22.4033   55.4454 C   0  0  0  0  0  0  0  0  0  0  0  0
   17.1032   23.7745   55.6240 C   0  0  0  0  0  0  0  0  0  0  0  0
   17.7742   24.2728   56.7399 C   0  0  0  0  0  0  0  0  0  0  0  0
   22.1192   22.8667   60.5816 C   0  0  0  0  0  0  0  0  0  0  0  0
  1  3  1  0  0  0  0
  2  1  1  6  0  0  0
  2  6  1  0  0  0  0
  2 34  1  0  0  0  0
  3  4  2  0  0  0  0
  3 28  1  0  0  0  0
  5 13  1  0  0  0  0
  6  7  1  0  0  0  0
  7  8  1  0  0  0  0
  8  9  1  0  0  0  0
  8 10  1  0  0  0  0
 11 13  2  0  0  0  0
 11 24  1  0  0  0  0
 12 34  1  0  0  0  0
 13 15  1  0  0  0  0
 14 34  1  0  0  0  0
 15 16  1  0  0  0  0
 16 17  1  0  0  0  0
 16 18  2  0  0  0  0
 17 20  1  0  0  0  0
 17 24  2  0  0  0  0
 19 21  1  0  0  0  0
 19 20  1  0  0  0  0
 20 22  1  0  0  0  0
 22 23  1  0  0  0  0
 22 26  1  1  0  0  0
 23 25  1  0  0  0  0
 24 25  1  0  0  0  0
 26 27  1  0  0  0  0
 27 31  1  0  0  0  0
 28 29  2  0  0  0  0
 28 33  1  0  0  0  0
 29 30  1  0  0  0  0
 30 31  2  0  0  0  0
 31 32  1  0  0  0  0
 32 33  2  0  0  0  0
M  END
>  <CHROM.1>
103.39841937,-158.86571085,19.88232495,179.61061102,142.59647707,148.68750943
-55.78671131,83.71105729,45.22479447,19.97623387,17.12874529,22.35704239
58.69100775,-0.69910532,-0.41231900,-1.35061952

>  <Name>
ligand

>  <RI>
0

>  <Rbt.Current_Directory>
/home/itssahil/PROJECTS/Mol_Feturizer/New_Systems/rnas/3SUH

>  <Rbt.Executable>
rbdock ($Id: //depot/dev/client3/rdock/2013.1/src/exe/rbdock.cxx#4 $)

>  <Rbt.Library>
libRbt.so (2013.1, Build901 2013/11/27)

>  <Rbt.Parameter_File>
/export/apps/rDock/src/rDock_2013.1_src/data/scripts/dock_solv.prm

>  <Rbt.Receptor>
prm/blind_docking_80.prm

>  <SCORE>
-12.008

>  <SCORE.INTER>
-8.27258

>  <SCORE.INTER.CONST>
1

>  <SCORE.INTER.POLAR>
0

>  <SCORE.INTER.ROT>
10

>  <SCORE.INTER.SOLV>
11.5968

>  <SCORE.INTER.VDW>
-19.6473

>  <SCORE.INTER.norm>
-0.243311

>  <SCORE.INTRA>
-3.73701

>  <SCORE.INTRA.DIHEDRAL>
-3.15822

>  <SCORE.INTRA.DIHEDRAL.0>
12.2703

>  <SCORE.INTRA.POLAR>
0

>  <SCORE.INTRA.POLAR.0>
0

>  <SCORE.INTRA.REPUL>
0

>  <SCORE.INTRA.REPUL.0>
0

>  <SCORE.INTRA.SOLV>
0.881972

>  <SCORE.INTRA.SOLV.lig_0>
-64.3214

>  <SCORE.INTRA.VDW>
-2.59889

>  <SCORE.INTRA.VDW.0>
-1.67301

>  <SCORE.INTRA.norm>
-0.109912

>  <SCORE.RESTR>
0.00163333

>  <SCORE.RESTR.CAVITY>
0.00163333

>  <SCORE.RESTR.norm>
4.80391e-05

>  <SCORE.SYSTEM>
0

>  <SCORE.SYSTEM.CONST>
0

>  <SCORE.SYSTEM.DIHEDRAL>
0

>  <SCORE.SYSTEM.SOLV>
0

>  <SCORE.SYSTEM.norm>
0

>  <SCORE.heavy>
34

>  <SCORE.norm>
-0.353175

>  <RMSD>
27.031

$$$$
ligand
 OpenBabel11021811483D
libRbt.so/2013.1/901 2013/11/27
 34 36  0  0  0  0  0  0  0  0999 V2000
   19.2685   23.4344   58.8218 N   0  0  0  0  0  0  0  0  0  0  0  0
   20.2293   23.8256   59.8795 C   0  0  1  0  0  0  0  0  0  0  0  0
   19.0208   24.1687   57.7294 C   0  0  0  0  0  0  0  0  0  0  0  0
   19.5610   25.2504   57.4818 O   0  0  0  0  0  0  0  0  0  0  0  0
   14.9385   19.6112   61.0348 N   0  0  0  0  0  0  0  0  0  0  0  0
   20.0383   22.9278   61.1135 C   0  0  0  0  0  0  0  0  0  0  0  0
   18.6423   23.1004   61.7272 C   0  0  0  0  0  0  0  0  0  0  0  0
   18.3883   22.0637   62.8322 C   0  0  0  0  0  0  0  0  0  0  0  0
   17.9313   20.9514   62.4790 O   0  0  0  0  0  0  0  0  0  0  0  0
   18.6593   22.4057   64.0062 O   0  0  0  0  0  0  0  0  0  0  0  0
   13.7306   19.8437   59.0739 N   0  0  0  0  0  0  0  0  0  0  0  0
   22.3648   24.7993   59.3906 O   0  0  0  0  0  0  0  0  0  0  0  0
   14.6506   20.3070   59.9378 C   0  0  0  0  0  0  0  0  0  0  0  0
   22.0993   22.6113   59.0287 O   0  0  0  0  0  0  0  0  0  0  0  0
   15.3127   21.5174   59.6966 N   0  0  0  0  0  0  0  0  0  0  0  0
   15.0077   22.2323   58.5462 C   0  0  0  0  0  0  0  0  0  0  0  0
   14.0760   21.7099   57.6588 C   0  0  0  0  0  0  0  0  0  0  0  0
   15.5824   23.2916   58.3077 O   0  0  0  0  0  0  0  0  0  0  0  0
   13.6604   23.7511   56.5803 C   0  0  0  0  0  0  0  0  0  0  0  0
   13.6889   22.4228   56.5295 N   0  0  0  0  0  0  0  0  0  0  0  0
   12.8748   24.3298   57.3275 O   0  0  0  0  0  0  0  0  0  0  0  0
   13.1313   21.7069   55.3768 C   0  0  2  0  0  0  0  0  0  0  0  0
   12.0325   20.7619   55.8698 C   0  0  0  0  0  0  0  0  0  0  0  0
   13.4236   20.5214   57.9574 C   0  0  0  0  0  0  0  0  0  0  0  0
   12.4530   20.0193   57.0835 N   0  0  0  0  0  0  0  0  0  0  0  0
   14.2270   20.9139   54.6562 C   0  0  0  0  0  0  0  0  0  0  0  0
   15.2664   21.8323   54.1750 N   0  0  0  0  0  0  0  0  0  0  0  0
   18.0221   23.5354   56.7438 C   0  0  0  0  0  0  0  0  0  0  0  0
   17.7988   22.1606   56.7480 C   0  0  0  0  0  0  0  0  0  0  0  0
   16.8539   21.5958   55.8936 C   0  0  0  0  0  0  0  0  0  0  0  0
   16.1546   22.3938   54.9945 C   0  0  0  0  0  0  0  0  0  0  0  0
   16.3828   23.7657   54.9828 C   0  0  0  0  0  0  0  0  0  0  0  0
   17.3021   24.3363   55.8619 C   0  0  0  0  0  0  0  0  0  0  0  0
   21.6907   23.7410   59.3928 C   0  0  0  0  0  0  0  0  0  0  0  0
  1  3  1  0  0  0  0
  2  1  1  6  0  0  0
  2  6  1  0  0  0  0
  2 34  1  0  0  0  0
  3  4  2  0  0  0  0
  3 28  1  0  0  0  0
  5 13  1  0  0  0  0
  6  7  1  0  0  0  0
  7  8  1  0  0  0  0
  8  9  1  0  0  0  0
  8 10  1  0  0  0  0
 11 13  2  0  0  0  0
 11 24  1  0  0  0  0
 12 34  1  0  0  0  0
 13 15  1  0  0  0  0
 14 34  1  0  0  0  0
 15 16  1  0  0  0  0
 16 17  1  0  0  0  0
 16 18  2  0  0  0  0
 17 20  1  0  0  0  0
 17 24  2  0  0  0  0
 19 21  1  0  0  0  0
 19 20  1  0  0  0  0
 20 22  1  0  0  0  0
 22 23  1  0  0  0  0
 22 26  1  1  0  0  0
 23 25  1  0  0  0  0
 24 25  1  0  0  0  0
 26 27  1  0  0  0  0
 27 31  1  0  0  0  0
 28 29  2  0  0  0  0
 28 33  1  0  0  0  0
 29 30  1  0  0  0  0
 30 31  2  0  0  0  0
 31 32  1  0  0  0  0
 32 33  2  0  0  0  0
M  END
>  <CHROM.1>
167.57673083,-62.85690071,118.83849696,172.00416094,-86.80909061,-64.70887330
-60.46928826,74.67938765,49.64288134,-22.06185053,16.64407510,22.42941238
58.28339950,-0.42556955,-0.41596139,-1.23834245

>  <Name>
ligand

>  <RI>
0

>  <Rbt.Current_Directory>
/home/itssahil/PROJECTS/Mol_Feturizer/New_Systems/rnas/3SUH

>  <Rbt.Executable>
rbdock ($Id: //depot/dev/client3/rdock/2013.1/src/exe/rbdock.cxx#4 $)

>  <Rbt.Library>
libRbt.so (2013.1, Build901 2013/11/27)

>  <Rbt.Parameter_File>
/export/apps/rDock/src/rDock_2013.1_src/data/scripts/dock_solv.prm

>  <Rbt.Receptor>
prm/blind_docking_80.prm

>  <SCORE>
-14.345

>  <SCORE.INTER>
-7.69327

>  <SCORE.INTER.CONST>
1

>  <SCORE.INTER.POLAR>
0

>  <SCORE.INTER.ROT>
10

>  <SCORE.INTER.SOLV>
11.155

>  <SCORE.INTER.VDW>
-19.1138

>  <SCORE.INTER.norm>
-0.226273

>  <SCORE.INTRA>
-6.65171

>  <SCORE.INTRA.DIHEDRAL>
-5.32539

>  <SCORE.INTRA.DIHEDRAL.0>
12.2703

>  <SCORE.INTRA.POLAR>
0

>  <SCORE.INTRA.POLAR.0>
0

>  <SCORE.INTRA.REPUL>
0

>  <SCORE.INTRA.REPUL.0>
0

>  <SCORE.INTRA.SOLV>
1.08663

>  <SCORE.INTRA.SOLV.lig_0>
-64.3214

>  <SCORE.INTRA.VDW>
-4.53233

>  <SCORE.INTRA.VDW.0>
-1.67301

>  <SCORE.INTRA.norm>
-0.195638

>  <SCORE.RESTR>
0

>  <SCORE.RESTR.CAVITY>
0

>  <SCORE.RESTR.norm>
0

>  <SCORE.SYSTEM>
0

>  <SCORE.SYSTEM.CONST>
0

>  <SCORE.SYSTEM.DIHEDRAL>
0

>  <SCORE.SYSTEM.SOLV>
0

>  <SCORE.SYSTEM.norm>
0

>  <SCORE.heavy>
34

>  <SCORE.norm>
-0.421911

>  <RMSD>
27.088

$$$$
ligand
 OpenBabel11021811483D
libRbt.so/2013.1/901 2013/11/27
 34 36  0  0  0  0  0  0  0  0999 V2000
  -26.8286   51.7026   55.8252 N   0  0  0  0  0  0  0  0  0  0  0  0
  -27.6985   51.4366   56.9945 C   0  0  1  0  0  0  0  0  0  0  0  0
  -27.2137   52.4064   54.7527 C   0  0  0  0  0  0  0  0  0  0  0  0
  -28.3325   52.9095   54.6165 O   0  0  0  0  0  0  0  0  0  0  0  0
  -23.2000   54.3094   57.1716 N   0  0  0  0  0  0  0  0  0  0  0  0
  -28.0969   52.7650   57.6592 C   0  0  0  0  0  0  0  0  0  0  0  0
  -26.8650   53.5809   58.0743 C   0  0  0  0  0  0  0  0  0  0  0  0
  -25.9820   52.7948   59.0554 C   0  0  0  0  0  0  0  0  0  0  0  0
  -26.4061   51.6797   59.4395 O   0  0  0  0  0  0  0  0  0  0  0  0
  -24.9004   53.3256   59.3979 O   0  0  0  0  0  0  0  0  0  0  0  0
  -22.1568   54.9206   55.1976 N   0  0  0  0  0  0  0  0  0  0  0  0
  -29.5932   50.0659   57.5228 O   0  0  0  0  0  0  0  0  0  0  0  0
  -22.7067   53.9768   55.9815 C   0  0  0  0  0  0  0  0  0  0  0  0
  -29.2737   50.6405   55.3882 O   0  0  0  0  0  0  0  0  0  0  0  0
  -22.7673   52.6427   55.5594 N   0  0  0  0  0  0  0  0  0  0  0  0
  -22.2538   52.3083   54.3136 C   0  0  0  0  0  0  0  0  0  0  0  0
  -21.7219   53.3126   53.5155 C   0  0  0  0  0  0  0  0  0  0  0  0
  -22.3046   51.1467   53.9170 O   0  0  0  0  0  0  0  0  0  0  0  0
  -20.5073   51.8522   52.1391 C   0  0  0  0  0  0  0  0  0  0  0  0
  -21.1348   53.0146   52.2908 N   0  0  0  0  0  0  0  0  0  0  0  0
  -20.0062   51.5504   51.0583 O   0  0  0  0  0  0  0  0  0  0  0  0
  -21.0414   54.0543   51.2600 C   0  0  2  0  0  0  0  0  0  0  0  0
  -20.4550   55.3200   51.8905 C   0  0  0  0  0  0  0  0  0  0  0  0
  -21.6560   54.6152   53.9910 C   0  0  0  0  0  0  0  0  0  0  0  0
  -21.0794   55.6176   53.2032 N   0  0  0  0  0  0  0  0  0  0  0  0
  -22.4241   54.3496   50.6688 C   0  0  0  0  0  0  0  0  0  0  0  0
  -23.2629   53.1474   50.7489 N   0  0  0  0  0  0  0  0  0  0  0  0
  -26.1217   52.5967   53.6845 C   0  0  0  0  0  0  0  0  0  0  0  0
  -25.9632   51.6659   52.6606 C   0  0  0  0  0  0  0  0  0  0  0  0
  -25.0114   51.8680   51.6632 C   0  0  0  0  0  0  0  0  0  0  0  0
  -24.1773   52.9801   51.7038 C   0  0  0  0  0  0  0  0  0  0  0  0
  -24.3282   53.9062   52.7305 C   0  0  0  0  0  0  0  0  0  0  0  0
  -25.3041   53.7230   53.7091 C   0  0  0  0  0  0  0  0  0  0  0  0
  -28.9650   50.6467   56.6049 C   0  0  0  0  0  0  0  0  0  0  0  0
  1  3  1  0  0  0  0
  2  1  1  6  0  0  0
  2  6  1  0  0  0  0
  2 34  1  0  0  0  0
  3  4  2  0  0  0  0
  3 28  1  0  0  0  0
  5 13  1  0  0  0  0
  6  7  1  0  0  0  0
  7  8  1  0  0  0  0
  8  9  1  0  0  0  0
  8 10  1  0  0  0  0
 11 13  2  0  0  0  0
 11 24  1  0  0  0  0
 12 34  1  0  0  0  0
 13 15  1  0  0  0  0
 14 34  1  0  0  0  0
 15 16  1  0  0  0  0
 16 17  1  0  0  0  0
 16 18  2  0  0  0  0
 17 20  1  0  0  0  0
 17 24  2  0  0  0  0
 19 21  1  0  0  0  0
 19 20  1  0  0  0  0
 20 22  1  0  0  0  0
 22 23  1  0  0  0  0
 22 26  1  1  0  0  0
 23 25  1  0  0  0  0
 24 25  1  0  0  0  0
 26 27  1  0  0  0  0
 27 31  1  0  0  0  0
 28 29  2  0  0  0  0
 28 33  1  0  0  0  0
 29 30  1  0  0  0  0
 30 31  2  0  0  0  0
 31 32  1  0  0  0  0
 32 33  2  0  0  0  0
M  END
>  <CHROM.1>
-61.66326783,-56.90396943,161.87031310,-58.86520025,-4.38423583,178.33331346
-28.78756544,100.03222562,174.96239332,89.49115644,-24.42922484,52.81242468
54.60385378,2.53562928,0.39236769,1.38906411

>  <Name>
ligand

>  <RI>
0

>  <Rbt.Current_Directory>
/home/itssahil/PROJECTS/Mol_Feturizer/New_Systems/rnas/3SUH

>  <Rbt.Executable>
rbdock ($Id: //depot/dev/client3/rdock/2013.1/src/exe/rbdock.cxx#4 $)

>  <Rbt.Library>
libRbt.so (2013.1, Build901 2013/11/27)

>  <Rbt.Parameter_File>
/export/apps/rDock/src/rDock_2013.1_src/data/scripts/dock_solv.prm

>  <Rbt.Receptor>
prm/blind_docking_100.prm

>  <SCORE>
-13.023

>  <SCORE.INTER>
-12.8518

>  <SCORE.INTER.CONST>
1

>  <SCORE.INTER.POLAR>
0

>  <SCORE.INTER.ROT>
10

>  <SCORE.INTER.SOLV>
16.162

>  <SCORE.INTER.VDW>
-24.2219

>  <SCORE.INTER.norm>
-0.377995

>  <SCORE.INTRA>
-0.223896

>  <SCORE.INTRA.DIHEDRAL>
-2.1142

>  <SCORE.INTRA.DIHEDRAL.0>
12.2703

>  <SCORE.INTRA.POLAR>
0

>  <SCORE.INTRA.POLAR.0>
0

>  <SCORE.INTRA.REPUL>
0

>  <SCORE.INTRA.REPUL.0>
0

>  <SCORE.INTRA.SOLV>
4.17927

>  <SCORE.INTRA.SOLV.lig_0>
-64.3214

>  <SCORE.INTRA.VDW>
-1.25643

>  <SCORE.INTRA.VDW.0>
-1.67301

>  <SCORE.INTRA.norm>
-0.00658519

>  <SCORE.RESTR>
0.0527598

>  <SCORE.RESTR.CAVITY>
0.0527598

>  <SCORE.RESTR.norm>
0.00155176

>  <SCORE.SYSTEM>
0

>  <SCORE.SYSTEM.CONST>
0

>  <SCORE.SYSTEM.DIHEDRAL>
0

>  <SCORE.SYSTEM.SOLV>
0

>  <SCORE.SYSTEM.norm>
0

>  <SCORE.heavy>
34

>  <SCORE.norm>
-0.383028

>  <RMSD>
39.072

$$$$
ligand
 OpenBabel11021811483D
libRbt.so/2013.1/901 2013/11/27
 34 36  0  0  0  0  0  0  0  0999 V2000
  -20.8573   51.0875   52.1870 N   0  0  0  0  0  0  0  0  0  0  0  0
  -19.7028   50.4616   51.5013 C   0  0  1  0  0  0  0  0  0  0  0  0
  -21.3470   52.2943   51.8742 C   0  0  0  0  0  0  0  0  0  0  0  0
  -20.8932   53.0193   50.9845 O   0  0  0  0  0  0  0  0  0  0  0  0
  -27.8880   47.3942   56.9069 N   0  0  0  0  0  0  0  0  0  0  0  0
  -18.3940   50.9047   52.1765 C   0  0  0  0  0  0  0  0  0  0  0  0
  -18.4378   50.6819   53.6943 C   0  0  0  0  0  0  0  0  0  0  0  0
  -19.3462   51.7125   54.3819 C   0  0  0  0  0  0  0  0  0  0  0  0
  -20.1977   51.2750   55.1910 O   0  0  0  0  0  0  0  0  0  0  0  0
  -19.1674   52.9161   54.0851 O   0  0  0  0  0  0  0  0  0  0  0  0
  -28.6623   49.4803   56.2689 N   0  0  0  0  0  0  0  0  0  0  0  0
  -19.7409   48.3357   50.3936 O   0  0  0  0  0  0  0  0  0  0  0  0
  -27.7711   48.7195   56.9279 C   0  0  0  0  0  0  0  0  0  0  0  0
  -19.9240   48.3649   52.6195 O   0  0  0  0  0  0  0  0  0  0  0  0
  -26.7169   49.3065   57.6390 N   0  0  0  0  0  0  0  0  0  0  0  0
  -26.6021   50.6901   57.6498 C   0  0  0  0  0  0  0  0  0  0  0  0
  -27.5206   51.4452   56.9324 C   0  0  0  0  0  0  0  0  0  0  0  0
  -25.6800   51.2278   58.2579 O   0  0  0  0  0  0  0  0  0  0  0  0
  -27.0773   53.4425   58.0798 C   0  0  0  0  0  0  0  0  0  0  0  0
  -27.4860   52.8347   56.9701 N   0  0  0  0  0  0  0  0  0  0  0  0
  -27.4741   54.5728   58.3540 O   0  0  0  0  0  0  0  0  0  0  0  0
  -28.0830   53.6043   55.8731 C   0  0  2  0  0  0  0  0  0  0  0  0
  -29.4914   53.0672   55.6057 C   0  0  0  0  0  0  0  0  0  0  0  0
  -28.5666   50.8186   56.2687 C   0  0  0  0  0  0  0  0  0  0  0  0
  -29.5165   51.5839   55.5832 N   0  0  0  0  0  0  0  0  0  0  0  0
  -27.2246   53.4909   54.6087 C   0  0  0  0  0  0  0  0  0  0  0  0
  -25.8569   53.9393   54.8980 N   0  0  0  0  0  0  0  0  0  0  0  0
  -22.5837   52.7153   52.6886 C   0  0  0  0  0  0  0  0  0  0  0  0
  -22.5902   52.5996   54.0765 C   0  0  0  0  0  0  0  0  0  0  0  0
  -23.6886   53.0328   54.8165 C   0  0  0  0  0  0  0  0  0  0  0  0
  -24.8105   53.5447   54.1733 C   0  0  0  0  0  0  0  0  0  0  0  0
  -24.8093   53.6528   52.7867 C   0  0  0  0  0  0  0  0  0  0  0  0
  -23.6967   53.2526   52.0480 C   0  0  0  0  0  0  0  0  0  0  0  0
  -19.7958   48.9217   51.5018 C   0  0  0  0  0  0  0  0  0  0  0  0
  1  3  1  0  0  0  0
  2  1  1  1  0  0  0
  2  6  1  0  0  0  0
  2 34  1  0  0  0  0
  3  4  2  0  0  0  0
  3 28  1  0  0  0  0
  5 13  1  0  0  0  0
  6  7  1  0  0  0  0
  7  8  1  0  0  0  0
  8  9  1  0  0  0  0
  8 10  1  0  0  0  0
 11 13  2  0  0  0  0
 11 24  1  0  0  0  0
 12 34  1  0  0  0  0
 13 15  1  0  0  0  0
 14 34  1  0  0  0  0
 15 16  1  0  0  0  0
 16 17  1  0  0  0  0
 16 18  2  0  0  0  0
 17 20  1  0  0  0  0
 17 24  2  0  0  0  0
 19 21  1  0  0  0  0
 19 20  1  0  0  0  0
 20 22  1  0  0  0  0
 22 23  1  0  0  0  0
 22 26  1  6  0  0  0
 23 25  1  0  0  0  0
 24 25  1  0  0  0  0
 26 27  1  0  0  0  0
 27 31  1  0  0  0  0
 28 29  2  0  0  0  0
 28 33  1  0  0  0  0
 29 30  1  0  0  0  0
 30 31  2  0  0  0  0
 31 32  1  0  0  0  0
 32 33  2  0  0  0  0
M  END
>  <CHROM.1>
87.46979891,51.63117103,124.60316729,-73.46260672,130.91432278,-152.91013593
-56.70733285,156.59987516,-129.44741625,48.61544944,-24.10095550,51.58038989
54.65844007,0.01705632,-0.50919353,2.97663264

>  <Name>
ligand

>  <RI>
0

>  <Rbt.Current_Directory>
/home/itssahil/PROJECTS/Mol_Feturizer/New_Systems/rnas/3SUH

>  <Rbt.Executable>
rbdock ($Id: //depot/dev/client3/rdock/2013.1/src/exe/rbdock.cxx#4 $)

>  <Rbt.Library>
libRbt.so (2013.1, Build901 2013/11/27)

>  <Rbt.Parameter_File>
/export/apps/rDock/src/rDock_2013.1_src/data/scripts/dock_solv.prm

>  <Rbt.Receptor>
prm/blind_docking_100.prm

>  <SCORE>
-9.79226

>  <SCORE.INTER>
-7.04277

>  <SCORE.INTER.CONST>
1

>  <SCORE.INTER.POLAR>
0

>  <SCORE.INTER.ROT>
10

>  <SCORE.INTER.SOLV>
13.8653

>  <SCORE.INTER.VDW>
-19.5836

>  <SCORE.INTER.norm>
-0.20714

>  <SCORE.INTRA>
-3.25242

>  <SCORE.INTRA.DIHEDRAL>
-3.68294

>  <SCORE.INTRA.DIHEDRAL.0>
12.2703

>  <SCORE.INTRA.POLAR>
0

>  <SCORE.INTRA.POLAR.0>
0

>  <SCORE.INTRA.REPUL>
0

>  <SCORE.INTRA.REPUL.0>
0

>  <SCORE.INTRA.SOLV>
0.36283

>  <SCORE.INTRA.SOLV.lig_0>
-64.3214

>  <SCORE.INTRA.VDW>
-1.59236

>  <SCORE.INTRA.VDW.0>
-1.67301

>  <SCORE.INTRA.norm>
-0.0956593

>  <SCORE.RESTR>
0.50293

>  <SCORE.RESTR.CAVITY>
0.50293

>  <SCORE.RESTR.norm>
0.0147921

>  <SCORE.SYSTEM>
0

>  <SCORE.SYSTEM.CONST>
0

>  <SCORE.SYSTEM.DIHEDRAL>
0

>  <SCORE.SYSTEM.SOLV>
0

>  <SCORE.SYSTEM.norm>
0

>  <SCORE.heavy>
34

>  <SCORE.norm>
-0.288008

>  <RMSD>
39.339

$$$$
