@<TRIPOS>MOLECULE
3SUH_rdock.pdb
 2153 2411 0 0 0
SMALL
GASTEIGER

@<TRIPOS>ATOM
      1  P        -46.0260   14.3390   54.5860 P.3     1  G1          0.1280
      2  C5'      -45.7330   12.9940   52.3510 C.3     1  G1          0.1795
      3  O5'      -45.5570   14.2180   53.0600 O.3     1  G1         -0.3259
      4  C4'      -46.8180   13.1230   51.2940 C.3     1  G1          0.1772
      5  O4'      -47.9240   13.9010   51.8200 O.3     1  G1         -0.3307
      6  C3'      -46.4030   13.8460   50.0190 C.3     1  G1          0.1860
      7  O3'      -45.7940   12.9310   49.1070 O.3     1  G1         -0.3112
      8  C2'      -47.7410   14.3750   49.5040 C.3     1  G1          0.2309
      9  O2'      -48.4760   13.4190   48.7630 O.3     1  G1         -0.2156
     10  C1'      -48.4760   14.7130   50.7990 C.3     1  G1          0.2408
     11  N1       -49.9430   19.5130   49.8750 N.ar    1  G1         -0.1709
     12  C2       -50.3090   18.3530   49.2290 C.ar    1  G1          0.2606
     13  N2       -51.1720   18.4850   48.2100 N.pl3   1  G1         -0.0859
     14  N3       -49.8590   17.1470   49.5610 N.ar    1  G1         -0.1918
     15  C4       -48.9970   17.1950   50.6100 C.ar    1  G1          0.1723
     16  C5       -48.5720   18.3010   51.3180 C.ar    1  G1          0.1748
     17  C6       -49.0610   19.5800   50.9540 C.ar    1  G1          0.3023
     18  O6       -48.7960   20.6760   51.4690 O.2     1  G1         -0.2633
     19  N7       -47.6860   17.9330   52.3240 N.ar    1  G1         -0.2173
     20  C8       -47.5910   16.6370   52.2060 C.ar    1  G1          0.1817
     21  N9       -48.3590   16.1180   51.1900 N.ar    1  G1         -0.2693
     22  OP1      -44.9460   14.9800   55.3740 O.3     1  G1         -0.1955
     23  OP2      -47.3940   14.9070   54.6060 O.co2   1  G1         -0.7863
     24  P        -44.7450   13.4300   48.0000 P.3     2  G2          0.2141
     25  C5'      -44.8660   13.2140   45.3770 C.3     2  G2          0.1812
     26  O5'      -45.5400   13.1770   46.6310 O.3     2  G2         -0.3114
     27  C4'      -45.6260   14.0680   44.3760 C.3     2  G2          0.1773
     28  O4'      -46.8540   14.5640   44.9690 O.3     2  G2         -0.3307
     29  C3'      -44.8890   15.3180   43.9220 C.3     2  G2          0.1860
     30  O3'      -44.0390   15.0170   42.8270 O.3     2  G2         -0.3112
     31  C2'      -46.0330   16.2370   43.5110 C.3     2  G2          0.2309
     32  O2'      -46.5270   15.9600   42.2170 O.3     2  G2         -0.2156
     33  C1'      -47.0830   15.9020   44.5650 C.3     2  G2          0.2408
     34  N1       -47.3200   20.6790   46.3260 N.ar    2  G2         -0.1709
     35  C2       -47.4550   20.2190   45.0360 C.ar    2  G2          0.2606
     36  N2       -47.6830   21.1440   44.0920 N.pl3   2  G2         -0.0859
     37  N3       -47.3730   18.9390   44.6920 N.ar    2  G2         -0.1918
     38  C4       -47.1410   18.1410   45.7630 C.ar    2  G2          0.1723
     39  C5       -46.9910   18.5040   47.0850 C.ar    2  G2          0.1748
     40  C6       -47.0800   19.8730   47.4380 C.ar    2  G2          0.3023
     41  O6       -46.9720   20.3870   48.5610 O.2     2  G2         -0.2633
     42  N7       -46.7670   17.3870   47.8780 N.ar    2  G2         -0.2173
     43  C8       -46.7850   16.3900   47.0370 C.ar    2  G2          0.1817
     44  N9       -47.0080   16.7700   45.7370 N.ar    2  G2         -0.2693
     45  OP1      -43.5680   12.5330   48.0470 O.2     2  G2         -0.5172
     46  OP2      -44.5570   14.8900   48.1620 O.co2   2  G2         -0.4373
     47  P        -42.6040   15.7170   42.7420 P.3     3  A3          0.2141
     48  C5'      -42.8960   17.3410   40.6920 C.3     3  A3          0.1812
     49  O5'      -42.9430   17.1480   42.1050 O.3     3  A3         -0.3114
     50  C4'      -43.4910   18.6800   40.2890 C.3     3  A3          0.1773
     51  O4'      -44.6080   19.0160   41.1530 O.3     3  A3         -0.3307
     52  C3'      -42.5460   19.8700   40.3860 C.3     3  A3          0.1860
     53  O3'      -41.7780   19.9900   39.1900 O.3     3  A3         -0.3112
     54  C2'      -43.5240   21.0290   40.5600 C.3     3  A3          0.2309
     55  O2'      -44.1080   21.4450   39.3400 O.3     3  A3         -0.2156
     56  C1'      -44.5850   20.4000   41.4570 C.3     3  A3          0.2408
     57  N1       -44.5130   23.5840   45.5260 N.ar    3  A3         -0.2040
     58  C2       -44.8410   23.7820   44.2420 C.ar    3  A3          0.2016
     59  N3       -44.8400   22.9140   43.2290 N.ar    3  A3         -0.2048
     60  C4       -44.4420   21.7000   43.6420 C.ar    3  A3          0.1692
     61  C5       -44.0690   21.3440   44.9270 C.ar    3  A3          0.1518
     62  C6       -44.1150   22.3530   45.9130 C.ar    3  A3          0.1919
     63  N6       -43.7850   22.1530   47.1950 N.pl3   3  A3         -0.1054
     64  N7       -43.7120   20.0070   44.9780 N.ar    3  A3         -0.2193
     65  C8       -43.8750   19.5880   43.7450 C.ar    3  A3          0.1816
     66  N9       -44.3140   20.5560   42.8850 N.ar    3  A3         -0.2693
     67  OP1      -41.7680   14.9470   41.7930 O.2     3  A3         -0.5172
     68  OP2      -42.1400   15.9250   44.1330 O.co2   3  A3         -0.4373
     69  P        -40.2280   20.3910   39.2570 P.3     4  C4          0.2141
     70  C5'      -40.7470   22.8260   38.4760 C.3     4  C4          0.1812
     71  O5'      -40.2870   21.9690   39.5150 O.3     4  C4         -0.3114
     72  C4'      -41.1010   24.2050   39.0020 C.3     4  C4          0.1773
     73  O4'      -42.1170   24.1150   40.0330 O.3     4  C4         -0.3307
     74  C3'      -39.9790   24.9360   39.7140 C.3     4  C4          0.1860
     75  O3'      -39.0190   25.4410   38.7970 O.3     4  C4         -0.3112
     76  C2'      -40.7780   26.0200   40.4290 C.3     4  C4          0.2309
     77  O2'      -41.2540   27.0340   39.5630 O.3     4  C4         -0.2156
     78  C1'      -41.9430   25.1830   40.9510 C.3     4  C4          0.2420
     79  N1       -41.6760   24.6300   42.3130 N.ar    4  C4         -0.2535
     80  C2       -41.9370   25.4240   43.4380 C.ar    4  C4          0.3532
     81  O2       -42.4110   26.5590   43.2830 O.2     4  C4         -0.2443
     82  N3       -41.6690   24.9190   44.6710 N.ar    4  C4         -0.1739
     83  C4       -41.1570   23.6910   44.7990 C.ar    4  C4          0.1759
     84  N4       -40.9160   23.2380   46.0340 N.pl3   4  C4         -0.1070
     85  C5       -40.8750   22.8730   43.6640 C.ar    4  C4          0.0566
     86  C6       -41.1410   23.3790   42.4540 C.ar    4  C4          0.0850
     87  OP1      -39.6220   20.1480   37.9260 O.2     4  C4         -0.5172
     88  OP2      -39.6480   19.7450   40.4550 O.co2   4  C4         -0.4373
     89  P        -37.4650   25.2770   39.1540 P.3     5  A5          0.2141
     90  C5'      -37.9180   27.7170   40.0110 C.3     5  A5          0.1812
     91  O5'      -37.2250   26.4800   40.1900 O.3     5  A5         -0.3114
     92  C4'      -37.8930   28.5790   41.2620 C.3     5  A5          0.1773
     93  O4'      -38.8330   28.0940   42.2560 O.3     5  A5         -0.3307
     94  C3'      -36.5730   28.5980   42.0110 C.3     5  A5          0.1860
     95  O3'      -35.6450   29.4410   41.3620 O.3     5  A5         -0.3112
     96  C2'      -37.0280   29.1380   43.3590 C.3     5  A5          0.2309
     97  O2'      -37.3500   30.5130   43.3130 O.3     5  A5         -0.2156
     98  C1'      -38.2910   28.3040   43.5530 C.3     5  A5          0.2408
     99  N1       -37.4680   25.7530   47.9680 N.ar    5  A5         -0.2040
    100  C2       -37.6460   27.0530   47.7030 C.ar    5  A5          0.2016
    101  N3       -37.8540   27.6500   46.5280 N.ar    5  A5         -0.2048
    102  C4       -37.8650   26.7550   45.5270 C.ar    5  A5          0.1692
    103  C5       -37.6960   25.3900   45.6410 C.ar    5  A5          0.1518
    104  C6       -37.4870   24.8790   46.9400 C.ar    5  A5          0.1919
    105  N6       -37.2900   23.5830   47.2000 N.pl3   5  A5         -0.1054
    106  N7       -37.7540   24.7860   44.3990 N.ar    5  A5         -0.2193
    107  C8       -37.9620   25.7850   43.5750 C.ar    5  A5          0.1816
    108  N9       -38.0490   27.0050   44.1870 N.ar    5  A5         -0.2693
    109  OP1      -36.6670   25.5200   37.9290 O.2     5  A5         -0.5172
    110  OP2      -37.3130   23.9920   39.8740 O.co2   5  A5         -0.4373
    111  P        -34.1380   28.9290   41.1920 P.3     6  G6          0.2141
    112  C5'      -33.8500   30.8140   42.9660 C.3     6  G6          0.1812
    113  O5'      -33.4460   29.5250   42.5110 O.3     6  G6         -0.3114
    114  C4'      -33.6120   31.0040   44.4540 C.3     6  G6          0.1773
    115  O4'      -34.5830   30.2580   45.2310 O.3     6  G6         -0.3307
    116  C3'      -32.2520   30.5490   44.9620 C.3     6  G6          0.1860
    117  O3'      -31.3160   31.6140   44.8130 O.3     6  G6         -0.3112
    118  C2'      -32.5380   30.2890   46.4390 C.3     6  G6          0.2309
    119  O2'      -32.4810   31.4650   47.2220 O.3     6  G6         -0.2156
    120  C1'      -33.9700   29.7720   46.4120 C.3     6  G6          0.2408
    121  N1       -34.1970   25.6450   49.3970 N.ar    6  G6         -0.1709
    122  C2       -34.0250   26.9610   49.7500 C.ar    6  G6          0.2606
    123  N2       -33.9170   27.2100   51.0650 N.pl3   6  G6         -0.0859
    124  N3       -33.9750   27.9620   48.8760 N.ar    6  G6         -0.1918
    125  C4       -34.1000   27.5310   47.5930 C.ar    6  G6          0.1723
    126  C5       -34.2660   26.2410   47.1400 C.ar    6  G6          0.1748
    127  C6       -34.3230   25.1900   48.0880 C.ar    6  G6          0.3023
    128  O6       -34.4710   23.9830   47.8770 O.2     6  G6         -0.2633
    129  N7       -34.3420   26.2080   45.7490 N.ar    6  G6         -0.2173
    130  C8       -34.2310   27.4590   45.3900 C.ar    6  G6          0.1817
    131  N9       -34.0840   28.3170   46.4580 N.ar    6  G6         -0.2693
    132  OP1      -33.5570   29.5930   40.0020 O.2     6  G6         -0.5172
    133  OP2      -34.1430   27.4460   41.2680 O.co2   6  G6         -0.4373
    134  P        -29.8490   31.3310   44.2390 P.3     7  A7          0.2141
    135  C5'      -29.1620   31.5300   46.7190 C.3     7  A7          0.1812
    136  O5'      -29.0970   30.7660   45.5290 O.3     7  A7         -0.3114
    137  C4'      -28.7020   30.6660   47.8710 C.3     7  A7          0.1773
    138  O4'      -29.6600   29.5960   48.0770 O.3     7  A7         -0.3307
    139  C3'      -27.3570   29.9910   47.6130 C.3     7  A7          0.1860
    140  O3'      -26.5780   29.9870   48.7990 O.3     7  A7         -0.3112
    141  C2'      -27.7630   28.5840   47.2140 C.3     7  A7          0.2309
    142  O2'      -26.7490   27.6190   47.4400 O.3     7  A7         -0.2156
    143  C1'      -28.9270   28.3990   48.1750 C.3     7  A7          0.2408
    144  N1       -31.0600   24.0120   49.7300 N.ar    7  A7         -0.2040
    145  C2       -30.4530   24.9960   50.4120 C.ar    7  A7          0.2016
    146  N3       -29.9410   26.1380   49.9510 N.ar    7  A7         -0.2048
    147  C4       -30.0960   26.2160   48.6170 C.ar    7  A7          0.1692
    148  C5       -30.7020   25.2920   47.7860 C.ar    7  A7          0.1518
    149  C6       -31.2050   24.1280   48.3920 C.ar    7  A7          0.1919
    150  N6       -31.7930   23.1460   47.7060 N.pl3   7  A7         -0.1054
    151  N7       -30.6650   25.7130   46.4700 N.ar    7  A7         -0.2193
    152  C8       -30.0520   26.8690   46.5250 C.ar    7  A7          0.1816
    153  N9       -29.7190   27.2460   47.7930 N.ar    7  A7         -0.2693
    154  OP1      -29.2110   32.6300   43.9170 O.3     7  A7         -0.4373
    155  OP2      -29.9930   30.2650   43.2200 O.co2   7  A7         -0.5172
    156  P        -25.5650   31.1960   49.0500 P.3     8  G8          0.2141
    157  C5'      -23.7630   30.0220   47.5620 C.3     8  G8          0.1812
    158  O5'      -24.1410   30.5200   48.8280 O.3     8  G8         -0.3114
    159  C4'      -22.2500   30.0010   47.4740 C.3     8  G8          0.1773
    160  O4'      -21.8960   30.0830   46.0700 O.3     8  G8         -0.3307
    161  C3'      -21.5900   31.2060   48.1420 C.3     8  G8          0.1860
    162  O3'      -20.2370   30.9520   48.4970 O.3     8  G8         -0.3112
    163  C2'      -21.6480   32.2370   47.0280 C.3     8  G8          0.2309
    164  O2'      -20.6150   33.1860   47.1750 O.3     8  G8         -0.2156
    165  C1'      -21.3510   31.3620   45.8140 C.3     8  G8          0.2408
    166  N1       -21.6290   30.6290   40.7940 N.ar    8  G8         -0.1709
    167  C2       -21.0630   29.8410   41.7650 C.ar    8  G8          0.2606
    168  N2       -20.4690   28.7150   41.3390 N.pl3   8  G8         -0.0859
    169  N3       -21.0720   30.1360   43.0590 N.ar    8  G8         -0.1918
    170  C4       -21.6960   31.3080   43.3090 C.ar    8  G8          0.1723
    171  C5       -22.2870   32.1690   42.4140 C.ar    8  G8          0.1748
    172  C6       -22.2800   31.8310   41.0380 C.ar    8  G8          0.3023
    173  O6       -22.7610   32.4520   40.0870 O.2     8  G8         -0.2633
    174  N7       -22.8120   33.2790   43.0760 N.ar    8  G8         -0.2173
    175  C8       -22.5190   33.0720   44.3330 C.ar    8  G8          0.1817
    176  N9       -21.8600   31.8830   44.5480 N.ar    8  G8         -0.2693
    177  OP1      -25.6670   31.6000   50.4720 O.3     8  G8         -0.4373
    178  OP2      -25.7990   32.1910   47.9800 O.co2   8  G8         -0.5172
    179  P        -19.7800   30.9650   50.0310 P.3     9  U9          0.2141
    180  C5'      -18.6660   33.3520   50.1260 C.3     9  U9          0.1812
    181  O5'      -19.7510   32.5080   50.4480 O.3     9  U9         -0.3114
    182  C4'      -18.9110   34.6950   50.7690 C.3     9  U9          0.1773
    183  O4'      -20.2360   35.1540   50.4000 O.3     9  U9         -0.3307
    184  C3'      -18.8940   34.6510   52.2940 C.3     9  U9          0.1860
    185  O3'      -18.1550   35.7580   52.7880 O.3     9  U9         -0.3112
    186  C2'      -20.3700   34.7830   52.6650 C.3     9  U9          0.2309
    187  O2'      -20.5650   35.4430   53.8960 O.3     9  U9         -0.2156
    188  C1'      -20.8480   35.6950   51.5540 C.3     9  U9          0.2420
    189  N1       -22.3370   35.7440   51.4440 N.ar    9  U9         -0.2534
    190  C2       -23.0090   36.8550   51.9180 C.ar    9  U9          0.3546
    191  O2       -22.4430   37.8230   52.3920 O.2     9  U9         -0.2443
    192  N3       -24.3810   36.8070   51.8080 N.ar    9  U9         -0.1530
    193  C4       -25.1350   35.7670   51.2870 C.ar    9  U9          0.2846
    194  O4       -26.3610   35.8570   51.2490 O.2     9  U9         -0.2650
    195  C5       -24.3650   34.6370   50.8280 C.ar    9  U9          0.0814
    196  C6       -23.0280   34.6650   50.9260 C.ar    9  U9          0.0870
    197  OP1      -18.4000   30.4290   50.0950 O.2     9  U9         -0.5172
    198  OP2      -20.8670   30.3570   50.8230 O.co2   9  U9         -0.4373
    199  P        -16.6660   35.5830   53.3350 P.3    10  A10         0.2141
    200  C5'      -15.7790   37.6100   51.9400 C.3    10  A10         0.1812
    201  O5'      -16.0820   37.0650   53.2270 O.3    10  A10        -0.3114
    202  C4'      -15.7820   39.1200   52.0200 C.3    10  A10         0.1773
    203  O4'      -17.1570   39.5620   52.1580 O.3    10  A10        -0.3307
    204  C3'      -15.1160   39.6340   53.2820 C.3    10  A10         0.1860
    205  O3'      -13.7160   39.7660   53.0910 O.3    10  A10        -0.3112
    206  C2'      -15.8160   40.9710   53.4730 C.3    10  A10         0.2309
    207  O2'      -15.3200   41.9600   52.5930 O.3    10  A10        -0.2156
    208  C1'      -17.2510   40.6020   53.1110 C.3    10  A10         0.2408
    209  N1       -18.6240   41.3770   57.9990 N.ar   10  A10        -0.2040
    210  C2       -18.0000   42.1710   57.1180 C.ar   10  A10         0.2016
    211  N3       -17.6940   41.9150   55.8440 N.ar   10  A10        -0.2048
    212  C4       -18.1050   40.6870   55.4830 C.ar   10  A10         0.1692
    213  C5       -18.7630   39.7700   56.2740 C.ar   10  A10         0.1518
    214  C6       -19.0290   40.1530   57.5960 C.ar   10  A10         0.1919
    215  N6       -19.6620   39.3590   58.4530 N.pl3  10  A10        -0.1054
    216  N7       -19.0320   38.6090   55.5710 N.ar   10  A10        -0.2193
    217  C8       -18.5160   38.8360   54.3850 C.ar   10  A10         0.1816
    218  N9       -17.9570   40.0760   54.2630 N.ar   10  A10        -0.2693
    219  OP1      -15.9010   34.7560   52.3770 O.2    10  A10        -0.5172
    220  OP2      -16.7900   35.2150   54.7600 O.co2  10  A10        -0.4373
    221  P        -12.7520   39.5880   54.3540 P.3    11  G11         0.2141
    222  C5'      -12.8630   42.0450   55.2560 C.3    11  G11         0.1812
    223  O5'      -13.2770   40.7030   55.3700 O.3    11  G11        -0.3114
    224  C4'      -13.1080   42.7440   56.5800 C.3    11  G11         0.1773
    225  O4'      -14.5120   42.6500   56.9280 O.3    11  G11        -0.3307
    226  C3'      -12.4020   42.1150   57.7710 C.3    11  G11         0.1860
    227  O3'      -11.0430   42.5270   57.8150 O.3    11  G11        -0.3112
    228  C2'      -13.2150   42.7300   58.8990 C.3    11  G11         0.2309
    229  O2'      -12.8770   44.0840   59.1160 O.3    11  G11        -0.2156
    230  C1'      -14.6280   42.6180   58.3360 C.3    11  G11         0.2408
    231  N1       -16.6030   39.9670   62.1880 N.ar   11  G11        -0.1709
    232  C2       -16.0170   41.2160   62.1860 C.ar   11  G11         0.2606
    233  N2       -15.9290   41.8460   63.3640 N.pl3  11  G11        -0.0859
    234  N3       -15.5370   41.8080   61.0970 N.ar   11  G11        -0.1918
    235  C4       -15.6850   41.0350   59.9920 C.ar   11  G11         0.1723
    236  C5       -16.2720   39.7910   59.8820 C.ar   11  G11         0.1748
    237  C6       -16.7770   39.1640   61.0560 C.ar   11  G11         0.3023
    238  O6       -17.3340   38.0600   61.1610 O.2    11  G11        -0.2633
    239  N7       -16.2480   39.3550   58.5600 N.ar   11  G11        -0.2173
    240  C8       -15.6400   40.3170   57.9200 C.ar   11  G11         0.1817
    241  N9       -15.2850   41.3750   58.7240 N.ar   11  G11        -0.2693
    242  OP1      -11.3520   39.8580   53.9380 O.2    11  G11        -0.5172
    243  OP2      -13.0970   38.2920   54.9780 O.co2  11  G11        -0.4373
    244  P         -9.9050   41.5730   58.4220 P.3    12  G12         0.2141
    245  C5'       -9.8710   42.5860   60.8050 C.3    12  G12         0.1812
    246  O5'      -10.2880   41.5130   59.9690 O.3    12  G12        -0.3114
    247  C4'      -10.4900   42.4820   62.1870 C.3    12  G12         0.1773
    248  O4'      -11.9060   42.1650   62.1200 O.3    12  G12        -0.3307
    249  C3'       -9.9300   41.3580   63.0330 C.3    12  G12         0.1860
    250  O3'       -8.7100   41.7530   63.5910 O.3    12  G12        -0.3112
    251  C2'      -11.0010   41.2310   64.1020 C.3    12  G12         0.2309
    252  O2'      -10.8910   42.2560   65.0620 O.3    12  G12        -0.2156
    253  C1'      -12.2660   41.4260   63.2740 C.3    12  G12         0.2408
    254  N1       -14.6810   37.1990   64.7690 N.ar   12  G12        -0.1709
    255  C2       -14.2080   38.2450   65.5250 C.ar   12  G12         0.2606
    256  N2       -14.4250   38.1750   66.8470 N.pl3  12  G12        -0.0859
    257  N3       -13.5790   39.2960   65.0220 N.ar   12  G12        -0.1918
    258  C4       -13.4680   39.2260   63.6740 C.ar   12  G12         0.1723
    259  C5       -13.9030   38.2270   62.8330 C.ar   12  G12         0.1748
    260  C6       -14.5740   37.1080   63.3850 C.ar   12  G12         0.3023
    261  O6       -15.0480   36.1260   62.7950 O.2    12  G12        -0.2633
    262  N7       -13.5730   38.5210   61.5140 N.ar   12  G12        -0.2173
    263  C8       -12.9600   39.6730   61.5790 C.ar   12  G12         0.1817
    264  N9       -12.8720   40.1670   62.8580 N.ar   12  G12        -0.2693
    265  OP1       -8.6000   42.2660   58.3290 O.3    12  G12        -0.4373
    266  OP2      -10.0560   40.2360   57.8180 O.co2  12  G12        -0.5172
    267  P         -7.6170   40.6120   63.8060 P.3    13  U13         0.2141
    268  C5'       -8.3440   40.4540   66.3220 C.3    13  U13         0.1812
    269  O5'       -8.1940   39.7990   65.0620 O.3    13  U13        -0.3114
    270  C4'       -9.0120   39.5520   67.3430 C.3    13  U13         0.1773
    271  O4'      -10.3760   39.2630   66.9430 O.3    13  U13        -0.3307
    272  C3'       -8.4070   38.1630   67.4980 C.3    13  U13         0.1860
    273  O3'       -7.2100   38.1760   68.2600 O.3    13  U13        -0.3112
    274  C2'       -9.5420   37.4470   68.2160 C.3    13  U13         0.2309
    275  O2'       -9.6990   37.8550   69.5610 O.3    13  U13        -0.2156
    276  C1'      -10.7140   37.9610   67.3960 C.3    13  U13         0.2420
    277  N1       -11.0360   37.0850   66.2470 N.ar   13  U13        -0.2534
    278  C2       -11.7740   35.9510   66.4820 C.ar   13  U13         0.3546
    279  O2       -12.1610   35.6330   67.5920 O.2    13  U13        -0.2443
    280  N3       -12.0690   35.2140   65.3600 N.ar   13  U13        -0.1530
    281  C4       -11.7060   35.4970   64.0530 C.ar   13  U13         0.2846
    282  O4       -12.0380   34.7400   63.1430 O.2    13  U13        -0.2650
    283  C5       -10.9320   36.6970   63.8970 C.ar   13  U13         0.0814
    284  C6       -10.6350   37.4280   64.9760 C.ar   13  U13         0.0870
    285  OP1       -6.3540   41.2850   64.1920 O.3    13  U13        -0.4373
    286  OP2       -7.6750   39.7060   62.6360 O.co2  13  U13        -0.5172
    287  P         -6.0770   37.0940   67.9290 P.3    14  A14         0.2141
    288  C5'       -6.8820   35.5600   69.8470 C.3    14  A14         0.1812
    289  O5'       -6.7140   35.7310   68.4570 O.3    14  A14        -0.3114
    290  C4'       -7.7240   34.3320   70.0960 C.3    14  A14         0.1773
    291  O4'       -8.9280   34.3740   69.2950 O.3    14  A14        -0.3307
    292  C3'       -7.0910   33.0420   69.6350 C.3    14  A14         0.1860
    293  O3'       -6.0360   32.7000   70.5110 O.3    14  A14        -0.3112
    294  C2'       -8.3170   32.1320   69.7130 C.3    14  A14         0.2309
    295  O2'       -8.7040   31.8080   71.0340 O.3    14  A14        -0.2156
    296  C1'       -9.3760   33.0450   69.0970 C.3    14  A14         0.2408
    297  N1       -11.5550   30.2300   65.3930 N.ar   14  A14        -0.2040
    298  C2       -11.5740   30.1410   66.7280 C.ar   14  A14         0.2016
    299  N3       -10.9800   30.9090   67.6410 N.ar   14  A14        -0.2048
    300  C4       -10.2920   31.8820   67.0480 C.ar   14  A14         0.1692
    301  C5       -10.1690   32.1100   65.6910 C.ar   14  A14         0.1518
    302  C6       -10.8450   31.2290   64.8270 C.ar   14  A14         0.1919
    303  N6       -10.8240   31.3370   63.4950 N.pl3  14  A14        -0.1054
    304  N7        -9.3740   33.2130   65.4550 N.ar   14  A14        -0.2193
    305  C8        -9.0350   33.6220   66.6560 C.ar   14  A14         0.1816
    306  N9        -9.5540   32.8550   67.6640 N.ar   14  A14        -0.2693
    307  OP1       -4.9060   37.4240   68.7680 O.3    14  A14        -0.4373
    308  OP2       -5.9330   36.9510   66.4620 O.co2  14  A14        -0.5172
    309  P         -4.9330   31.6300   70.0510 P.3    15  A15         0.2141
    310  C5'       -5.8470   29.4730   71.1390 C.3    15  A15         0.1812
    311  O5'       -5.8040   30.2900   70.0060 O.3    15  A15        -0.3114
    312  C4'       -6.8550   28.3830   70.8900 C.3    15  A15         0.1773
    313  O4'       -7.9520   28.9560   70.1460 O.3    15  A15        -0.3307
    314  C3'       -6.3550   27.2470   70.0140 C.3    15  A15         0.1860
    315  O3'       -5.6860   26.2850   70.8080 O.3    15  A15        -0.3112
    316  C2'       -7.6640   26.7070   69.4520 C.3    15  A15         0.2309
    317  O2'       -8.3520   25.8740   70.3620 O.3    15  A15        -0.2156
    318  C1'       -8.4390   28.0020   69.2140 C.3    15  A15         0.2408
    319  N1        -9.7610   27.6920   64.2380 N.ar   15  A15        -0.2040
    320  C2       -10.1360   26.9720   65.3070 C.ar   15  A15         0.2016
    321  N3        -9.7620   27.1150   66.5790 N.ar   15  A15        -0.2048
    322  C4        -8.8710   28.1120   66.7090 C.ar   15  A15         0.1692
    323  C5        -8.3840   28.9290   65.7060 C.ar   15  A15         0.1518
    324  C6        -8.8640   28.6890   64.4040 C.ar   15  A15         0.1919
    325  N6        -8.4840   29.4000   63.3430 N.pl3  15  A15        -0.1054
    326  N7        -7.4960   29.8610   66.2130 N.ar   15  A15        -0.2193
    327  C8        -7.4510   29.5820   67.4940 C.ar   15  A15         0.1816
    328  N9        -8.2630   28.5430   67.8650 N.ar   15  A15        -0.2693
    329  OP1       -3.9180   31.5400   71.1240 O.3    15  A15        -0.4373
    330  OP2       -4.4740   31.9180   68.6710 O.co2  15  A15        -0.5172
    331  P         -4.4210   25.4770   70.2390 P.3    16  A16         0.2141
    332  C5'       -5.9370   23.4370   69.9180 C.3    16  A16         0.1812
    333  O5'       -5.1100   24.3930   69.2830 O.3    16  A16        -0.3114
    334  C4'       -6.7610   22.6330   68.9380 C.3    16  A16         0.1773
    335  O4'       -7.7210   23.5020   68.2920 O.3    16  A16        -0.3307
    336  C3'       -5.9840   22.0020   67.7970 C.3    16  A16         0.1860
    337  O3'       -5.3860   20.7770   68.1930 O.3    16  A16        -0.3112
    338  C2'       -7.1000   21.8050   66.7770 C.3    16  A16         0.2309
    339  O2'       -7.9450   20.7090   67.0670 O.3    16  A16        -0.2156
    340  C1'       -7.8470   23.1300   66.9280 C.3    16  A16         0.2408
    341  N1        -7.7510   25.3910   62.2870 N.ar   16  A16        -0.2040
    342  C2        -8.4330   24.3350   62.7490 C.ar   16  A16         0.2016
    343  N3        -8.4170   23.7970   63.9710 N.ar   16  A16        -0.2048
    344  C4        -7.5610   24.4550   64.7730 C.ar   16  A16         0.1692
    345  C5        -6.7850   25.5470   64.4340 C.ar   16  A16         0.1518
    346  C6        -6.8950   26.0230   63.1110 C.ar   16  A16         0.1919
    347  N6        -6.2050   27.0600   62.6420 N.pl3  16  A16        -0.1054
    348  N7        -6.0340   25.9700   65.5190 N.ar   16  A16        -0.2193
    349  C8        -6.3620   25.1320   66.4710 C.ar   16  A16         0.1816
    350  N9        -7.2880   24.1990   66.0960 N.ar   16  A16        -0.2693
    351  OP1       -3.8180   24.7570   71.3860 O.3    16  A16        -0.4373
    352  OP2       -3.5790   26.4040   69.4480 O.co2  16  A16        -0.5172
    353  P         -3.9320   20.3850   67.6440 P.3    17  C17         0.2141
    354  C5'       -5.1810   19.0040   65.8440 C.3    17  C17         0.1812
    355  O5'       -4.2200   20.0170   66.1140 O.3    17  C17        -0.3114
    356  C4'       -5.5400   18.9720   64.3740 C.3    17  C17         0.1773
    357  O4'       -6.3180   20.1540   64.0450 O.3    17  C17        -0.3307
    358  C3'       -4.3750   19.0530   63.4030 C.3    17  C17         0.1860
    359  O3'       -3.7310   17.8070   63.2460 O.3    17  C17        -0.3112
    360  C2'       -5.1300   19.4560   62.1440 C.3    17  C17         0.2309
    361  O2'       -5.9050   18.3920   61.6420 O.3    17  C17        -0.2156
    362  C1'       -6.0430   20.5420   62.7100 C.3    17  C17         0.2420
    363  N1        -5.3830   21.8870   62.7010 N.ar   17  C17        -0.2535
    364  C2        -5.3360   22.6080   61.5010 C.ar   17  C17         0.3532
    365  O2        -5.9020   22.1470   60.5010 O.2    17  C17        -0.2443
    366  N3        -4.6900   23.8010   61.4800 N.ar   17  C17        -0.1739
    367  C4        -4.0990   24.2620   62.5850 C.ar   17  C17         0.1759
    368  N4        -3.4800   25.4420   62.5090 N.pl3  17  C17        -0.1070
    369  C5        -4.1020   23.5310   63.8090 C.ar   17  C17         0.0566
    370  C6        -4.7470   22.3580   63.8200 C.ar   17  C17         0.0850
    371  OP1       -3.4910   19.1460   68.3260 O.3    17  C17        -0.4373
    372  OP2       -3.0820   21.5940   67.7020 O.co2  17  C17        -0.5172
    373  P         -2.1530   17.7950   62.9880 P.3    18  G18         0.2141
    374  C5'       -2.6530   17.5310   60.4460 C.3    18  G18         0.1812
    375  O5'       -2.0210   18.2730   61.4700 O.3    18  G18        -0.3114
    376  C4'       -2.5500   18.2670   59.1240 C.3    18  G18         0.1773
    377  O4'       -3.2700   19.5240   59.1870 O.3    18  G18        -0.3307
    378  C3'       -1.1490   18.6980   58.7340 C.3    18  G18         0.1860
    379  O3'       -0.4520   17.6160   58.1600 O.3    18  G18        -0.3112
    380  C2'       -1.4650   19.7590   57.6910 C.3    18  G18         0.2309
    381  O2'       -1.8590   19.1930   56.4620 O.3    18  G18        -0.2156
    382  C1'       -2.6500   20.4690   58.3330 C.3    18  G18         0.2408
    383  N1        -1.1670   25.3440   58.2120 N.ar   18  G18        -0.1709
    384  C2        -1.5620   24.5270   57.1730 C.ar   18  G18         0.2606
    385  N2        -1.5480   25.0620   55.9420 N.pl3  18  G18        -0.0859
    386  N3        -1.9480   23.2650   57.3330 N.ar   18  G18        -0.1918
    387  C4        -1.8870   22.8710   58.6320 C.ar   18  G18         0.1723
    388  C5        -1.5050   23.6090   59.7330 C.ar   18  G18         0.1748
    389  C6        -1.1100   24.9590   59.5520 C.ar   18  G18         0.3023
    390  O6        -0.7390   25.7690   60.4130 O.2    18  G18        -0.2633
    391  N7        -1.5900   22.8360   60.8900 N.ar   18  G18        -0.2173
    392  C8        -2.0090   21.6700   60.4780 C.ar   18  G18         0.1817
    393  N9        -2.2140   21.6200   59.1200 N.ar   18  G18        -0.2693
    394  OP1       -1.6940   16.3910   63.0020 O.2    18  G18        -0.5172
    395  OP2       -1.5350   18.8120   63.8760 O.co2  18  G18        -0.4373
    396  P          1.1410   17.6270   58.2400 P.3    19  U19         0.2141
    397  C5'        1.2530   18.6250   55.8110 C.3    19  U19         0.1812
    398  O5'        1.4840   18.7880   57.2000 O.3    19  U19        -0.3114
    399  C4'        1.7500   19.8680   55.1050 C.3    19  U19         0.1773
    400  O4'        0.9250   20.9980   55.4890 O.3    19  U19        -0.3307
    401  C3'        3.1420   20.3050   55.5350 C.3    19  U19         0.1860
    402  O3'        4.0940   19.5140   54.8900 O.3    19  U19        -0.3112
    403  C2'        3.1200   21.7230   54.9890 C.3    19  U19         0.2309
    404  O2'        3.2530   21.7490   53.5880 O.3    19  U19        -0.2156
    405  C1'        1.7180   22.1670   55.3990 C.3    19  U19         0.2420
    406  N1         1.7650   22.8460   56.7200 N.ar   19  U19        -0.2534
    407  C2         2.0720   24.1890   56.7400 C.ar   19  U19         0.3546
    408  O2         2.2420   24.8350   55.7270 O.2    19  U19        -0.2443
    409  N3         2.1580   24.7540   57.9870 N.ar   19  U19        -0.1530
    410  C4         1.9920   24.1050   59.1980 C.ar   19  U19         0.2846
    411  O4         2.0920   24.7450   60.2400 O.2    19  U19        -0.2650
    412  C5         1.6960   22.6940   59.0980 C.ar   19  U19         0.0814
    413  C6         1.6030   22.1250   57.8880 C.ar   19  U19         0.0870
    414  OP1        1.6630   16.3540   57.6980 O.2    19  U19        -0.5172
    415  OP2        1.5360   18.1190   59.5820 O.co2  19  U19        -0.4373
    416  P          5.6570   19.8240   55.0050 P.3    20  G20         0.2141
    417  C5'        6.8800   22.1120   55.0430 C.3    20  G20         0.1812
    418  O5'        5.7760   21.3580   54.5880 O.3    20  G20        -0.3114
    419  C4'        6.7360   23.5380   54.5640 C.3    20  G20         0.1773
    420  O4'        5.5770   24.1330   55.1930 O.3    20  G20        -0.3307
    421  C3'        7.8830   24.4370   54.9680 C.3    20  G20         0.1860
    422  O3'        8.9420   24.2710   54.0400 O.3    20  G20        -0.3112
    423  C2'        7.2050   25.7960   54.8710 C.3    20  G20         0.2309
    424  O2'        7.0350   26.2330   53.5410 O.3    20  G20        -0.2156
    425  C1'        5.8360   25.4920   55.4740 C.3    20  G20         0.2408
    426  N1         6.1290   28.9720   59.1840 N.ar   20  G20        -0.1709
    427  C2         6.2320   29.1300   57.8230 C.ar   20  G20         0.2606
    428  N2         6.4320   30.3750   57.3880 N.pl3  20  G20        -0.0859
    429  N3         6.1290   28.1430   56.9470 N.ar   20  G20        -0.1918
    430  C4         5.9240   26.9460   57.5560 C.ar   20  G20         0.1723
    431  C5         5.8150   26.6860   58.9040 C.ar   20  G20         0.1748
    432  C6         5.9200   27.7570   59.8300 C.ar   20  G20         0.3023
    433  O6         5.8570   27.7350   61.0680 O.2    20  G20        -0.2633
    434  N7         5.5720   25.3400   59.1100 N.ar   20  G20        -0.2173
    435  C8         5.5720   24.8170   57.9140 C.ar   20  G20         0.1817
    436  N9         5.7740   25.7310   56.9170 N.ar   20  G20        -0.2693
    437  OP1        6.3210   19.0070   53.9680 O.2    20  G20        -0.5172
    438  OP2        6.1090   19.7470   56.4180 O.co2  20  G20        -0.4373
    439  P         10.4540   24.4490   54.5270 P.3    21  C21         0.2141
    440  C5'       10.4170   26.9900   53.8680 C.3    21  C21         0.1812
    441  O5'       10.4910   26.0040   54.8840 O.3    21  C21        -0.3114
    442  C4'       10.4400   28.3610   54.5150 C.3    21  C21         0.1773
    443  O4'        9.3010   28.4630   55.4080 O.3    21  C21        -0.3307
    444  C3'       11.6150   28.5940   55.4460 C.3    21  C21         0.1860
    445  O3'       12.7670   28.9800   54.7320 O.3    21  C21        -0.3112
    446  C2'       11.0770   29.7090   56.3220 C.3    21  C21         0.2309
    447  O2'       11.0930   30.9560   55.6740 O.3    21  C21        -0.2156
    448  C1'        9.6310   29.2740   56.5170 C.3    21  C21         0.2420
    449  N1         9.4430   28.5000   57.7730 N.ar   21  C21        -0.2535
    450  C2         9.5100   29.1740   58.9890 C.ar   21  C21         0.3532
    451  O2         9.7010   30.3870   58.9890 O.2    21  C21        -0.2443
    452  N3         9.3550   28.4820   60.1350 N.ar   21  C21        -0.1739
    453  C4         9.1840   27.1570   60.1030 C.ar   21  C21         0.1759
    454  N4         9.0590   26.5220   61.2770 N.pl3  21  C21        -0.1070
    455  C5         9.1550   26.4310   58.8720 C.ar   21  C21         0.0566
    456  C6         9.2990   27.1400   57.7470 C.ar   21  C21         0.0850
    457  OP1       11.3750   24.2000   53.3980 O.2    21  C21        -0.5172
    458  OP2       10.5970   23.6850   55.7830 O.co2  21  C21        -0.4373
    459  P         14.2080   28.4910   55.2390 P.3    22  G22         0.2141
    460  C5'       14.6140   30.8760   56.2290 C.3    22  G22         0.1812
    461  O5'       14.5260   29.4840   56.4480 O.3    22  G22        -0.3114
    462  C4'       14.6170   31.6030   57.5630 C.3    22  G22         0.1773
    463  O4'       13.3940   31.3330   58.2950 O.3    22  G22        -0.3307
    464  C3'       15.6920   31.1400   58.5200 C.3    22  G22         0.1860
    465  O3'       16.8910   31.7760   58.1770 O.3    22  G22        -0.3112
    466  C2'       15.1390   31.7150   59.8090 C.3    22  G22         0.2309
    467  O2'       15.2870   33.1140   59.8000 O.3    22  G22        -0.2156
    468  C1'       13.6630   31.3790   59.6780 C.3    22  G22         0.2408
    469  N1        12.5380   28.6590   63.8810 N.ar   22  G22        -0.1709
    470  C2        12.9820   29.9490   63.7870 C.ar   22  G22         0.2606
    471  N2        13.1410   30.5920   64.9430 N.pl3  22  G22        -0.0859
    472  N3        13.2600   30.5610   62.6460 N.ar   22  G22        -0.1918
    473  C4        13.0560   29.7630   61.5690 C.ar   22  G22         0.1723
    474  C5        12.6190   28.4570   61.5650 C.ar   22  G22         0.1748
    475  C6        12.3000   27.8250   62.7950 C.ar   22  G22         0.3023
    476  O6        11.9100   26.6650   62.9980 O.2    22  G22        -0.2633
    477  N7        12.5470   27.9770   60.2600 N.ar   22  G22        -0.2173
    478  C8        12.9070   28.9870   59.5140 C.ar   22  G22         0.1817
    479  N9        13.2570   30.0980   60.2380 N.ar   22  G22        -0.2693
    480  OP1       15.1910   28.7730   54.1730 O.2    22  G22        -0.5172
    481  OP2       14.0840   27.1320   55.8140 O.co2  22  G22        -0.4373
    482  P         18.2910   31.0360   58.4290 P.3    23  U23         0.2141
    483  C5'       18.4250   32.1170   60.8220 C.3    23  U23         0.1812
    484  O5'       18.3180   30.9380   60.0300 O.3    23  U23        -0.3114
    485  C4'       18.4870   31.7640   62.2960 C.3    23  U23         0.1773
    486  O4'       17.1750   31.3370   62.7400 O.3    23  U23        -0.3307
    487  C3'       19.4040   30.5960   62.6540 C.3    23  U23         0.1860
    488  O3'       20.7300   31.0580   62.8480 O.3    23  U23        -0.3112
    489  C2'       18.7990   30.1540   63.9770 C.3    23  U23         0.2309
    490  O2'       19.1410   31.0490   65.0110 O.3    23  U23        -0.2156
    491  C1'       17.3160   30.3110   63.6990 C.3    23  U23         0.2420
    492  N1        16.6520   29.1010   63.1860 N.ar   23  U23        -0.2534
    493  C2        15.9930   28.2970   64.0880 C.ar   23  U23         0.3546
    494  O2        15.9930   28.5060   65.2870 O.2    23  U23        -0.2443
    495  N3        15.3350   27.2260   63.5450 N.ar   23  U23        -0.1530
    496  C4        15.2640   26.8960   62.2040 C.ar   23  U23         0.2846
    497  O4        14.6210   25.9050   61.8670 O.2    23  U23        -0.2650
    498  C5        15.9540   27.7990   61.3190 C.ar   23  U23         0.0814
    499  C6        16.6000   28.8550   61.8320 C.ar   23  U23         0.0870
    500  OP1       19.3530   31.9530   57.9450 O.3    23  U23        -0.4373
    501  OP2       18.2090   29.6610   57.8950 O.co2  23  U23        -0.5172
    502  P         21.9710   30.0590   62.7040 P.3    24  A24         0.2141
    503  C5'       23.5440   31.9260   61.7220 C.3    24  A24         0.1812
    504  O5'       22.8230   30.7200   61.5240 O.3    24  A24        -0.3114
    505  C4'       23.7970   32.6070   60.3870 C.3    24  A24         0.1773
    506  O4'       24.6120   31.7740   59.5260 O.3    24  A24        -0.3307
    507  C3'       22.5560   32.9050   59.5680 C.3    24  A24         0.1860
    508  O3'       22.7920   34.0860   58.8300 O.3    24  A24        -0.3112
    509  C2'       22.4310   31.7110   58.6310 C.3    24  A24         0.2309
    510  O2'       21.8300   32.0890   57.4120 O.3    24  A24        -0.2156
    511  C1'       23.8930   31.3920   58.3680 C.3    24  A24         0.2408
    512  N1        26.5350   27.9900   55.5520 N.ar   24  A24        -0.2040
    513  C2        26.4640   29.3270   55.5020 C.ar   24  A24         0.2016
    514  N3        25.7430   30.1550   56.2580 N.ar   24  A24        -0.2048
    515  C4        25.0280   29.4700   57.1690 C.ar   24  A24         0.1692
    516  C5        24.9970   28.0970   57.3420 C.ar   24  A24         0.1518
    517  C6        25.7990   27.3230   56.4710 C.ar   24  A24         0.1919
    518  N6        25.8570   25.9830   56.5040 N.pl3  24  A24        -0.1054
    519  N7        24.1310   27.7550   58.3700 N.ar   24  A24        -0.2193
    520  C8        23.6720   28.9080   58.7930 C.ar   24  A24         0.1816
    521  N9        24.1640   29.9830   58.1090 N.ar   24  A24        -0.2693
    522  OP1       21.4840   28.7510   62.2080 O.2    24  A24        -0.5172
    523  OP2       22.7570   30.1440   63.9470 O.co2  24  A24        -0.4373
    524  P         22.5020   35.4910   59.5220 P.3    25  A25         0.2141
    525  C5'       20.0110   35.0900   58.8970 C.3    25  A25         0.1812
    526  O5'       20.9510   35.4510   59.8840 O.3    25  A25        -0.3114
    527  C4'       18.7270   35.8190   59.2090 C.3    25  A25         0.1773
    528  O4'       18.0870   35.2020   60.3540 O.3    25  A25        -0.3307
    529  C3'       18.9330   37.2820   59.5750 C.3    25  A25         0.1860
    530  O3'       17.9410   38.0260   58.8870 O.3    25  A25        -0.3112
    531  C2'       18.7240   37.2970   61.0900 C.3    25  A25         0.2309
    532  O2'       18.1920   38.5240   61.5320 O.3    25  A25        -0.2156
    533  C1'       17.6870   36.2010   61.2640 C.3    25  A25         0.2408
    534  N1        15.0030   33.0960   64.4360 N.ar   25  A25        -0.2040
    535  C2        14.8640   33.3860   63.1340 C.ar   25  A25         0.2016
    536  N3        15.6000   34.2020   62.3680 N.ar   25  A25        -0.2048
    537  C4        16.6090   34.7520   63.0630 C.ar   25  A25         0.1692
    538  C5        16.8820   34.5500   64.4050 C.ar   25  A25         0.1518
    539  C6        16.0250   33.6780   65.1070 C.ar   25  A25         0.1919
    540  N6        16.1930   33.4080   66.3990 N.pl3  25  A25        -0.1054
    541  N7        17.9810   35.2910   64.8030 N.ar   25  A25        -0.2193
    542  C8        18.3460   35.9180   63.7060 C.ar   25  A25         0.1816
    543  N9        17.5690   35.6370   62.6120 N.ar   25  A25        -0.2693
    544  OP1       22.6780   36.5090   58.4690 O.2    25  A25        -0.5172
    545  OP2       23.2560   35.5460   60.7960 O.co2  25  A25        -0.4373
    546  P         18.2200   39.4740   58.2600 P.3    26  A26         0.2141
    547  C5'       16.5720   39.1750   56.2540 C.3    26  A26         0.1812
    548  O5'       16.8330   39.7610   57.5020 O.3    26  A26        -0.3114
    549  C4'       15.3300   38.2970   56.2090 C.3    26  A26         0.1773
    550  O4'       15.5050   37.0990   57.0080 O.3    26  A26        -0.3307
    551  C3'       13.9950   38.8370   56.6890 C.3    26  A26         0.1860
    552  O3'       13.4290   39.7970   55.7840 O.3    26  A26        -0.3112
    553  C2'       13.2260   37.5140   56.6440 C.3    26  A26         0.2309
    554  O2'       12.9500   37.0980   55.3280 O.3    26  A26        -0.2156
    555  C1'       14.2280   36.5300   57.2400 C.3    26  A26         0.2408
    556  N1        11.4270   34.0270   60.7500 N.ar   26  A26        -0.2040
    557  C2        11.4350   33.9900   59.4170 C.ar   26  A26         0.2016
    558  N3        12.1990   34.6690   58.5670 N.ar   26  A26        -0.2048
    559  C4        13.0370   35.4830   59.2210 C.ar   26  A26         0.1692
    560  C5        13.1150   35.6620   60.5850 C.ar   26  A26         0.1518
    561  C6        12.2560   34.8810   61.3810 C.ar   26  A26         0.1919
    562  N6        12.2020   34.9560   62.7140 N.pl3  26  A26        -0.1054
    563  N7        14.0690   36.6130   60.8910 N.ar   26  A26        -0.2193
    564  C8        14.5550   36.9750   59.7230 C.ar   26  A26         0.1816
    565  N9        13.9860   36.3160   58.6690 N.ar   26  A26        -0.2693
    566  OP1       19.3580   39.3350   57.3340 O.2    26  A26        -0.5172
    567  OP2       18.2770   40.4290   59.3950 O.co2  26  A26        -0.4373
    568  P         11.9650   40.4280   56.0310 P.3    27  G27         0.2141
    569  C5'        9.7670   38.9910   56.1370 C.3    27  G27         0.1812
    570  O5'       11.0890   39.2170   56.6040 O.3    27  G27        -0.3114
    571  C4'        9.0230   38.0670   57.0810 C.3    27  G27         0.1773
    572  O4'        9.9370   37.2100   57.8150 O.3    27  G27        -0.3307
    573  C3'        8.3240   38.8160   58.1880 C.3    27  G27         0.1860
    574  O3'        7.1290   39.3390   57.6860 O.3    27  G27        -0.3112
    575  C2'        8.1070   37.6960   59.1930 C.3    27  G27         0.2309
    576  O2'        7.1040   36.7970   58.7940 O.3    27  G27        -0.2156
    577  C1'        9.4680   37.0100   59.1430 C.3    27  G27         0.2408
    578  N1        10.7330   37.7790   64.0390 N.ar   27  G27        -0.1709
    579  C2         9.7920   36.9310   63.5090 C.ar   27  G27         0.2606
    580  N2         9.0980   36.2260   64.4060 N.pl3  27  G27        -0.0859
    581  N3         9.5520   36.7870   62.2080 N.ar   27  G27        -0.1918
    582  C4        10.3440   37.5930   61.4580 C.ar   27  G27         0.1723
    583  C5        11.3180   38.4650   61.8940 C.ar   27  G27         0.1748
    584  C6        11.5670   38.5910   63.2810 C.ar   27  G27         0.3023
    585  O6        12.3920   39.3120   63.8480 O.2    27  G27        -0.2633
    586  N7        11.9320   39.0960   60.8250 N.ar   27  G27        -0.2173
    587  C8        11.3390   38.5940   59.7780 C.ar   27  G27         0.1817
    588  N9        10.3750   37.6640   60.0830 N.ar   27  G27        -0.2693
    589  OP1       11.3950   40.8420   54.7240 O.2    27  G27        -0.5172
    590  OP2       12.1070   41.4200   57.1250 O.co2  27  G27        -0.4373
    591  P          6.6010   40.7460   58.2190 P.3    28  U28         0.2141
    592  C5'        5.2800   39.5830   60.1480 C.3    28  U28         0.1812
    593  O5'        6.3200   40.4500   59.7650 O.3    28  U28        -0.3114
    594  C4'        5.2980   39.4080   61.6530 C.3    28  U28         0.1773
    595  O4'        6.6100   38.9700   62.0940 O.3    28  U28        -0.3307
    596  C3'        5.0860   40.6830   62.4410 C.3    28  U28         0.1860
    597  O3'        3.7120   40.9670   62.5210 O.3    28  U28        -0.3112
    598  C2'        5.6400   40.2780   63.7970 C.3    28  U28         0.2309
    599  O2'        4.7640   39.3890   64.4530 O.3    28  U28        -0.2156
    600  C1'        6.8990   39.5450   63.3580 C.3    28  U28         0.2420
    601  N1         8.1050   40.4220   63.2110 N.ar   28  U28        -0.2534
    602  C2         8.7890   40.8180   64.3380 C.ar   28  U28         0.3546
    603  O2         8.4320   40.5370   65.4630 O.2    28  U28        -0.2443
    604  N3         9.9150   41.5630   64.1060 N.ar   28  U28        -0.1530
    605  C4        10.4200   41.9440   62.8790 C.ar   28  U28         0.2846
    606  O4        11.4330   42.6360   62.8270 O.2    28  U28        -0.2650
    607  C5         9.6780   41.4580   61.7480 C.ar   28  U28         0.0814
    608  C6         8.5730   40.7350   61.9510 C.ar   28  U28         0.0870
    609  OP1        5.3140   41.0510   57.5530 O.2    28  U28        -0.5172
    610  OP2        7.7280   41.7100   58.1490 O.co2  28  U28        -0.4373
    611  P          3.2410   42.4860   62.3300 P.3    29  G29         0.2141
    612  C5'        3.1220   42.9110   64.8970 C.3    29  G29         0.1812
    613  O5'        3.7590   43.2120   63.6550 O.3    29  G29        -0.3114
    614  C4'        3.9010   43.4870   66.0690 C.3    29  G29         0.1773
    615  O4'        5.2320   42.9110   66.1500 O.3    29  G29        -0.3307
    616  C3'        4.1600   44.9790   65.9890 C.3    29  G29         0.1860
    617  O3'        3.0010   45.6930   66.3890 O.3    29  G29        -0.3112
    618  C2'        5.3300   45.1250   66.9550 C.3    29  G29         0.2309
    619  O2'        4.9340   44.9530   68.3000 O.3    29  G29        -0.2156
    620  C1'        6.1530   43.9200   66.5310 C.3    29  G29         0.2408
    621  N1        10.4300   46.2000   64.9660 N.ar   29  G29        -0.1709
    622  C2         9.8540   46.1990   66.2130 C.ar   29  G29         0.2606
    623  N2        10.5060   46.8930   67.1460 N.pl3  29  G29        -0.0859
    624  N3         8.7260   45.5730   66.5230 N.ar   29  G29        -0.1918
    625  C4         8.2210   44.9120   65.4480 C.ar   29  G29         0.1723
    626  C5         8.7230   44.8520   64.1680 C.ar   29  G29         0.1748
    627  C6         9.9090   45.5400   63.8580 C.ar   29  G29         0.3023
    628  O6        10.4970   45.5880   62.7730 O.2    29  G29        -0.2633
    629  N7         7.9090   44.0920   63.3480 N.ar   29  G29        -0.2173
    630  C8         6.9320   43.7170   64.1290 C.ar   29  G29         0.1817
    631  N9         7.0480   44.1890   65.4140 N.ar   29  G29        -0.2693
    632  OP1        1.7560   42.4650   62.3400 O.3    29  G29        -0.4373
    633  OP2        3.9940   43.0290   61.1830 O.co2  29  G29        -0.5172
    634  P          2.7680   47.1730   65.8210 P.3    30  C30         0.2141
    635  C5'        4.1280   48.5760   67.5750 C.3    30  C30         0.1812
    636  O5'        4.0830   47.9350   66.3180 O.3    30  C30        -0.3114
    637  C4'        5.3960   49.4000   67.6280 C.3    30  C30         0.1773
    638  O4'        6.4760   48.5710   67.1490 O.3    30  C30        -0.3307
    639  C3'        5.4320   50.5580   66.6490 C.3    30  C30         0.1860
    640  O3'        4.7090   51.6680   67.1530 O.3    30  C30        -0.3112
    641  C2'        6.9350   50.8020   66.5340 C.3    30  C30         0.2309
    642  O2'        7.5210   51.4320   67.6570 O.3    30  C30        -0.2156
    643  C1'        7.4400   49.3690   66.4880 C.3    30  C30         0.2420
    644  N1         7.6730   48.8720   65.1060 N.ar   30  C30        -0.2535
    645  C2         8.8050   49.3090   64.4140 C.ar   30  C30         0.3532
    646  O2         9.5870   50.0990   64.9600 O.2    30  C30        -0.2443
    647  N3         9.0150   48.8540   63.1570 N.ar   30  C30        -0.1739
    648  C4         8.1430   48.0240   62.5960 C.ar   30  C30         0.1759
    649  N4         8.4050   47.6160   61.3580 N.pl3  30  C30        -0.1070
    650  C5         6.9810   47.5730   63.2770 C.ar   30  C30         0.0566
    651  C6         6.7890   48.0180   64.5210 C.ar   30  C30         0.0850
    652  OP1        1.5640   47.7130   66.4920 O.3    30  C30        -0.4373
    653  OP2        2.8410   47.1520   64.3410 O.co2  30  C30        -0.5172
    654  P          3.6480   52.3980   66.2040 P.3    31  C31         0.2141
    655  C5'        5.4550   54.3060   66.3190 C.3    31  C31         0.1812
    656  O5'        4.5480   53.5410   65.5260 O.3    31  C31        -0.3114
    657  C4'        6.4290   55.1050   65.4690 C.3    31  C31         0.1773
    658  O4'        7.5140   54.2380   65.0470 O.3    31  C31        -0.3307
    659  C3'        5.8750   55.6710   64.1650 C.3    31  C31         0.1860
    660  O3'        5.2310   56.9200   64.3550 O.3    31  C31        -0.3112
    661  C2'        7.1410   55.8170   63.3300 C.3    31  C31         0.2309
    662  O2'        7.9070   56.9450   63.6950 O.3    31  C31        -0.2156
    663  C1'        7.8880   54.5430   63.7100 C.3    31  C31         0.2420
    664  N1         7.6080   53.3820   62.7860 N.ar   31  C31        -0.2535
    665  C2         8.3680   53.2230   61.6130 C.ar   31  C31         0.3532
    666  O2         9.2800   54.0160   61.3500 O.2    31  C31        -0.2443
    667  N3         8.1100   52.1750   60.7960 N.ar   31  C31        -0.1739
    668  C4         7.1390   51.3150   61.0940 C.ar   31  C31         0.1759
    669  N4         6.9200   50.3090   60.2380 N.pl3  31  C31        -0.1070
    670  C5         6.3390   51.4680   62.2690 C.ar   31  C31         0.0566
    671  C6         6.6080   52.4980   63.0780 C.ar   31  C31         0.0850
    672  OP1        2.5920   52.9950   67.0540 O.3    31  C31        -0.4373
    673  OP2        3.2420   51.4420   65.1570 O.co2  31  C31        -0.5172
    674  P          3.9980   57.3330   63.4130 P.3    32  U32         0.2141
    675  C5'        5.7330   58.6080   61.9380 C.3    32  U32         0.1812
    676  O5'        4.7040   57.6280   62.0040 O.3    32  U32        -0.3114
    677  C4'        6.3380   58.7140   60.5480 C.3    32  U32         0.1773
    678  O4'        7.3590   57.6920   60.3310 O.3    32  U32        -0.3307
    679  C3'        5.3690   58.5810   59.3770 C.3    32  U32         0.1860
    680  O3'        4.7090   59.8120   59.1050 O.3    32  U32        -0.3112
    681  C2'        6.3580   58.2310   58.2760 C.3    32  U32         0.2309
    682  O2'        7.1280   59.3410   57.8770 O.3    32  U32        -0.2156
    683  C1'        7.2510   57.2210   58.9950 C.3    32  U32         0.2420
    684  N1         6.6580   55.8300   58.9190 N.ar   32  U32        -0.2534
    685  C2         6.8940   55.0710   57.7850 C.ar   32  U32         0.3546
    686  O2         7.6170   55.4410   56.8770 O.2    32  U32        -0.2443
    687  N3         6.2750   53.8430   57.7620 N.ar   32  U32        -0.1530
    688  C4         5.4570   53.2980   58.7380 C.ar   32  U32         0.2846
    689  O4         4.9760   52.1770   58.5820 O.2    32  U32        -0.2650
    690  C5         5.2370   54.1550   59.8780 C.ar   32  U32         0.0814
    691  C6         5.8120   55.3660   59.9150 C.ar   32  U32         0.0870
    692  OP1        3.4490   58.6090   63.9210 O.3    32  U32        -0.4373
    693  OP2        3.0920   56.1730   63.2660 O.co2  32  U32        -0.5172
    694  P          3.2810   59.8500   58.3710 P.3    33  G33         0.2141
    695  C5'        4.4640   60.2560   56.0480 C.3    33  G33         0.1812
    696  O5'        3.6160   59.4560   56.8530 O.3    33  G33        -0.3114
    697  C4'        4.6580   59.6350   54.6750 C.3    33  G33         0.1773
    698  O4'        5.5220   58.4720   54.7970 O.3    33  G33        -0.3307
    699  C3'        3.4060   59.0810   54.0070 C.3    33  G33         0.1860
    700  O3'        2.6840   60.0680   53.3160 O.3    33  G33        -0.3112
    701  C2'        4.0190   58.0910   53.0270 C.3    33  G33         0.2309
    702  O2'        4.5970   58.6990   51.8930 O.3    33  G33        -0.2156
    703  C1'        5.0930   57.4560   53.8990 C.3    33  G33         0.2408
    704  N1         3.8440   52.5270   53.6500 N.ar   33  G33        -0.1709
    705  C2         4.3810   53.3420   52.6810 C.ar   33  G33         0.2606
    706  N2         4.6530   52.7690   51.5030 N.pl3  33  G33        -0.0859
    707  N3         4.6670   54.6220   52.8670 N.ar   33  G33        -0.1918
    708  C4         4.3400   55.0390   54.1160 C.ar   33  G33         0.1723
    709  C5         3.7850   54.3100   55.1430 C.ar   33  G33         0.1748
    710  C6         3.4990   52.9340   54.9390 C.ar   33  G33         0.3023
    711  O6         2.9880   52.1230   55.7290 O.2    33  G33        -0.2633
    712  N7         3.6110   55.1080   56.2680 N.ar   33  G33        -0.2173
    713  C8         4.0710   56.2720   55.9130 C.ar   33  G33         0.1817
    714  N9         4.5540   56.3020   54.6270 N.ar   33  G33        -0.2693
    715  OP1        2.8010   61.2460   58.4210 O.2    33  G33        -0.5172
    716  OP2        2.3950   58.7920   58.9080 O.co2  33  G33        -0.4373
    717  P          1.1370   59.8290   52.9810 P.3    34  A34         0.2141
    718  C5'        1.7380   58.8210   50.6670 C.3    34  A34         0.1812
    719  O5'        1.1770   58.6250   51.9470 O.3    34  A34        -0.3114
    720  C4'        1.5900   57.5320   49.8850 C.3    34  A34         0.1773
    721  O4'        2.3590   56.4870   50.5410 O.3    34  A34        -0.3307
    722  C3'        0.1750   56.9690   49.8440 C.3    34  A34         0.1860
    723  O3'       -0.5670   57.5560   48.8120 O.3    34  A34        -0.3112
    724  C2'        0.4800   55.5290   49.4840 C.3    34  A34         0.2309
    725  O2'        0.8310   55.4050   48.1240 O.3    34  A34        -0.2156
    726  C1'        1.6840   55.2560   50.3750 C.3    34  A34         0.2408
    727  N1         0.2270   51.0810   52.9660 N.ar   34  A34        -0.2040
    728  C2         0.5520   51.2770   51.6860 C.ar   34  A34         0.2016
    729  N3         0.9150   52.4010   51.0720 N.ar   34  A34        -0.2048
    730  C4         0.9350   53.4250   51.9390 C.ar   34  A34         0.1692
    731  C5         0.6240   53.3790   53.2820 C.ar   34  A34         0.1518
    732  C6         0.2670   52.1210   53.8090 C.ar   34  A34         0.1919
    733  N6        -0.0600   51.9000   55.0790 N.pl3  34  A34        -0.1054
    734  N7         0.7870   54.6330   53.8480 N.ar   34  A34        -0.2193
    735  C8         1.1740   55.3940   52.8530 C.ar   34  A34         0.1816
    736  N9         1.2940   54.7250   51.6750 N.ar   34  A34        -0.2693
    737  OP1        0.6200   60.9990   52.2380 O.2    34  A34        -0.5172
    738  OP2        0.4560   59.3640   54.2110 O.co2  34  A34        -0.4373
    739  P         -2.1290   57.2350   48.7240 P.3    35  G35         0.2141
    740  C5'       -1.9770   55.1470   47.1480 C.3    35  G35         0.1812
    741  O5'       -2.1020   55.6600   48.4720 O.3    35  G35        -0.3114
    742  C4'       -2.4580   53.7120   47.1450 C.3    35  G35         0.1773
    743  O4'       -1.6320   52.9540   48.0670 O.3    35  G35        -0.3307
    744  C3'       -3.8730   53.5270   47.6800 C.3    35  G35         0.1860
    745  O3'       -4.8080   53.8400   46.6520 O.3    35  G35        -0.3112
    746  C2'       -3.8220   52.0470   48.0460 C.3    35  G35         0.2309
    747  O2'       -3.8880   51.1740   46.9370 O.3    35  G35        -0.2156
    748  C1'       -2.4290   51.9490   48.6590 C.3    35  G35         0.2408
    749  N1        -3.2380   49.6200   53.0560 N.ar   35  G35        -0.1709
    750  C2        -3.2050   49.1030   51.7820 C.ar   35  G35         0.2606
    751  N2        -3.4400   47.7920   51.6590 N.pl3  35  G35        -0.0859
    752  N3        -2.9710   49.8260   50.6980 N.ar   35  G35        -0.1918
    753  C4        -2.7730   51.1340   51.0050 C.ar   35  G35         0.1723
    754  C5        -2.7810   51.7480   52.2350 C.ar   35  G35         0.1748
    755  C6        -3.0250   50.9580   53.3870 C.ar   35  G35         0.3023
    756  O6        -3.0530   51.3090   54.5770 O.2    35  G35        -0.2633
    757  N7        -2.4870   53.1030   52.1040 N.ar   35  G35        -0.2173
    758  C8        -2.3480   53.2870   50.8230 C.ar   35  G35         0.1817
    759  N9        -2.4770   52.1250   50.1020 N.ar   35  G35        -0.2693
    760  OP1       -2.6880   57.8830   47.5130 O.2    35  G35        -0.5172
    761  OP2       -2.7500   57.5230   50.0410 O.co2  35  G35        -0.4373
    762  P         -6.4010   53.8400   46.8640 P.3    36  G36         0.2141
    763  C5'       -7.7360   51.9760   48.1110 C.3    36  G36         0.1812
    764  O5'       -6.7280   52.3130   47.1950 O.3    36  G36        -0.3114
    765  C4'       -7.6350   50.4900   48.3650 C.3    36  G36         0.1773
    766  O4'       -6.3930   50.1670   49.0410 O.3    36  G36        -0.3307
    767  C3'       -8.7150   49.9590   49.2800 C.3    36  G36         0.1860
    768  O3'       -9.8360   49.6650   48.4980 O.3    36  G36        -0.3112
    769  C2'       -8.0510   48.6950   49.8110 C.3    36  G36         0.2309
    770  O2'       -8.0440   47.6510   48.8590 O.3    36  G36        -0.2156
    771  C1'       -6.6450   49.2250   50.0690 C.3    36  G36         0.2408
    772  N1        -6.7220   48.8770   55.1760 N.ar   36  G36        -0.1709
    773  C2        -6.8680   47.8860   54.2380 C.ar   36  G36         0.2606
    774  N2        -7.0690   46.6490   54.7010 N.pl3  36  G36        -0.0859
    775  N3        -6.8350   48.0850   52.9280 N.ar   36  G36        -0.1918
    776  C4        -6.6300   49.3870   52.6170 C.ar   36  G36         0.1723
    777  C5        -6.4640   50.4430   53.4800 C.ar   36  G36         0.1748
    778  C6        -6.5030   50.2170   54.8700 C.ar   36  G36         0.3023
    779  O6        -6.3520   51.0470   55.7740 O.2    36  G36        -0.2633
    780  N7        -6.2320   51.6110   52.7810 N.ar   36  G36        -0.2173
    781  C8        -6.2940   51.2580   51.5290 C.ar   36  G36         0.1817
    782  N9        -6.5320   49.9220   51.3480 N.ar   36  G36        -0.2693
    783  OP1       -7.0240   54.1100   45.5440 O.2    36  G36        -0.5172
    784  OP2       -6.7300   54.6450   48.0650 O.co2  36  G36        -0.4373
    785  P        -11.2570   49.7920   49.1990 P.3    37  G37         0.2141
    786  C5'      -11.2970   47.2630   49.8220 C.3    37  G37         0.1812
    787  O5'      -11.2010   48.5970   50.2560 O.3    37  G37        -0.3114
    788  C4'      -11.3300   46.4020   51.0570 C.3    37  G37         0.1773
    789  O4'      -10.1940   46.7380   51.8800 O.3    37  G37        -0.3307
    790  C3'      -12.4490   46.7280   52.0190 C.3    37  G37         0.1860
    791  O3'      -13.6770   46.2660   51.5260 O.3    37  G37        -0.3112
    792  C2'      -11.9580   45.9540   53.2340 C.3    37  G37         0.2309
    793  O2'      -12.0660   44.5540   53.0650 O.3    37  G37        -0.2156
    794  C1'      -10.4960   46.3900   53.2170 C.3    37  G37         0.2408
    795  N1       -10.2780   48.1950   57.9300 N.ar   37  G37        -0.1709
    796  C2       -10.4940   46.9040   57.4980 C.ar   37  G37         0.2606
    797  N2       -10.6820   45.9650   58.4400 N.pl3  37  G37        -0.0859
    798  N3       -10.5040   46.5530   56.2180 N.ar   37  G37        -0.1918
    799  C4       -10.3040   47.6130   55.3970 C.ar   37  G37         0.1723
    800  C5       -10.0770   48.9260   55.7230 C.ar   37  G37         0.1748
    801  C6       -10.0500   49.2860   57.0880 C.ar   37  G37         0.3023
    802  O6        -9.8650   50.4150   57.5640 O.2    37  G37        -0.2633
    803  N7        -9.9130   49.7030   54.5810 N.ar   37  G37        -0.2173
    804  C8       -10.0610   48.8570   53.6000 C.ar   37  G37         0.1817
    805  N9       -10.2820   47.5710   54.0290 N.ar   37  G37        -0.2693
    806  OP1      -12.3050   49.4810   48.2000 O.2    37  G37        -0.5172
    807  OP2      -11.2510   51.0530   49.9730 O.co2  37  G37        -0.4373
    808  P        -15.0170   46.9390   52.0740 P.3    38  A38         0.2141
    809  C5'      -15.4400   45.4740   54.2050 C.3    38  A38         0.1812
    810  O5'      -14.9520   46.6890   53.6570 O.3    38  A38        -0.3114
    811  C4'      -15.4500   45.5460   55.7150 C.3    38  A38         0.1773
    812  O4'      -14.1570   45.9760   56.1900 O.3    38  A38        -0.3307
    813  C3'      -16.3860   46.5860   56.2770 C.3    38  A38         0.1860
    814  O3'      -17.6770   46.0580   56.3830 O.3    38  A38        -0.3112
    815  C2'      -15.7920   46.8360   57.6480 C.3    38  A38         0.2309
    816  O2'      -16.1370   45.8220   58.5550 O.3    38  A38        -0.2156
    817  C1'      -14.3060   46.8070   57.3260 C.3    38  A38         0.2408
    818  N1       -12.9450   51.4120   59.1410 N.ar   38  A38        -0.2040
    819  C2       -13.3010   50.2730   59.7630 C.ar   38  A38         0.2016
    820  N3       -13.6370   49.0950   59.2250 N.ar   38  A38        -0.2048
    821  C4       -13.5800   49.1560   57.8790 C.ar   38  A38         0.1692
    822  C5       -13.2420   50.2490   57.1000 C.ar   38  A38         0.1518
    823  C6       -12.9090   51.4310   57.7850 C.ar   38  A38         0.1919
    824  N6       -12.5680   52.5510   57.1480 N.pl3  38  A38        -0.1054
    825  N7       -13.3100   49.9500   55.7550 N.ar   38  A38        -0.2193
    826  C8       -13.6940   48.6970   55.7420 C.ar   38  A38         0.1816
    827  N9       -13.8470   48.1490   56.9890 N.ar   38  A38        -0.2693
    828  OP1      -16.1240   46.1520   51.4890 O.2    38  A38        -0.5172
    829  OP2      -14.9510   48.4010   51.8970 O.co2  38  A38        -0.4373
    830  P        -18.8860   47.0570   56.1070 P.3    39  C39         0.2141
    831  C5'      -19.2050   47.4390   58.6600 C.3    39  C39         0.1812
    832  O5'      -18.8060   47.9690   57.4150 O.3    39  C39        -0.3114
    833  C4'      -19.4470   48.5510   59.6650 C.3    39  C39         0.1773
    834  O4'      -18.2150   49.2600   59.9380 O.3    39  C39        -0.3307
    835  C3'      -20.4250   49.6400   59.2480 C.3    39  C39         0.1860
    836  O3'      -21.7260   49.2230   59.5720 O.3    39  C39        -0.3112
    837  C2'      -20.0100   50.7810   60.1650 C.3    39  C39         0.2309
    838  O2'      -20.5280   50.6430   61.4760 O.3    39  C39        -0.2156
    839  C1'      -18.4940   50.6240   60.1690 C.3    39  C39         0.2420
    840  N1       -17.8370   51.4050   59.0960 N.ar   39  C39        -0.2535
    841  C2       -17.6810   52.7870   59.2660 C.ar   39  C39         0.3532
    842  O2       -18.1070   53.3110   60.3070 O.2    39  C39        -0.2443
    843  N3       -17.0840   53.5050   58.2760 N.ar   39  C39        -0.1739
    844  C4       -16.6610   52.8870   57.1700 C.ar   39  C39         0.1759
    845  N4       -16.0750   53.6280   56.2250 N.pl3  39  C39        -0.1070
    846  C5       -16.8170   51.4780   56.9820 C.ar   39  C39         0.0566
    847  C6       -17.4010   50.7820   57.9620 C.ar   39  C39         0.0850
    848  OP1      -20.1440   46.2680   56.1040 O.3    39  C39        -0.4373
    849  OP2      -18.5130   47.8880   54.9370 O.co2  39  C39        -0.5172
    850  P        -22.9170   49.5970   58.5900 P.3    40  G40         0.2141
    851  C5'      -23.2100   47.3860   57.2460 C.3    40  G40         0.1812
    852  O5'      -22.6290   48.6700   57.3220 O.3    40  G40        -0.3114
    853  C4'      -23.3470   46.9430   55.8060 C.3    40  G40         0.1773
    854  O4'      -23.2500   45.4920   55.7990 O.3    40  G40        -0.3307
    855  C3'      -24.7000   47.2680   55.1860 C.3    40  G40         0.1860
    856  O3'      -24.6160   47.3110   53.7790 O.3    40  G40        -0.3112
    857  C2'      -25.5110   46.0450   55.5840 C.3    40  G40         0.2309
    858  O2'      -26.6150   45.8220   54.7300 O.3    40  G40        -0.2156
    859  C1'      -24.4790   44.9470   55.3650 C.3    40  G40         0.2408
    860  N1       -25.6350   42.7740   59.8640 N.ar   40  G40        -0.1709
    861  C2       -25.1980   44.0590   59.6170 C.ar   40  G40         0.2606
    862  N2       -25.0730   44.8550   60.6980 N.pl3  40  G40        -0.0859
    863  N3       -24.9130   44.5310   58.3990 N.ar   40  G40        -0.1918
    864  C4       -25.0900   43.5880   57.4380 C.ar   40  G40         0.1723
    865  C5       -25.5190   42.2850   57.5910 C.ar   40  G40         0.1748
    866  C6       -25.8350   41.8070   58.8800 C.ar   40  G40         0.3023
    867  O6       -26.2300   40.6730   59.1830 O.2    40  G40        -0.2633
    868  N7       -25.5850   41.6280   56.3700 N.ar   40  G40        -0.2173
    869  C8       -25.1940   42.5290   55.5120 C.ar   40  G40         0.1817
    870  N9       -24.8420   43.7300   56.0870 N.ar   40  G40        -0.2693
    871  OP1      -22.7180   51.0140   58.2070 O.2    40  G40        -0.5172
    872  OP2      -24.1830   49.1300   59.2050 O.co2  40  G40        -0.4373
    873  P        -24.0360   48.6040   53.0500 P.3    41  G41         0.2141
    874  C5'      -24.0600   47.7380   50.5780 C.3    41  G41         0.1812
    875  O5'      -24.6800   48.5280   51.5850 O.3    41  G41        -0.3114
    876  C4'      -24.7000   47.9350   49.2140 C.3    41  G41         0.1773
    877  O4'      -26.1200   47.6330   49.2640 O.3    41  G41        -0.3307
    878  C3'      -24.6080   49.3510   48.6720 C.3    41  G41         0.1860
    879  O3'      -23.4250   49.5040   47.9170 O.3    41  G41        -0.3112
    880  C2'      -25.8650   49.4780   47.8210 C.3    41  G41         0.2309
    881  O2'      -25.6950   48.9670   46.5150 O.3    41  G41        -0.2156
    882  C1'      -26.8690   48.6550   48.6270 C.3    41  G41         0.2408
    883  N1       -29.1900   53.0550   49.7580 N.ar   41  G41        -0.1709
    884  C2       -28.6870   52.6260   48.5540 C.ar   41  G41         0.2606
    885  N2       -28.7910   53.4760   47.5220 N.pl3  41  G41        -0.0859
    886  N3       -28.1180   51.4370   48.3820 N.ar   41  G41        -0.1918
    887  C4       -28.0800   50.7030   49.5230 C.ar   41  G41         0.1723
    888  C5       -28.5540   51.0450   50.7680 C.ar   41  G41         0.1748
    889  C6       -29.1590   52.3160   50.9400 C.ar   41  G41         0.3023
    890  O6       -29.6300   52.8140   51.9730 O.2    41  G41        -0.2633
    891  N7       -28.3150   50.0220   51.6790 N.ar   41  G41        -0.2173
    892  C8       -27.7160   49.0970   50.9790 C.ar   41  G41         0.1817
    893  N9       -27.5410   49.4410   49.6600 N.ar   41  G41        -0.2693
    894  OP1      -22.5710   48.4270   52.9290 O.2    41  G41        -0.5172
    895  OP2      -24.5710   49.7890   53.7580 O.co2  41  G41        -0.4373
    896  P        -22.3590   50.5870   48.4160 P.3    42  G42         0.2141
    897  C5'      -23.0780   52.0050   46.3430 C.3    42  G42         0.1812
    898  O5'      -22.9230   51.9350   47.7520 O.3    42  G42        -0.3114
    899  C4'      -23.5560   53.3820   45.9330 C.3    42  G42         0.1773
    900  O4'      -24.9860   53.4690   46.1490 O.3    42  G42        -0.3307
    901  C3'      -23.0090   54.5410   46.7520 C.3    42  G42         0.1860
    902  O3'      -21.7170   54.9400   46.3040 O.3    42  G42        -0.3112
    903  C2'      -24.0660   55.6060   46.4750 C.3    42  G42         0.2309
    904  O2'      -23.9910   56.1600   45.1740 O.3    42  G42        -0.2156
    905  C1'      -25.3250   54.7620   46.6070 C.3    42  G42         0.2408
    906  N1       -27.4470   57.3730   50.3900 N.ar   42  G42        -0.1709
    907  C2       -27.1420   57.7790   49.1140 C.ar   42  G42         0.2606
    908  N2       -27.4220   59.0470   48.7870 N.pl3  42  G42        -0.0859
    909  N3       -26.6030   56.9820   48.2080 N.ar   42  G42        -0.1918
    910  C4       -26.3590   55.7380   48.6920 C.ar   42  G42         0.1723
    911  C5       -26.6100   55.2460   49.9480 C.ar   42  G42         0.1748
    912  C6       -27.2130   56.0970   50.9000 C.ar   42  G42         0.3023
    913  O6       -27.5260   55.8340   52.0670 O.2    42  G42        -0.2633
    914  N7       -26.2170   53.9190   50.0420 N.ar   42  G42        -0.2173
    915  C8       -25.7390   53.6380   48.8590 C.ar   42  G42         0.1817
    916  N9       -25.7940   54.6970   47.9870 N.ar   42  G42        -0.2693
    917  OP1      -21.0550   50.2790   47.7850 O.2    42  G42        -0.5172
    918  OP2      -22.4700   50.6930   49.8950 O.co2  42  G42        -0.4373
    919  P        -20.6590   55.5040   47.3650 P.3    43  G43         0.2141
    920  C5'      -21.6810   57.9060   46.9770 C.3    43  G43         0.1812
    921  O5'      -21.2680   56.8880   47.8770 O.3    43  G43        -0.3114
    922  C4'      -22.1870   59.0850   47.7860 C.3    43  G43         0.1773
    923  O4'      -23.5260   58.8380   48.2940 O.3    43  G43        -0.3307
    924  C3'      -21.4090   59.3130   49.0630 C.3    43  G43         0.1860
    925  O3'      -20.1510   59.8970   48.7580 O.3    43  G43        -0.3112
    926  C2'      -22.3780   60.2490   49.7680 C.3    43  G43         0.2309
    927  O2'      -22.4650   61.4880   49.1070 O.3    43  G43        -0.2156
    928  C1'      -23.6830   59.5060   49.5330 C.3    43  G43         0.2408
    929  N1       -25.7310   58.9040   54.1470 N.ar   43  G43        -0.1709
    930  C2       -25.6170   60.0390   53.3760 C.ar   43  G43         0.2606
    931  N2       -26.1020   61.1710   53.9070 N.pl3  43  G43        -0.0859
    932  N3       -25.0510   60.0680   52.1760 N.ar   43  G43        -0.1918
    933  C4       -24.6210   58.8440   51.7880 C.ar   43  G43         0.1723
    934  C5       -24.6900   57.6540   52.4770 C.ar   43  G43         0.1748
    935  C6       -25.2870   57.6410   53.7630 C.ar   43  G43         0.3023
    936  O6       -25.4550   56.6800   54.5230 O.2    43  G43        -0.2633
    937  N7       -24.1250   56.6240   51.7340 N.ar   43  G43        -0.2173
    938  C8       -23.7210   57.2040   50.6360 C.ar   43  G43         0.1817
    939  N9       -23.9990   58.5530   50.5950 N.ar   43  G43        -0.2693
    940  OP1      -19.4130   55.7730   46.6160 O.2    43  G43        -0.5172
    941  OP2      -20.6700   54.6160   48.5530 O.co2  43  G43        -0.4373
    942  P        -19.1660   60.3410   49.9420 P.3    44  A44         0.2141
    943  C5'      -19.4910   62.1160   51.7980 C.3    44  A44         0.1812
    944  O5'      -20.0250   61.4780   50.6640 O.3    44  A44        -0.3114
    945  C4'      -20.5600   62.9140   52.5130 C.3    44  A44         0.1773
    946  O4'      -21.8230   62.2100   52.4600 O.3    44  A44        -0.3307
    947  C3'      -20.2800   63.0320   53.9940 C.3    44  A44         0.1860
    948  O3'      -19.3760   64.0770   54.2170 O.3    44  A44        -0.3112
    949  C2'      -21.6620   63.2810   54.5670 C.3    44  A44         0.2309
    950  O2'      -22.1040   64.6070   54.3840 O.3    44  A44        -0.2156
    951  C1'      -22.4750   62.3160   53.7130 C.3    44  A44         0.2408
    952  N1       -24.3820   59.5840   57.6030 N.ar   44  A44        -0.2040
    953  C2       -24.4620   60.8880   57.2970 C.ar   44  A44         0.2016
    954  N3       -23.9370   61.5330   56.2560 N.ar   44  A44        -0.2048
    955  C4       -23.2350   60.6880   55.4790 C.ar   44  A44         0.1692
    956  C5       -23.0530   59.3290   55.6650 C.ar   44  A44         0.1518
    957  C6       -23.6760   58.7600   56.7930 C.ar   44  A44         0.1919
    958  N6       -23.5860   57.4650   57.1050 N.pl3  44  A44        -0.1054
    959  N7       -22.2780   58.7880   54.6530 N.ar   44  A44        -0.2193
    960  C8       -22.0140   59.8200   53.8850 C.ar   44  A44         0.1816
    961  N9       -22.5720   60.9920   54.3180 N.ar   44  A44        -0.2693
    962  OP1      -17.9750   60.9500   49.3060 O.2    44  A44        -0.5172
    963  OP2      -19.0140   59.2450   50.9250 O.co2  44  A44        -0.4373
    964  P        -17.9430   63.6740   54.7810 P.3    45  G45         0.2141
    965  C5'      -18.6580   64.2450   57.2120 C.3    45  G45         0.1812
    966  O5'      -18.3170   63.2300   56.2760 O.3    45  G45        -0.3114
    967  C4'      -19.5720   63.7430   58.3150 C.3    45  G45         0.1773
    968  O4'      -20.5960   62.8740   57.7740 O.3    45  G45        -0.3307
    969  C3'      -18.8890   62.8940   59.3730 C.3    45  G45         0.1860
    970  O3'      -18.2190   63.7060   60.3250 O.3    45  G45        -0.3112
    971  C2'      -20.0680   62.1290   59.9590 C.3    45  G45         0.2309
    972  O2'      -20.8590   62.8890   60.8470 O.3    45  G45        -0.2156
    973  C1'      -20.8520   61.8220   58.6900 C.3    45  G45         0.2408
    974  N1       -21.0380   56.7760   59.1650 N.ar   45  G45        -0.1709
    975  C2       -21.5590   57.7610   59.9780 C.ar   45  G45         0.2606
    976  N2       -22.2190   57.3580   61.0710 N.pl3  45  G45        -0.0859
    977  N3       -21.4360   59.0580   59.7450 N.ar   45  G45        -0.1918
    978  C4       -20.7410   59.2980   58.6080 C.ar   45  G45         0.1723
    979  C5       -20.1790   58.3950   57.7290 C.ar   45  G45         0.1748
    980  C6       -20.3220   57.0060   57.9880 C.ar   45  G45         0.3023
    981  O6       -19.8950   56.0490   57.3220 O.2    45  G45        -0.2633
    982  N7       -19.5390   59.0590   56.6870 N.ar   45  G45        -0.2173
    983  C8       -19.7300   60.3240   56.9490 C.ar   45  G45         0.1817
    984  N9       -20.4630   60.5430   58.0950 N.ar   45  G45        -0.2693
    985  OP1      -17.1130   64.8980   54.8360 O.3    45  G45        -0.4373
    986  OP2      -17.4700   62.5010   54.0120 O.co2  45  G45        -0.5172
    987  P        -16.6780   63.4100   60.6510 P.3    46  U46         0.2141
    988  C5'      -17.6130   62.0390   62.6760 C.3    46  U46         0.1812
    989  O5'      -16.7710   62.0750   61.5270 O.3    46  U46        -0.3114
    990  C4'      -17.8910   60.6040   63.0790 C.3    46  U46         0.1773
    991  O4'      -18.6300   59.9350   62.0270 O.3    46  U46        -0.3307
    992  C3'      -16.6550   59.7320   63.2430 C.3    46  U46         0.1860
    993  O3'      -16.0300   59.9670   64.5010 O.3    46  U46        -0.3112
    994  C2'      -17.2890   58.3500   63.1570 C.3    46  U46         0.2309
    995  O2'      -17.9890   58.0060   64.3380 O.3    46  U46        -0.2156
    996  C1'      -18.2690   58.5660   62.0070 C.3    46  U46         0.2420
    997  N1       -17.7000   58.2090   60.6690 N.ar   46  U46        -0.2534
    998  C2       -17.8160   56.9070   60.2280 C.ar   46  U46         0.3546
    999  O2       -18.3660   56.0340   60.8740 O.2    46  U46        -0.2443
   1000  N3       -17.2690   56.6600   58.9930 N.ar   46  U46        -0.1530
   1001  C4       -16.6210   57.5640   58.1740 C.ar   46  U46         0.2846
   1002  O4       -16.1760   57.1910   57.0930 O.2    46  U46        -0.2650
   1003  C5       -16.5330   58.9020   58.7020 C.ar   46  U46         0.0814
   1004  C6       -17.0630   59.1670   59.9040 C.ar   46  U46         0.0870
   1005  OP1      -16.1810   64.5010   61.5160 O.3    46  U46        -0.4373
   1006  OP2      -15.9640   63.0910   59.3900 O.co2  46  U46        -0.5172
   1007  P        -14.4510   59.7570   64.6770 P.3    47  U47         0.2141
   1008  C5'      -15.0940   57.5710   66.0080 C.3    47  U47         0.1812
   1009  O5'      -14.3400   58.1810   64.9530 O.3    47  U47        -0.3114
   1010  C4'      -15.0050   56.0540   65.9530 C.3    47  U47         0.1773
   1011  O4'      -15.6470   55.5660   64.7470 O.3    47  U47        -0.3307
   1012  C3'      -13.5860   55.5000   65.9350 C.3    47  U47         0.1860
   1013  O3'      -13.2010   55.1620   67.2620 O.3    47  U47        -0.3112
   1014  C2'      -13.6750   54.2530   65.0550 C.3    47  U47         0.2309
   1015  O2'      -13.7940   53.0630   65.8150 O.3    47  U47        -0.2156
   1016  C1'      -14.9210   54.4820   64.1940 C.3    47  U47         0.2420
   1017  N1       -14.6250   54.7850   62.7560 N.ar   47  U47        -0.2534
   1018  C2       -14.7360   53.7880   61.8020 C.ar   47  U47         0.3546
   1019  O2       -15.0670   52.6410   62.0570 O.2    47  U47        -0.2443
   1020  N3       -14.4410   54.1860   60.5180 N.ar   47  U47        -0.1530
   1021  C4       -14.0650   55.4520   60.1010 C.ar   47  U47         0.2846
   1022  O4       -13.8370   55.6680   58.9170 O.2    47  U47        -0.2650
   1023  C5       -13.9850   56.4340   61.1500 C.ar   47  U47         0.0814
   1024  C6       -14.2510   56.0680   62.4090 C.ar   47  U47         0.0870
   1025  OP1      -14.0510   60.4960   65.8950 O.3    47  U47        -0.4373
   1026  OP2      -13.7690   60.0350   63.3910 O.co2  47  U47        -0.5172
   1027  P        -12.0840   56.0010   68.0450 P.3    48  G48         0.2141
   1028  C5'      -10.7220   53.7610   67.7980 C.3    48  G48         0.1812
   1029  O5'      -10.7430   55.1870   67.7300 O.3    48  G48        -0.3114
   1030  C4'      -10.0030   53.1850   66.5910 C.3    48  G48         0.1773
   1031  O4'      -10.5480   53.7810   65.3840 O.3    48  G48        -0.3307
   1032  C3'       -8.4970   53.4360   66.5550 C.3    48  G48         0.1860
   1033  O3'       -7.8440   52.2950   66.0030 O.3    48  G48        -0.3112
   1034  C2'       -8.3810   54.6570   65.6430 C.3    48  G48         0.2309
   1035  O2'       -7.1430   54.7340   64.9620 O.3    48  G48        -0.2156
   1036  C1'       -9.5230   54.4290   64.6560 C.3    48  G48         0.2408
   1037  N1       -10.9880   56.8600   60.4120 N.ar   48  G48        -0.1709
   1038  C2       -10.5300   55.5690   60.5600 C.ar   48  G48         0.2606
   1039  N2       -10.4450   54.8330   59.4410 N.pl3  48  G48        -0.0859
   1040  N3       -10.1810   55.0350   61.7260 N.ar   48  G48        -0.1918
   1041  C4       -10.3260   55.9120   62.7500 C.ar   48  G48         0.1723
   1042  C5       -10.7790   57.2140   62.7010 C.ar   48  G48         0.1748
   1043  C6       -11.1480   57.7740   61.4530 C.ar   48  G48         0.3023
   1044  O6       -11.5800   58.9130   61.2210 O.2    48  G48        -0.2633
   1045  N7       -10.7880   57.7810   63.9690 N.ar   48  G48        -0.2173
   1046  C8       -10.3470   56.8290   64.7450 C.ar   48  G48         0.1817
   1047  N9       -10.0500   55.6640   64.0760 N.ar   48  G48        -0.2693
   1048  OP1      -12.3920   55.8990   69.4900 O.3    48  G48        -0.4373
   1049  OP2      -11.9350   57.3320   67.4120 O.co2  48  G48        -0.5172
   1050  P         -6.4690   51.7170   66.5940 P.3    49  U49         0.2141
   1051  C5'       -7.7720   49.4500   66.7240 C.3    49  U49         0.1812
   1052  O5'       -6.6170   50.1520   66.2800 O.3    49  U49        -0.3114
   1053  C4'       -8.4880   48.7480   65.5810 C.3    49  U49         0.1773
   1054  O4'       -9.3590   49.6580   64.8600 O.3    49  U49        -0.3307
   1055  C3'       -7.6220   48.1650   64.4780 C.3    49  U49         0.1860
   1056  O3'       -7.0050   46.9660   64.9100 O.3    49  U49        -0.3112
   1057  C2'       -8.7010   47.8910   63.4400 C.3    49  U49         0.2309
   1058  O2'       -9.4860   46.7590   63.7550 O.3    49  U49        -0.2156
   1059  C1'       -9.5480   49.1580   63.5460 C.3    49  U49         0.2420
   1060  N1        -9.1330   50.1930   62.5520 N.ar   49  U49        -0.2534
   1061  C2        -9.4180   50.0020   61.2140 C.ar   49  U49         0.3546
   1062  O2       -10.0210   49.0330   60.7870 O.2    49  U49        -0.2443
   1063  N3        -8.9710   51.0030   60.3820 N.ar   49  U49        -0.1530
   1064  C4        -8.2680   52.1410   60.7420 C.ar   49  U49         0.2846
   1065  O4        -7.9260   52.9450   59.8820 O.2    49  U49        -0.2650
   1066  C5        -7.9940   52.2640   62.1500 C.ar   49  U49         0.0814
   1067  C6        -8.4240   51.3030   62.9780 C.ar   49  U49         0.0870
   1068  OP1       -6.4640   51.9160   68.0630 O.3    49  U49        -0.4373
   1069  OP2       -5.3640   52.2390   65.7560 O.co2  49  U49        -0.5172
   1070  P         -5.4480   46.7180   64.6440 P.3    50  C50         0.2141
   1071  C5'       -6.0720   44.5800   63.3160 C.3    50  C50         0.1812
   1072  O5'       -5.4450   45.8570   63.2980 O.3    50  C50        -0.3114
   1073  C4'       -6.3790   44.0920   61.9190 C.3    50  C50         0.1773
   1074  O4'       -7.4020   44.9240   61.3180 O.3    50  C50        -0.3307
   1075  C3'       -5.2100   44.1990   60.9620 C.3    50  C50         0.1860
   1076  O3'       -4.3410   43.0960   61.1150 O.3    50  C50        -0.3112
   1077  C2'       -5.9290   44.2010   59.6170 C.3    50  C50         0.2309
   1078  O2'       -6.3570   42.9230   59.2180 O.3    50  C50        -0.2156
   1079  C1'       -7.1480   45.0560   59.9290 C.3    50  C50         0.2420
   1080  N1        -6.9430   46.4920   59.5670 N.ar   50  C50        -0.2535
   1081  C2        -7.0610   46.8720   58.2220 C.ar   50  C50         0.3532
   1082  O2        -7.3420   46.0080   57.3820 O.2    50  C50        -0.2443
   1083  N3        -6.8710   48.1740   57.8780 N.ar   50  C50        -0.1739
   1084  C4        -6.5680   49.0690   58.8210 C.ar   50  C50         0.1759
   1085  N4        -6.4140   50.3370   58.4400 N.pl3  50  C50        -0.1070
   1086  C5        -6.4180   48.7010   60.1960 C.ar   50  C50         0.0566
   1087  C6        -6.6030   47.4130   60.5200 C.ar   50  C50         0.0850
   1088  OP1       -4.9590   45.8680   65.7500 O.3    50  C50        -0.4373
   1089  OP2       -4.8150   48.0200   64.3470 O.co2  50  C50        -0.5172
   1090  P         -2.8740   43.1780   60.4830 P.3    51  C51         0.2141
   1091  C5'       -3.5380   42.0180   58.2590 C.3    51  C51         0.1812
   1092  O5'       -3.1580   43.2110   58.9060 O.3    51  C51        -0.3114
   1093  C4'       -3.6830   42.2240   56.7660 C.3    51  C51         0.1773
   1094  O4'       -4.6450   43.2780   56.5120 O.3    51  C51        -0.3307
   1095  C3'       -2.4270   42.6840   56.0380 C.3    51  C51         0.1860
   1096  O3'       -1.6250   41.5940   55.6670 O.3    51  C51        -0.3112
   1097  C2'       -3.0150   43.3310   54.7920 C.3    51  C51         0.2309
   1098  O2'       -3.4050   42.3940   53.8130 O.3    51  C51        -0.2156
   1099  C1'       -4.2430   44.0130   55.3690 C.3    51  C51         0.2420
   1100  N1        -3.9330   45.4120   55.7400 N.ar   51  C51        -0.2535
   1101  C2        -3.8900   46.3670   54.7180 C.ar   51  C51         0.3532
   1102  O2        -4.1220   46.0190   53.5540 O.2    51  C51        -0.2443
   1103  N3        -3.5910   47.6490   55.0380 N.ar   51  C51        -0.1739
   1104  C4        -3.3220   47.9750   56.3030 C.ar   51  C51         0.1759
   1105  N4        -3.0300   49.2500   56.5540 N.pl3  51  C51        -0.1070
   1106  C5        -3.3340   47.0090   57.3560 C.ar   51  C51         0.0566
   1107  C6        -3.6240   45.7440   57.0290 C.ar   51  C51         0.0850
   1108  OP1       -2.1450   41.9190   60.7880 O.2    51  C51        -0.5172
   1109  OP2       -2.3200   44.4830   60.9050 O.co2  51  C51        -0.4373
   1110  P         -0.0570   41.8420   55.5740 P.3    52  U52         0.2141
   1111  C5'       -0.3090   42.0470   52.9970 C.3    52  U52         0.1812
   1112  O5'        0.1260   42.6410   54.2080 O.3    52  U52        -0.3114
   1113  C4'       -0.1360   43.0190   51.8470 C.3    52  U52         0.1773
   1114  O4'       -1.0320   44.1540   51.9810 O.3    52  U52        -0.3307
   1115  C3'        1.2430   43.6430   51.7880 C.3    52  U52         0.1860
   1116  O3'        2.1220   42.7510   51.1440 O.3    52  U52        -0.3112
   1117  C2'        0.9550   44.8790   50.9420 C.3    52  U52         0.2309
   1118  O2'        0.8430   44.5750   49.5700 O.3    52  U52        -0.2156
   1119  C1'       -0.3970   45.3140   51.4880 C.3    52  U52         0.2420
   1120  N1        -0.3060   46.2940   52.6070 N.ar   52  U52        -0.2534
   1121  C2        -0.0680   47.6270   52.3360 C.ar   52  U52         0.3546
   1122  O2         0.0890   48.0670   51.2090 O.2    52  U52        -0.2443
   1123  N3        -0.0330   48.4400   53.4400 N.ar   52  U52        -0.1530
   1124  C4        -0.2070   48.0690   54.7610 C.ar   52  U52         0.2846
   1125  O4        -0.1680   48.9140   55.6520 O.2    52  U52        -0.2650
   1126  C5        -0.4420   46.6640   54.9610 C.ar   52  U52         0.0814
   1127  C6        -0.4970   45.8530   53.8990 C.ar   52  U52         0.0870
   1128  OP1        0.6190   40.5370   55.4070 O.2    52  U52        -0.5172
   1129  OP2        0.2900   42.7400   56.6920 O.co2  52  U52        -0.4373
   1130  P          3.6880   42.8960   51.3870 P.3    53  C53         0.2141
   1131  C5'        3.9940   44.2610   49.1850 C.3    53  C53         0.1812
   1132  O5'        4.1030   44.2070   50.5890 O.3    53  C53        -0.3114
   1133  C4'        4.3440   45.6700   48.7750 C.3    53  C53         0.1773
   1134  O4'        3.2890   46.5640   49.2000 O.3    53  C53        -0.3307
   1135  C3'        5.5470   46.2500   49.4950 C.3    53  C53         0.1860
   1136  O3'        6.7040   45.7530   48.9150 O.3    53  C53        -0.3112
   1137  C2'        5.3350   47.7170   49.1620 C.3    53  C53         0.2309
   1138  O2'        5.5240   48.0030   47.7910 O.3    53  C53        -0.2156
   1139  C1'        3.8580   47.8240   49.5030 C.3    53  C53         0.2420
   1140  N1         3.6510   48.1120   50.9460 N.ar   53  C53        -0.2535
   1141  C2         3.6240   49.4370   51.3710 C.ar   53  C53         0.3532
   1142  O2         3.7510   50.3330   50.5350 O.2    53  C53        -0.2443
   1143  N3         3.4570   49.7050   52.6820 N.ar   53  C53        -0.1739
   1144  C4         3.3160   48.7120   53.5590 C.ar   53  C53         0.1759
   1145  N4         3.1420   49.0280   54.8510 N.pl3  53  C53        -0.1070
   1146  C5         3.3490   47.3490   53.1430 C.ar   53  C53         0.0566
   1147  C6         3.5250   47.0950   51.8430 C.ar   53  C53         0.0850
   1148  OP1        4.3460   41.7510   50.7200 O.2    53  C53        -0.5172
   1149  OP2        3.9100   43.2190   52.8130 O.co2  53  C53        -0.4373
   1150  P          8.0980   45.7970   49.6840 P.3    54  A54         0.2141
   1151  C5'        9.0790   48.0340   48.8110 C.3    54  A54         0.1812
   1152  O5'        8.4070   47.3550   49.8480 O.3    54  A54        -0.3114
   1153  C4'        9.2090   49.4980   49.1730 C.3    54  A54         0.1773
   1154  O4'        7.9460   50.0060   49.6660 O.3    54  A54        -0.3307
   1155  C3'       10.1940   49.7740   50.2930 C.3    54  A54         0.1860
   1156  O3'       11.5130   49.7900   49.7780 O.3    54  A54        -0.3112
   1157  C2'        9.7230   51.1470   50.7460 C.3    54  A54         0.2309
   1158  O2'       10.1700   52.1870   49.9050 O.3    54  A54        -0.2156
   1159  C1'        8.2080   51.0020   50.6330 C.3    54  A54         0.2408
   1160  N1         6.6390   52.4050   55.3180 N.ar   54  A54        -0.2040
   1161  C2         7.0950   53.1280   54.2830 C.ar   54  A54         0.2016
   1162  N3         7.4820   52.7010   53.0800 N.ar   54  A54        -0.2048
   1163  C4         7.3860   51.3600   52.9970 C.ar   54  A54         0.1692
   1164  C5         6.9600   50.4890   53.9810 C.ar   54  A54         0.1518
   1165  C6         6.5630   51.0560   55.2040 C.ar   54  A54         0.1919
   1166  N6         6.1280   50.3270   56.2360 N.pl3  54  A54        -0.1054
   1167  N7         6.9790   49.1830   53.5290 N.ar   54  A54        -0.2193
   1168  C8         7.4140   49.2830   52.2980 C.ar   54  A54         0.1816
   1169  N9         7.6530   50.5680   51.9050 N.ar   54  A54        -0.2693
   1170  OP1        9.0730   45.2190   48.7300 O.2    54  A54        -0.5172
   1171  OP2        7.9460   45.2360   51.0450 O.co2  54  A54        -0.4373
   1172  P         12.7220   49.3150   50.7100 P.3    55  G55         0.2141
   1173  C5'       13.4220   51.8190   51.1160 C.3    55  G55         0.1812
   1174  O5'       12.9460   50.5860   51.6520 O.3    55  G55        -0.3114
   1175  C4'       13.3740   52.9030   52.1800 C.3    55  G55         0.1773
   1176  O4'       11.9940   53.1900   52.5150 O.3    55  G55        -0.3307
   1177  C3'       13.9560   52.5130   53.5300 C.3    55  G55         0.1860
   1178  O3'       15.3450   52.6280   53.5400 O.3    55  G55        -0.3112
   1179  C2'       13.3390   53.5800   54.4120 C.3    55  G55         0.2309
   1180  O2'       13.9550   54.8320   54.2070 O.3    55  G55        -0.2156
   1181  C1'       11.9130   53.5540   53.8830 C.3    55  G55         0.2408
   1182  N1         9.4540   52.3430   58.1530 N.ar   55  G55        -0.1709
   1183  C2        10.0710   53.5180   57.8120 C.ar   55  G55         0.2606
   1184  N2        10.0300   54.4880   58.7310 N.pl3  55  G55        -0.0859
   1185  N3        10.6810   53.7270   56.6550 N.ar   55  G55        -0.1918
   1186  C4        10.6180   52.6370   55.8540 C.ar   55  G55         0.1723
   1187  C5        10.0290   51.4220   56.1080 C.ar   55  G55         0.1748
   1188  C6         9.3750   51.2190   57.3450 C.ar   55  G55         0.3023
   1189  O6         8.7830   50.2090   57.7530 O.2    55  G55        -0.2633
   1190  N7        10.1760   50.5680   55.0260 N.ar   55  G55        -0.2173
   1191  C8        10.8570   51.2650   54.1600 C.ar   55  G55         0.1817
   1192  N9        11.1430   52.5370   54.5880 N.ar   55  G55        -0.2693
   1193  OP1       13.9240   49.1440   49.8640 O.2    55  G55        -0.5172
   1194  OP2       12.2530   48.2090   51.5740 O.co2  55  G55        -0.4373
   1195  P         16.1700   51.8200   54.6430 P.3    56  G56         0.2141
   1196  C5'       16.2780   53.7200   56.4250 C.3    56  G56         0.1812
   1197  O5'       15.7260   52.4800   56.0310 O.3    56  G56        -0.3114
   1198  C4'       15.6860   54.1560   57.7470 C.3    56  G56         0.1773
   1199  O4'       14.2490   53.9910   57.7410 O.3    56  G56        -0.3307
   1200  C3'       16.1290   53.3150   58.9250 C.3    56  G56         0.1860
   1201  O3'       17.4460   53.6700   59.3220 O.3    56  G56        -0.3112
   1202  C2'       15.0660   53.7070   59.9370 C.3    56  G56         0.2309
   1203  O2'       15.2800   55.0070   60.4360 O.3    56  G56        -0.2156
   1204  C1'       13.8170   53.6960   59.0560 C.3    56  G56         0.2408
   1205  N1        10.8220   50.3700   61.5450 N.ar   56  G56        -0.1709
   1206  C2        11.2810   51.5960   61.9630 C.ar   56  G56         0.2606
   1207  N2        10.9010   51.9710   63.1930 N.pl3  56  G56        -0.0859
   1208  N3        12.0490   52.3930   61.2250 N.ar   56  G56        -0.1918
   1209  C4        12.3450   51.8440   60.0210 C.ar   56  G56         0.1723
   1210  C5        11.9320   50.6280   59.5190 C.ar   56  G56         0.1748
   1211  C6        11.0970   49.7960   60.3090 C.ar   56  G56         0.3023
   1212  O6        10.6160   48.6880   60.0360 O.2    56  G56        -0.2633
   1213  N7        12.4320   50.4350   58.2380 N.ar   56  G56        -0.2173
   1214  C8        13.1390   51.5020   58.0000 C.ar   56  G56         0.1817
   1215  N9        13.1280   52.4070   59.0320 N.ar   56  G56        -0.2693
   1216  OP1       17.5990   52.1120   54.3840 O.2    56  G56        -0.5172
   1217  OP2       15.7040   50.4170   54.6950 O.co2  56  G56        -0.4373
   1218  P         18.4010   52.5900   60.0280 P.3    57  A57         0.2141
   1219  C5'       18.3090   53.3730   62.5170 C.3    57  A57         0.1812
   1220  O5'       17.7670   52.5390   61.5030 O.3    57  A57        -0.3114
   1221  C4'       17.4340   53.4420   63.7570 C.3    57  A57         0.1773
   1222  O4'       16.0260   53.4900   63.4200 O.3    57  A57        -0.3307
   1223  C3'       17.5410   52.2480   64.6840 C.3    57  A57         0.1860
   1224  O3'       18.6820   52.3350   65.4840 O.3    57  A57        -0.3112
   1225  C2'       16.2610   52.3750   65.4900 C.3    57  A57         0.2309
   1226  O2'       16.3150   53.4220   66.4340 O.3    57  A57        -0.2156
   1227  C1'       15.2930   52.7180   64.3650 C.3    57  A57         0.2408
   1228  N1        12.1870   48.6150   64.7680 N.ar   57  A57        -0.2040
   1229  C2        12.4700   49.6040   65.6220 C.ar   57  A57         0.2016
   1230  N3        13.2830   50.6450   65.4530 N.ar   57  A57        -0.2048
   1231  C4        13.8600   50.6160   64.2410 C.ar   57  A57         0.1692
   1232  C5        13.6750   49.6600   63.2650 C.ar   57  A57         0.1518
   1233  C6        12.7800   48.6160   63.5560 C.ar   57  A57         0.1919
   1234  N6        12.4970   47.6360   62.6970 N.pl3  57  A57        -0.1054
   1235  N7        14.4280   49.9500   62.1450 N.ar   57  A57        -0.2193
   1236  C8        15.0660   51.0470   62.4690 C.ar   57  A57         0.1816
   1237  N9        14.7610   51.5160   63.7170 N.ar   57  A57        -0.2693
   1238  OP1       19.7540   53.1740   60.0890 O.3    57  A57        -0.4373
   1239  OP2       18.2430   51.2600   59.3870 O.co2  57  A57        -0.5172
   1240  P         19.6070   51.0400   65.5780 P.3    58  C58         0.2141
   1241  C5'       18.4000   50.6010   67.8530 C.3    58  C58         0.1812
   1242  O5'       18.7370   50.1120   66.5540 O.3    58  C58        -0.3114
   1243  C4'       17.3570   49.7390   68.5400 C.3    58  C58         0.1773
   1244  O4'       16.1210   49.7650   67.7810 O.3    58  C58        -0.3307
   1245  C3'       17.6760   48.2570   68.6460 C.3    58  C58         0.1860
   1246  O3'       18.5390   47.9670   69.7240 O.3    58  C58        -0.3112
   1247  C2'       16.2850   47.6840   68.8720 C.3    58  C58         0.2309
   1248  O2'       15.7790   47.9190   70.1700 O.3    58  C58        -0.2156
   1249  C1'       15.4970   48.4930   67.8510 C.3    58  C58         0.2420
   1250  N1        15.5280   47.8330   66.5160 N.ar   58  C58        -0.2535
   1251  C2        14.5780   46.8500   66.2260 C.ar   58  C58         0.3532
   1252  O2        13.7030   46.5950   67.0640 O.2    58  C58        -0.2443
   1253  N3        14.6300   46.2290   65.0200 N.ar   58  C58        -0.1739
   1254  C4        15.5940   46.5380   64.1550 C.ar   58  C58         0.1759
   1255  N4        15.6010   45.9070   62.9830 N.pl3  58  C58        -0.1070
   1256  C5        16.5870   47.5150   64.4400 C.ar   58  C58         0.0566
   1257  C6        16.5220   48.1230   65.6260 C.ar   58  C58         0.0850
   1258  OP1       20.8670   51.4080   66.2630 O.3    58  C58        -0.4373
   1259  OP2       19.6840   50.4140   64.2390 O.co2  58  C58        -0.5172
   1260  P         19.6350   46.8220   69.4810 P.3    59  G59         0.2141
   1261  C5'       18.1710   45.2670   70.9850 C.3    59  G59         0.1812
   1262  O5'       18.8170   45.4650   69.7350 O.3    59  G59        -0.3114
   1263  C4'       17.1030   44.1940   70.9100 C.3    59  G59         0.1773
   1264  O4'       16.1310   44.5060   69.8820 O.3    59  G59        -0.3307
   1265  C3'       17.5960   42.8110   70.5320 C.3    59  G59         0.1860
   1266  O3'       18.1170   42.1760   71.6710 O.3    59  G59        -0.3112
   1267  C2'       16.2770   42.1650   70.1460 C.3    59  G59         0.2309
   1268  O2'       15.5280   41.7700   71.2780 O.3    59  G59        -0.2156
   1269  C1'       15.5760   43.2960   69.3980 C.3    59  G59         0.2408
   1270  N1        14.1890   40.9260   65.1030 N.ar   59  G59        -0.1709
   1271  C2        13.7080   40.7740   66.3800 C.ar   59  G59         0.2606
   1272  N2        12.7310   39.8780   66.5500 N.pl3  59  G59        -0.0859
   1273  N3        14.1410   41.4620   67.4270 N.ar   59  G59        -0.1918
   1274  C4        15.1250   42.3330   67.0940 C.ar   59  G59         0.1723
   1275  C5        15.6720   42.5590   65.8560 C.ar   59  G59         0.1748
   1276  C6        15.1960   41.8200   64.7460 C.ar   59  G59         0.3023
   1277  O6        15.5890   41.8710   63.5740 O.2    59  G59        -0.2633
   1278  N7        16.6870   43.5020   65.9380 N.ar   59  G59        -0.2173
   1279  C8        16.7140   43.8430   67.1940 C.ar   59  G59         0.1817
   1280  N9        15.7840   43.1850   67.9530 N.ar   59  G59        -0.2693
   1281  OP1       20.6600   46.9450   70.5410 O.3    59  G59        -0.4373
   1282  OP2       20.0390   46.8590   68.0560 O.co2  59  G59        -0.5172
   1283  P         19.2230   41.0340   71.5100 P.3    60  A60         0.2141
   1284  C5'       17.3990   39.2050   71.8340 C.3    60  A60         0.1812
   1285  O5'       18.3690   39.7940   70.9800 O.3    60  A60        -0.3114
   1286  C4'       16.8190   37.9890   71.1510 C.3    60  A60         0.1773
   1287  O4'       16.2770   38.4030   69.8710 O.3    60  A60        -0.3307
   1288  C3'       17.8340   36.8870   70.8490 C.3    60  A60         0.1860
   1289  O3'       17.4170   35.6590   71.4390 O.3    60  A60        -0.3112
   1290  C2'       17.8050   36.7750   69.3220 C.3    60  A60         0.2309
   1291  O2'       17.9110   35.4410   68.8450 O.3    60  A60        -0.2156
   1292  C1'       16.4110   37.3010   69.0090 C.3    60  A60         0.2408
   1293  N1        13.9410   36.4380   64.5740 N.ar   60  A60        -0.2040
   1294  C2        13.7490   35.9530   65.8070 C.ar   60  A60         0.2016
   1295  N3        14.4190   36.2310   66.9210 N.ar   60  A60        -0.2048
   1296  C4        15.3830   37.1430   66.6980 C.ar   60  A60         0.1692
   1297  C5        15.6900   37.7380   65.4910 C.ar   60  A60         0.1518
   1298  C6        14.9180   37.3470   64.3810 C.ar   60  A60         0.1919
   1299  N6        15.1010   37.8460   63.1630 N.pl3  60  A60        -0.1054
   1300  N7        16.7570   38.6070   65.6270 N.ar   60  A60        -0.2193
   1301  C8        17.0770   38.5130   66.8960 C.ar   60  A60         0.1816
   1302  N9        16.2650   37.6800   67.6090 N.ar   60  A60        -0.2693
   1303  OP1       19.6880   40.6840   72.8710 O.3    60  A60        -0.4373
   1304  OP2       20.2030   41.4380   70.4750 O.co2  60  A60        -0.5172
   1305  P         17.4540   35.3760   73.0170 P.3    61  A61         0.2141
   1306  C5'       19.0610   33.3260   72.6940 C.3    61  A61         0.1812
   1307  O5'       17.7920   33.8140   73.0660 O.3    61  A61        -0.3114
   1308  C4'       18.9160   32.0160   71.9410 C.3    61  A61         0.1773
   1309  O4'       18.2660   31.0020   72.7610 O.3    61  A61        -0.3307
   1310  C3'       18.0720   32.0870   70.6800 C.3    61  A61         0.1860
   1311  O3'       18.5650   31.1000   69.8350 O.3    61  A61        -0.3112
   1312  C2'       16.7130   31.6300   71.1920 C.3    61  A61         0.2309
   1313  O2'       15.9290   31.1070   70.1490 O.3    61  A61        -0.2156
   1314  C1'       17.1530   30.4700   72.0710 C.3    61  A61         0.2408
   1315  N1        14.0450   26.6210   73.5740 N.ar   61  A61        -0.2040
   1316  C2        14.9030   26.7300   72.5550 C.ar   61  A61         0.2016
   1317  N3        15.6770   27.7650   72.2190 N.ar   61  A61        -0.2048
   1318  C4        15.5130   28.7900   73.0660 C.ar   61  A61         0.1692
   1319  C5        14.6490   28.8290   74.1480 C.ar   61  A61         0.1518
   1320  C6        13.8770   27.6760   74.3950 C.ar   61  A61         0.1919
   1321  N6        13.0080   27.5660   75.4050 N.pl3  61  A61        -0.1054
   1322  N7        14.7370   30.0500   74.7950 N.ar   61  A61        -0.2193
   1323  C8        15.6320   30.7150   74.0910 C.ar   61  A61         0.1816
   1324  N9        16.1440   30.0150   73.0290 N.ar   61  A61        -0.2693
   1325  OP1       16.0900   35.5470   73.5720 O.2    61  A61        -0.5172
   1326  OP2       18.5800   36.1430   73.5980 O.co2  61  A61        -0.4373
   1327  P         19.6440   31.3610   68.6960 P.3    62  C62         0.2141
   1328  C5'       21.3000   29.9850   70.2760 C.3    62  C62         0.1812
   1329  O5'       20.8270   30.3070   68.9740 O.3    62  C62        -0.3114
   1330  C4'       20.6880   28.7130   70.8540 C.3    62  C62         0.1773
   1331  O4'       19.3450   28.4630   70.3820 O.3    62  C62        -0.3307
   1332  C3'       21.3960   27.3970   70.5990 C.3    62  C62         0.1860
   1333  O3'       22.5400   27.3350   71.4150 O.3    62  C62        -0.3112
   1334  C2'       20.3290   26.4480   71.1300 C.3    62  C62         0.2309
   1335  O2'       20.2550   26.4320   72.5440 O.3    62  C62        -0.2156
   1336  C1'       19.0620   27.0960   70.5870 C.3    62  C62         0.2420
   1337  N1        18.5970   26.4880   69.3180 N.ar   62  C62        -0.2535
   1338  C2        17.9180   25.2660   69.3590 C.ar   62  C62         0.3532
   1339  O2        17.7270   24.7180   70.4560 O.2    62  C62        -0.2443
   1340  N3        17.4740   24.7360   68.1890 N.ar   62  C62        -0.1739
   1341  C4        17.6900   25.3760   67.0340 C.ar   62  C62         0.1759
   1342  N4        17.2380   24.8230   65.9060 N.pl3  62  C62        -0.1070
   1343  C5        18.3960   26.6080   66.9810 C.ar   62  C62         0.0566
   1344  C6        18.8240   27.1280   68.1360 C.ar   62  C62         0.0850
   1345  OP1       20.1560   32.7390   68.8010 O.3    62  C62        -0.4373
   1346  OP2       19.0120   30.8780   67.4500 O.co2  62  C62        -0.5172
   1347  P         23.5570   26.0960   71.3660 P.3    63  A63         0.2141
   1348  C5'       22.7090   24.6470   73.3400 C.3    63  A63         0.1812
   1349  O5'       22.7030   24.8750   71.9420 O.3    63  A63        -0.3114
   1350  C4'       22.0290   23.3240   73.6140 C.3    63  A63         0.1773
   1351  O4'       20.7010   23.3190   73.0320 O.3    63  A63        -0.3307
   1352  C3'       22.6960   22.1450   72.9370 C.3    63  A63         0.1860
   1353  O3'       23.8050   21.7330   73.6980 O.3    63  A63        -0.3112
   1354  C2'       21.5650   21.1280   72.9670 C.3    63  A63         0.2309
   1355  O2'       21.3560   20.6050   74.2610 O.3    63  A63        -0.2156
   1356  C1'       20.3940   22.0180   72.5740 C.3    63  A63         0.2408
   1357  N1        17.8850   20.0160   68.5390 N.ar   63  A63        -0.2040
   1358  C2        17.9180   19.6670   69.8310 C.ar   63  A63         0.2016
   1359  N3        18.6050   20.2230   70.8310 N.ar   63  A63        -0.2048
   1360  C4        19.3260   21.2670   70.3930 C.ar   63  A63         0.1692
   1361  C5        19.3810   21.7550   69.1020 C.ar   63  A63         0.1518
   1362  C6        18.6150   21.0820   68.1330 C.ar   63  A63         0.1919
   1363  N6        18.5890   21.4490   66.8450 N.pl3  63  A63        -0.1054
   1364  N7        20.2140   22.8560   69.0220 N.ar   63  A63        -0.2193
   1365  C8        20.6160   23.0290   70.2620 C.ar   63  A63         0.1816
   1366  N9        20.1460   22.0870   71.1350 N.ar   63  A63        -0.2693
   1367  OP1       24.6200   26.4030   72.3520 O.3    63  A63        -0.4373
   1368  OP2       23.8880   25.8180   69.9480 O.co2  63  A63        -0.5172
   1369  P         25.0260   20.9910   72.9840 P.3    64  C64         0.2141
   1370  C5'       24.0040   18.6690   73.6050 C.3    64  C64         0.1812
   1371  O5'       24.4060   19.5740   72.5970 O.3    64  C64        -0.3114
   1372  C4'       23.3680   17.4640   72.9480 C.3    64  C64         0.1773
   1373  O4'       22.0920   17.8610   72.3880 O.3    64  C64        -0.3307
   1374  C3'       24.1350   16.9220   71.7510 C.3    64  C64         0.1860
   1375  O3'       25.1570   16.0440   72.1530 O.3    64  C64        -0.3112
   1376  C2'       23.0320   16.1740   71.0240 C.3    64  C64         0.2309
   1377  O2'       22.7320   14.9430   71.6390 O.3    64  C64        -0.2156
   1378  C1'       21.8690   17.1500   71.1790 C.3    64  C64         0.2420
   1379  N1        21.8020   18.1040   70.0250 N.ar   64  C64        -0.2535
   1380  C2        21.0300   17.7790   68.9070 C.ar   64  C64         0.3532
   1381  O2        20.3540   16.7410   68.9170 O.2    64  C64        -0.2443
   1382  N3        21.0140   18.6410   67.8580 N.ar   64  C64        -0.1739
   1383  C4        21.7170   19.7720   67.8990 C.ar   64  C64         0.1759
   1384  N4        21.6360   20.6020   66.8570 N.pl3  64  C64        -0.1070
   1385  C5        22.5250   20.1110   69.0170 C.ar   64  C64         0.0566
   1386  C6        22.5490   19.2480   70.0360 C.ar   64  C64         0.0850
   1387  OP1       26.0820   20.7930   74.0010 O.3    64  C64        -0.4373
   1388  OP2       25.3030   21.6850   71.7100 O.co2  64  C64        -0.5172
   1389  P         26.4630   15.9040   71.2420 P.3    65  C65         0.2141
   1390  C5'       25.5120   13.7900   70.1180 C.3    65  C65         0.1812
   1391  O5'       25.8750   15.1540   69.9650 O.3    65  C65        -0.3114
   1392  C4'       25.1960   13.1850   68.7670 C.3    65  C65         0.1773
   1393  O4'       23.9540   13.7670   68.2940 O.3    65  C65        -0.3307
   1394  C3'       26.1990   13.5410   67.6770 C.3    65  C65         0.1860
   1395  O3'       27.3100   12.6760   67.7110 O.3    65  C65        -0.3112
   1396  C2'       25.3480   13.3110   66.4370 C.3    65  C65         0.2309
   1397  O2'       25.2150   11.9410   66.1160 O.3    65  C65        -0.2156
   1398  C1'       24.0090   13.9010   66.8860 C.3    65  C65         0.2420
   1399  N1        23.8970   15.3310   66.4920 N.ar   65  C65        -0.2535
   1400  C2        23.3280   15.6480   65.2480 C.ar   65  C65         0.3532
   1401  O2        22.8390   14.7440   64.5500 O.2    65  C65        -0.2443
   1402  N3        23.2830   16.9490   64.8630 N.ar   65  C65        -0.1739
   1403  C4        23.8100   17.8970   65.6360 C.ar   65  C65         0.1759
   1404  N4        23.7290   19.1600   65.2100 N.pl3  65  C65        -0.1070
   1405  C5        24.4230   17.5910   66.8890 C.ar   65  C65         0.0566
   1406  C6        24.4500   16.3060   67.2720 C.ar   65  C65         0.0850
   1407  OP1       27.4220   14.9870   71.8990 O.3    65  C65        -0.4373
   1408  OP2       26.8940   17.2700   70.8670 O.co2  65  C65        -0.5172
   1409  P         28.7710   13.2030   67.3300 P.3    66  G66         0.2141
   1410  C5'       28.5430   12.7060   64.7740 C.3    66  G66         0.1812
   1411  O5'       28.6360   13.6750   65.8120 O.3    66  G66        -0.3114
   1412  C4'       28.4630   13.3650   63.4100 C.3    66  G66         0.1773
   1413  O4'       27.1690   14.0070   63.2720 O.3    66  G66        -0.3307
   1414  C3'       29.4620   14.4840   63.1390 C.3    66  G66         0.1860
   1415  O3'       30.7430   13.9710   62.7770 O.3    66  G66        -0.3112
   1416  C2'       28.7690   15.1480   61.9550 C.3    66  G66         0.2309
   1417  O2'       28.9440   14.4490   60.7390 O.3    66  G66        -0.2156
   1418  C1'       27.3020   15.0990   62.3820 C.3    66  G66         0.2408
   1419  N1        25.4790   19.7450   61.5760 N.ar   66  G66        -0.1709
   1420  C2        25.5650   18.6880   60.7140 C.ar   66  G66         0.2606
   1421  N2        25.1360   18.9150   59.4640 N.pl3  66  G66        -0.0859
   1422  N3        26.0320   17.4970   61.0600 N.ar   66  G66        -0.1918
   1423  C4        26.4390   17.4640   62.3530 C.ar   66  G66         0.1723
   1424  C5        26.4030   18.4710   63.2890 C.ar   66  G66         0.1748
   1425  C6        25.8870   19.7300   62.9010 C.ar   66  G66         0.3023
   1426  O6        25.7550   20.7520   63.5790 O.2    66  G66        -0.2633
   1427  N7        26.9080   18.0330   64.5130 N.ar   66  G66        -0.2173
   1428  C8        27.2380   16.7890   64.2870 C.ar   66  G66         0.1817
   1429  N9        26.9480   16.3660   63.0100 N.ar   66  G66        -0.2693
   1430  OP1       29.6600   12.0240   67.3970 O.2    66  G66        -0.5172
   1431  OP2       29.0970   14.4100   68.1190 O.co2  66  G66        -0.4373
   1432  P         32.0930   14.8190   63.0020 P.3    67  A67         0.2141
   1433  C5'       32.8740   17.2210   62.4760 C.3    67  A67         0.1812
   1434  O5'       31.8770   16.2310   62.2990 O.3    67  A67        -0.3114
   1435  C4'       33.0460   17.9700   61.1740 C.3    67  A67         0.1773
   1436  O4'       33.5340   17.0450   60.1740 O.3    67  A67        -0.3307
   1437  C3'       31.7360   18.4710   60.5870 C.3    67  A67         0.1860
   1438  O3'       31.4120   19.7300   61.1510 O.3    67  A67        -0.3112
   1439  C2'       32.0590   18.5680   59.1010 C.3    67  A67         0.2309
   1440  O2'       32.7550   19.7600   58.8000 O.3    67  A67        -0.2156
   1441  C1'       32.9830   17.3700   58.9110 C.3    67  A67         0.2408
   1442  N1        31.4380   14.9390   54.6490 N.ar   67  A67        -0.2040
   1443  C2        31.9160   16.1720   54.8560 C.ar   67  A67         0.2016
   1444  N3        32.2740   16.7500   56.0070 N.ar   67  A67        -0.2048
   1445  C4        32.1040   15.9120   57.0400 C.ar   67  A67         0.1692
   1446  C5        31.6280   14.6170   56.9860 C.ar   67  A67         0.1518
   1447  C6        31.2870   14.1260   55.7130 C.ar   67  A67         0.1919
   1448  N6        30.7930   12.9080   55.5080 N.pl3  67  A67        -0.1054
   1449  N7        31.5970   14.0550   58.2490 N.ar   67  A67        -0.2193
   1450  C8        32.0780   15.0040   59.0260 C.ar   67  A67         0.1816
   1451  N9        32.3810   16.1600   58.3610 N.ar   67  A67        -0.2693
   1452  OP1       33.1790   14.1870   62.2310 O.2    67  A67        -0.5172
   1453  OP2       32.2660   15.0650   64.4480 O.co2  67  A67        -0.4373
   1454  P         30.0020   19.9560   61.8820 P.3    68  A68         0.2141
   1455  C5'       29.4970   21.6360   59.9760 C.3    68  A68         0.1812
   1456  O5'       29.1000   20.4400   60.6550 O.3    68  A68        -0.3114
   1457  C4'       29.1680   21.5710   58.4990 C.3    68  A68         0.1773
   1458  O4'       29.8650   20.4460   57.9180 O.3    68  A68        -0.3307
   1459  C3'       27.7020   21.3090   58.1700 C.3    68  A68         0.1860
   1460  O3'       26.9910   22.5270   58.1690 O.3    68  A68        -0.3112
   1461  C2'       27.8070   20.7340   56.7630 C.3    68  A68         0.2309
   1462  O2'       28.0470   21.7270   55.7830 O.3    68  A68        -0.2156
   1463  C1'       29.0430   19.8550   56.9230 C.3    68  A68         0.2408
   1464  N1        28.0820   15.1710   55.0710 N.ar   68  A68        -0.2040
   1465  C2        28.2400   16.3550   54.4730 C.ar   68  A68         0.2016
   1466  N3        28.4700   17.5390   55.0320 N.ar   68  A68        -0.2048
   1467  C4        28.5380   17.4410   56.3700 C.ar   68  A68         0.1692
   1468  C5        28.3860   16.2990   57.1300 C.ar   68  A68         0.1518
   1469  C6        28.1470   15.1040   56.4190 C.ar   68  A68         0.1919
   1470  N6        27.9730   13.9180   57.0040 N.pl3  68  A68        -0.1054
   1471  N7        28.5210   16.5890   58.4800 N.ar   68  A68        -0.2193
   1472  C8        28.7550   17.8820   58.5090 C.ar   68  A68         0.1816
   1473  N9        28.7720   18.4590   57.2670 N.ar   68  A68        -0.2693
   1474  OP1       30.2060   21.1190   62.7840 O.3    68  A68        -0.4373
   1475  OP2       29.4680   18.6590   62.3820 O.co2  68  A68        -0.5172
   1476  P         25.3990   22.5660   58.2870 P.3    69  A69         0.2141
   1477  C5'       24.7950   22.6770   55.7340 C.3    69  A69         0.1812
   1478  O5'       24.8970   21.9030   56.9220 O.3    69  A69        -0.3114
   1479  C4'       24.4560   21.7900   54.5480 C.3    69  A69         0.1773
   1480  O4'       25.4050   20.6950   54.4820 O.3    69  A69        -0.3307
   1481  C3'       23.1100   21.0880   54.6210 C.3    69  A69         0.1860
   1482  O3'       22.0390   21.9560   54.2410 O.3    69  A69        -0.3112
   1483  C2'       23.3310   19.9590   53.6220 C.3    69  A69         0.2309
   1484  O2'       23.2180   20.3730   52.2740 O.3    69  A69        -0.2156
   1485  C1'       24.7680   19.5550   53.9370 C.3    69  A69         0.2408
   1486  N1        24.9210   14.4730   54.8800 N.ar   69  A69        -0.2040
   1487  C2        24.9280   15.1620   53.7250 C.ar   69  A69         0.2016
   1488  N3        24.8990   16.4820   53.5340 N.ar   69  A69        -0.2048
   1489  C4        24.8530   17.1320   54.7080 C.ar   69  A69         0.1692
   1490  C5        24.8430   16.5610   55.9700 C.ar   69  A69         0.1518
   1491  C6        24.8700   15.1570   56.0470 C.ar   69  A69         0.1919
   1492  N6        24.8660   14.5000   57.2120 N.pl3  69  A69        -0.1054
   1493  N7        24.7930   17.5300   56.9530 N.ar   69  A69        -0.2193
   1494  C8        24.7630   18.6540   56.2790 C.ar   69  A69         0.1816
   1495  N9        24.8140   18.4910   54.9260 N.ar   69  A69        -0.2693
   1496  OP1       25.0590   24.0070   58.2790 O.2    69  A69        -0.5172
   1497  OP2       24.9630   21.6770   59.3890 O.co2  69  A69        -0.4373
   1498  P         20.8760   22.3090   55.2950 P.3    70  G70         0.2141
   1499  C5'       19.8410   19.9460   54.9110 C.3    70  G70         0.1812
   1500  O5'       20.4130   20.8710   55.8170 O.3    70  G70        -0.3114
   1501  C4'       19.9480   18.5440   55.4780 C.3    70  G70         0.1773
   1502  O4'       21.2810   18.3080   56.0020 O.3    70  G70        -0.3307
   1503  C3'       19.0490   18.2640   56.6660 C.3    70  G70         0.1860
   1504  O3'       17.7630   17.9360   56.2010 O.3    70  G70        -0.3112
   1505  C2'       19.7430   17.0430   57.2490 C.3    70  G70         0.2309
   1506  O2'       19.5010   15.8940   56.4760 O.3    70  G70        -0.2156
   1507  C1'       21.2040   17.4510   57.1270 C.3    70  G70         0.2408
   1508  N1        22.3860   17.2180   62.0510 N.ar   70  G70        -0.1709
   1509  C2        22.0860   16.2010   61.1820 C.ar   70  G70         0.2606
   1510  N2        22.0810   14.9530   61.6820 N.pl3  70  G70        -0.0859
   1511  N3        21.7930   16.3980   59.9070 N.ar   70  G70        -0.1918
   1512  C4        21.8480   17.7000   59.5590 C.ar   70  G70         0.1723
   1513  C5        22.1480   18.7800   60.3490 C.ar   70  G70         0.1748
   1514  C6        22.4520   18.5650   61.7150 C.ar   70  G70         0.3023
   1515  O6        22.7540   19.3960   62.5840 O.2    70  G70        -0.2633
   1516  N7        22.1050   19.9520   59.6020 N.ar   70  G70        -0.2173
   1517  C8        21.7590   19.5660   58.4020 C.ar   70  G70         0.1817
   1518  N9        21.6130   18.2060   58.3010 N.ar   70  G70        -0.2693
   1519  OP1       19.7350   22.8950   54.5650 O.2    70  G70        -0.5172
   1520  OP2       21.5170   23.0300   56.4230 O.co2  70  G70        -0.4373
   1521  P         16.5100   18.0830   57.1860 P.3    71  G71         0.2141
   1522  C5'       16.4900   15.6200   58.1120 C.3    71  G71         0.1812
   1523  O5'       16.8500   16.9770   58.2920 O.3    71  G71        -0.3114
   1524  C4'       16.7720   14.8570   59.3940 C.3    71  G71         0.1773
   1525  O4'       18.1050   15.1470   59.8850 O.3    71  G71        -0.3307
   1526  C3'       15.8990   15.2700   60.5550 C.3    71  G71         0.1860
   1527  O3'       14.6400   14.6460   60.4330 O.3    71  G71        -0.3112
   1528  C2'       16.7240   14.7840   61.7470 C.3    71  G71         0.2309
   1529  O2'       16.6250   13.4010   62.0060 O.3    71  G71        -0.2156
   1530  C1'       18.1390   15.1000   61.3010 C.3    71  G71         0.2408
   1531  N1        20.0300   17.7650   65.2390 N.ar   71  G71        -0.1709
   1532  C2        19.6970   16.4370   65.1930 C.ar   71  G71         0.2606
   1533  N2        19.9120   15.7620   66.3260 N.pl3  71  G71        -0.0859
   1534  N3        19.2090   15.8350   64.1080 N.ar   71  G71        -0.1918
   1535  C4        19.0660   16.6960   63.0610 C.ar   71  G71         0.1723
   1536  C5        19.3560   18.0450   63.0250 C.ar   71  G71         0.1748
   1537  C6        19.8820   18.6620   64.1830 C.ar   71  G71         0.3023
   1538  O6        20.2000   19.8420   64.3480 O.2    71  G71        -0.2633
   1539  N7        19.0930   18.5800   61.7720 N.ar   71  G71        -0.2173
   1540  C8        18.6450   17.5700   61.0810 C.ar   71  G71         0.1817
   1541  N9        18.6010   16.3930   61.7940 N.ar   71  G71        -0.2693
   1542  OP1       15.2820   17.6720   56.4590 O.2    71  G71        -0.5172
   1543  OP2       16.6150   19.4310   57.8060 O.co2  71  G71        -0.4373
   1544  P         13.3610   15.3800   61.0430 P.3    72  U72         0.2141
   1545  C5'       13.1780   14.0070   63.2590 C.3    72  U72         0.1812
   1546  O5'       13.6140   15.1780   62.6060 O.3    72  U72        -0.3114
   1547  C4'       13.4370   14.1450   64.7450 C.3    72  U72         0.1773
   1548  O4'       14.8490   14.4000   64.9440 O.3    72  U72        -0.3307
   1549  C3'       12.7670   15.3260   65.4310 C.3    72  U72         0.1860
   1550  O3'       11.3970   15.0480   65.7290 O.3    72  U72        -0.3112
   1551  C2'       13.6390   15.3950   66.6770 C.3    72  U72         0.2309
   1552  O2'       13.4010   14.3090   67.5430 O.3    72  U72        -0.2156
   1553  C1'       15.0260   15.2230   66.0760 C.3    72  U72         0.2420
   1554  N1        15.6240   16.5290   65.6720 N.ar   72  U72        -0.2534
   1555  C2        16.2120   17.2780   66.6620 C.ar   72  U72         0.3546
   1556  O2        16.2770   16.8990   67.8130 O.2    72  U72        -0.2443
   1557  N3        16.7040   18.4930   66.2700 N.ar   72  U72        -0.1530
   1558  C4        16.6680   19.0300   65.0000 C.ar   72  U72         0.2846
   1559  O4        17.1720   20.1370   64.8110 O.2    72  U72        -0.2650
   1560  C5        16.0220   18.1950   64.0100 C.ar   72  U72         0.0814
   1561  C6        15.5240   17.0070   64.3750 C.ar   72  U72         0.0870
   1562  OP1       12.1330   14.6540   60.6460 O.2    72  U72        -0.5172
   1563  OP2       13.4960   16.8240   60.7650 O.co2  72  U72        -0.4373
   1564  P         10.3310   16.2450   65.8120 P.3    73  G73         0.2141
   1565  C5'       10.4480   16.4070   68.4150 C.3    73  G73         0.1812
   1566  O5'       10.7500   16.9860   67.1640 O.3    73  G73        -0.3114
   1567  C4'       11.1140   17.2140   69.5030 C.3    73  G73         0.1773
   1568  O4'       12.5150   17.4140   69.1860 O.3    73  G73        -0.3307
   1569  C3'       10.6130   18.6370   69.6000 C.3    73  G73         0.1860
   1570  O3'        9.4250   18.6870   70.3180 O.3    73  G73        -0.3112
   1571  C2'       11.7210   19.2630   70.4170 C.3    73  G73         0.2309
   1572  O2'       11.6120   18.8430   71.7590 O.3    73  G73        -0.2156
   1573  C1'       12.9390   18.6540   69.7300 C.3    73  G73         0.2408
   1574  N1        15.8000   22.6450   68.3400 N.ar   73  G73        -0.1709
   1575  C2        15.5940   22.1290   69.5890 C.ar   73  G73         0.2606
   1576  N2        16.2300   22.7530   70.5870 N.pl3  73  G73        -0.0859
   1577  N3        14.8150   21.0840   69.8380 N.ar   73  G73        -0.1918
   1578  C4        14.2600   20.5740   68.7130 C.ar   73  G73         0.1723
   1579  C5        14.4130   21.0170   67.4230 C.ar   73  G73         0.1748
   1580  C6        15.2320   22.1450   67.1800 C.ar   73  G73         0.3023
   1581  O6        15.4780   22.7070   66.1050 O.2    73  G73        -0.2633
   1582  N7        13.6820   20.2230   66.5420 N.ar   73  G73        -0.2173
   1583  C8        13.0980   19.3440   67.3060 C.ar   73  G73         0.1817
   1584  N9        13.4150   19.4870   68.6340 N.ar   73  G73        -0.2693
   1585  OP1        8.9750   15.6970   66.0310 O.3    73  G73        -0.4373
   1586  OP2       10.5760   17.1790   64.6910 O.co2  73  G73        -0.5172
   1587  P          8.5460   19.9940   70.1330 P.3    74  G74         0.2141
   1588  C5'        9.1700   22.3290   71.0270 C.3    74  G74         0.1812
   1589  O5'        9.1010   20.9320   71.2980 O.3    74  G74        -0.3114
   1590  C4'       10.4050   22.9300   71.6520 C.3    74  G74         0.1773
   1591  O4'       11.5820   22.5080   70.9260 O.3    74  G74        -0.3307
   1592  C3'       10.4410   24.4430   71.6160 C.3    74  G74         0.1860
   1593  O3'        9.7760   24.9230   72.7700 O.3    74  G74        -0.3112
   1594  C2'       11.9410   24.7230   71.6450 C.3    74  G74         0.2309
   1595  O2'       12.5120   24.5940   72.9330 O.3    74  G74        -0.2156
   1596  C1'       12.4750   23.5940   70.7850 C.3    74  G74         0.2408
   1597  N1        14.7810   26.5300   67.3350 N.ar   74  G74        -0.1709
   1598  C2        14.8680   26.5740   68.7040 C.ar   74  G74         0.2606
   1599  N2        15.6710   27.5070   69.2280 N.pl3  74  G74        -0.0859
   1600  N3        14.2050   25.7610   69.5100 N.ar   74  G74        -0.1918
   1601  C4        13.4360   24.8780   68.8220 C.ar   74  G74         0.1723
   1602  C5        13.2920   24.7520   67.4630 C.ar   74  G74         0.1748
   1603  C6        14.0080   25.6240   66.6160 C.ar   74  G74         0.3023
   1604  O6        14.0130   25.6530   65.3780 O.2    74  G74        -0.2633
   1605  N7        12.4200   23.7260   67.1540 N.ar   74  G74        -0.2173
   1606  C8        12.0510   23.2600   68.3080 C.ar   74  G74         0.1817
   1607  N9        12.6240   23.9120   69.3690 N.ar   74  G74        -0.2693
   1608  OP1        7.1350   19.6400   70.3800 O.3    74  G74        -0.4373
   1609  OP2        8.9310   20.6670   68.8670 O.co2  74  G74        -0.5172
   1610  P          8.6860   26.0810   72.6190 P.3    75  C75         0.2141
   1611  C5'       10.3540   28.1150   72.8990 C.3    75  C75         0.1812
   1612  O5'        9.5770   27.2840   72.0360 O.3    75  C75        -0.3114
   1613  C4'       11.4060   28.8990   72.1250 C.3    75  C75         0.1773
   1614  O4'       12.1260   27.9950   71.2460 O.3    75  C75        -0.3307
   1615  C3'       10.9010   29.9920   71.1820 C.3    75  C75         0.1860
   1616  O3'       10.7060   31.2110   71.8550 O.3    75  C75        -0.3112
   1617  C2'       12.0950   30.1400   70.2620 C.3    75  C75         0.2309
   1618  O2'       13.1600   30.7760   70.9320 O.3    75  C75        -0.2156
   1619  C1'       12.4480   28.6790   70.0440 C.3    75  C75         0.2420
   1620  N1        11.7960   28.0550   68.8350 N.ar   75  C75        -0.2535
   1621  C2        12.3050   28.3990   67.5890 C.ar   75  C75         0.3532
   1622  O2        13.2130   29.2230   67.5300 O.2    75  C75        -0.2443
   1623  N3        11.7810   27.8440   66.4800 N.ar   75  C75        -0.1739
   1624  C4        10.7920   26.9630   66.5870 C.ar   75  C75         0.1759
   1625  N4        10.3230   26.4530   65.4490 N.pl3  75  C75        -0.1070
   1626  C5        10.2350   26.6030   67.8480 C.ar   75  C75         0.0566
   1627  C6        10.7610   27.1720   68.9380 C.ar   75  C75         0.0850
   1628  OP1        8.1710   26.4240   73.9720 O.3    75  C75        -0.4373
   1629  OP2        7.7340   25.6510   71.5750 O.co2  75  C75        -0.5172
   1630  P          9.4220   32.1010   71.5140 P.3    76  G76         0.2141
   1631  C5'       10.9650   33.5210   69.9580 C.3    76  G76         0.1812
   1632  O5'        9.7970   32.7500   70.1070 O.3    76  G76        -0.3114
   1633  C4'       11.0310   34.0230   68.5280 C.3    76  G76         0.1773
   1634  O4'       11.1550   32.9120   67.5920 O.3    76  G76        -0.3307
   1635  C3'        9.7680   34.7590   68.1260 C.3    76  G76         0.1860
   1636  O3'       10.1290   35.8320   67.2970 O.3    76  G76        -0.3112
   1637  C2'        8.9760   33.6970   67.3680 C.3    76  G76         0.2309
   1638  O2'        8.0920   34.2810   66.4320 O.3    76  G76        -0.2156
   1639  C1'       10.0960   32.9450   66.6590 C.3    76  G76         0.2408
   1640  N1         9.3290   29.8740   62.6510 N.ar   76  G76        -0.1709
   1641  C2         9.8070   31.1590   62.6820 C.ar   76  G76         0.2606
   1642  N2        10.1050   31.7050   61.4940 N.pl3  76  G76        -0.0859
   1643  N3         9.9770   31.8540   63.8060 N.ar   76  G76        -0.1918
   1644  C4         9.6260   31.1560   64.9160 C.ar   76  G76         0.1723
   1645  C5         9.1220   29.8730   64.9820 C.ar   76  G76         0.1748
   1646  C6         8.9570   29.1360   63.7770 C.ar   76  G76         0.3023
   1647  O6         8.5410   27.9760   63.6290 O.2    76  G76        -0.2633
   1648  N7         8.9020   29.5010   66.3030 N.ar   76  G76        -0.2173
   1649  C8         9.2510   30.5630   66.9890 C.ar   76  G76         0.1817
   1650  N9         9.7140   31.6040   66.2190 N.ar   76  G76        -0.2693
   1651  OP1        9.3420   33.1910   72.5170 O.3    76  G76        -0.4373
   1652  OP2        8.2730   31.1970   71.2860 O.co2  76  G76        -0.5172
   1653  P         10.2470   37.3160   67.8790 P.3    77  G77         0.2141
   1654  C5'        7.7040   37.5250   67.3370 C.3    77  G77         0.1812
   1655  O5'        8.7440   37.7050   68.2550 O.3    77  G77        -0.3114
   1656  C4'        6.3870   37.5290   68.0850 C.3    77  G77         0.1773
   1657  O4'        6.2310   38.7120   68.8980 O.3    77  G77        -0.3307
   1658  C3'        5.1570   37.4960   67.1980 C.3    77  G77         0.1860
   1659  O3'        4.8430   36.1380   67.0270 O.3    77  G77        -0.3112
   1660  C2'        4.0970   38.2140   68.0290 C.3    77  G77         0.2309
   1661  O2'        3.1470   37.3140   68.5400 O.3    77  G77        -0.2156
   1662  C1'        4.8590   38.8350   69.1900 C.3    77  G77         0.2408
   1663  N1         3.2530   42.3870   72.4620 N.ar   77  G77        -0.1709
   1664  C2         3.3590   41.0230   72.6300 C.ar   77  G77         0.2606
   1665  N2         3.0220   40.5310   73.8290 N.pl3  77  G77        -0.0859
   1666  N3         3.7820   40.1920   71.6870 N.ar   77  G77        -0.1918
   1667  C4         4.1010   40.8400   70.5390 C.ar   77  G77         0.1723
   1668  C5         4.0360   42.1890   70.2700 C.ar   77  G77         0.1748
   1669  C6         3.5760   43.0710   71.2850 C.ar   77  G77         0.3023
   1670  O6         3.4560   44.3070   71.2350 O.2    77  G77        -0.2633
   1671  N7         4.4630   42.4500   68.9720 N.ar   77  G77        -0.2173
   1672  C8         4.7800   41.2770   68.4970 C.ar   77  G77         0.1817
   1673  N9         4.5730   40.2500   69.3880 N.ar   77  G77        -0.2693
   1674  OP1       10.6760   38.1480   66.7310 O.2    77  G77        -0.5172
   1675  OP2       11.0270   37.3120   69.1380 O.co2  77  G77        -0.4373
   1676  P          3.8980   35.5990   65.8660 P.3    78  U78         0.2141
   1677  C5'        5.7790   36.1000   64.0780 C.3    78  U78         0.1812
   1678  O5'        4.9090   35.1710   64.6990 O.3    78  U78        -0.3114
   1679  C4'        6.2630   35.5140   62.7680 C.3    78  U78         0.1773
   1680  O4'        7.1460   34.4010   63.0490 O.3    78  U78        -0.3307
   1681  C3'        5.1660   34.8920   61.9170 C.3    78  U78         0.1860
   1682  O3'        4.5620   35.8780   61.1120 O.3    78  U78        -0.3112
   1683  C2'        5.9620   33.9140   61.0670 C.3    78  U78         0.2309
   1684  O2'        6.6050   34.5520   59.9860 O.3    78  U78        -0.2156
   1685  C1'        6.9750   33.3830   62.0790 C.3    78  U78         0.2420
   1686  N1         6.5140   32.1240   62.7600 N.ar   78  U78        -0.2534
   1687  C2         6.4440   30.9480   62.0360 C.ar   78  U78         0.3546
   1688  O2         6.7390   30.8700   60.8600 O.2    78  U78        -0.2443
   1689  N3         6.0400   29.8480   62.7460 N.ar   78  U78        -0.1530
   1690  C4         5.6840   29.8140   64.0840 C.ar   78  U78         0.2846
   1691  O4         5.2980   28.7580   64.5750 O.2    78  U78        -0.2650
   1692  C5         5.8130   31.0640   64.7900 C.ar   78  U78         0.0814
   1693  C6         6.2140   32.1480   64.1130 C.ar   78  U78         0.0870
   1694  OP1        3.0660   36.7270   65.3980 O.2    78  U78        -0.5172
   1695  OP2        3.2690   34.3620   66.3740 O.co2  78  U78        -0.4373
   1696  P          3.0210   35.7780   60.7150 P.3    79  A79         0.2141
   1697  C5'        3.7660   35.4480   58.2610 C.3    79  A79         0.1812
   1698  O5'        3.0530   34.9310   59.3670 O.3    79  A79        -0.3114
   1699  C4'        3.4760   34.6410   57.0050 C.3    79  A79         0.1773
   1700  O4'        4.3700   33.4970   56.9380 O.3    79  A79        -0.3307
   1701  C3'        2.0690   34.0640   56.8760 C.3    79  A79         0.1860
   1702  O3'        1.2450   34.9970   56.2240 O.3    79  A79        -0.3112
   1703  C2'        2.3460   32.9300   55.9080 C.3    79  A79         0.2309
   1704  O2'        2.5350   33.4510   54.6160 O.3    79  A79        -0.2156
   1705  C1'        3.6620   32.3760   56.4520 C.3    79  A79         0.2408
   1706  N1         2.4280   27.5570   57.7900 N.ar   79  A79        -0.2040
   1707  C2         2.6700   28.1130   56.5950 C.ar   79  A79         0.2016
   1708  N3         2.9990   29.3750   56.3120 N.ar   79  A79        -0.2048
   1709  C4         3.0860   30.1090   57.4350 C.ar   79  A79         0.1692
   1710  C5         2.8860   29.6680   58.7290 C.ar   79  A79         0.1518
   1711  C6         2.5530   28.3180   58.8940 C.ar   79  A79         0.1919
   1712  N6         2.3680   27.7660   60.0850 N.pl3  79  A79        -0.1054
   1713  N7         3.0690   30.6920   59.6340 N.ar   79  A79        -0.2193
   1714  C8         3.3610   31.7260   58.8810 C.ar   79  A79         0.1816
   1715  N9         3.4220   31.4400   57.5470 N.ar   79  A79        -0.2693
   1716  OP1        2.5780   37.1550   60.3900 O.2    79  A79        -0.5172
   1717  OP2        2.2860   35.0220   61.7400 O.co2  79  A79        -0.4373
   1718  P         -0.3470   34.9780   56.3700 P.3    80  C80         0.2141
   1719  C5'       -0.9070   33.7030   54.1580 C.3    80  C80         0.1812
   1720  O5'       -0.8360   33.6940   55.5620 O.3    80  C80        -0.3114
   1721  C4'       -1.0770   32.2780   53.6770 C.3    80  C80         0.1773
   1722  O4'       -0.0600   31.4360   54.2840 O.3    80  C80        -0.3307
   1723  C3'       -2.3810   31.6010   54.0850 C.3    80  C80         0.1860
   1724  O3'       -3.4200   31.9740   53.2120 O.3    80  C80        -0.3112
   1725  C2'       -1.9930   30.1610   53.8080 C.3    80  C80         0.2309
   1726  O2'       -1.8300   29.9650   52.4200 O.3    80  C80        -0.2156
   1727  C1'       -0.6260   30.1490   54.4710 C.3    80  C80         0.2420
   1728  N1        -0.6730   29.8040   55.9150 N.ar   80  C80        -0.2535
   1729  C2        -0.7270   28.4530   56.2520 C.ar   80  C80         0.3532
   1730  O2        -0.7700   27.6400   55.3160 O.2    80  C80        -0.2443
   1731  N3        -0.7180   28.0960   57.5660 N.ar   80  C80        -0.1739
   1732  C4        -0.6530   29.0490   58.5050 C.ar   80  C80         0.1759
   1733  N4        -0.6570   28.6840   59.7920 N.pl3  80  C80        -0.1070
   1734  C5        -0.6000   30.4360   58.1770 C.ar   80  C80         0.0566
   1735  C6        -0.6050   30.7630   56.8810 C.ar   80  C80         0.0850
   1736  OP1       -0.7970   36.2000   55.6760 O.2    80  C80        -0.5172
   1737  OP2       -0.7540   34.7350   57.7680 O.co2  80  C80        -0.4373
   1738  P         -4.9380   31.7700   53.6550 P.3    81  G81         0.2141
   1739  C5'       -5.1370   29.5890   52.2380 C.3    81  G81         0.1812
   1740  O5'       -5.1820   30.1990   53.5060 O.3    81  G81        -0.3114
   1741  C4'       -5.3780   28.1030   52.4160 C.3    81  G81         0.1773
   1742  O4'       -4.2980   27.5270   53.1970 O.3    81  G81        -0.3307
   1743  C3'       -6.6160   27.7600   53.2220 C.3    81  G81         0.1860
   1744  O3'       -7.7560   27.8070   52.3870 O.3    81  G81        -0.3112
   1745  C2'       -6.2660   26.3430   53.6500 C.3    81  G81         0.2309
   1746  O2'       -6.3480   25.4390   52.5690 O.3    81  G81        -0.2156
   1747  C1'       -4.8060   26.5240   54.0470 C.3    81  G81         0.2408
   1748  N1        -4.6660   25.1600   58.9570 N.ar   81  G81        -0.1709
   1749  C2        -4.9390   24.4010   57.8420 C.ar   81  G81         0.2606
   1750  N2        -5.2300   23.1110   58.0490 N.pl3  81  G81        -0.0859
   1751  N3        -4.9390   24.8640   56.6010 N.ar   81  G81        -0.1918
   1752  C4        -4.6440   26.1830   56.5600 C.ar   81  G81         0.1723
   1753  C5        -4.3590   27.0250   57.6090 C.ar   81  G81         0.1748
   1754  C6        -4.3480   26.5120   58.9280 C.ar   81  G81         0.3023
   1755  O6        -4.1000   27.1080   59.9840 O.2    81  G81        -0.2633
   1756  N7        -4.0990   28.3080   57.1450 N.ar   81  G81        -0.2173
   1757  C8        -4.2520   28.2200   55.8500 C.ar   81  G81         0.1817
   1758  N9        -4.5890   26.9580   55.4240 N.ar   81  G81        -0.2693
   1759  OP1       -5.7770   32.4870   52.6730 O.2    81  G81        -0.5172
   1760  OP2       -5.0410   32.0800   55.1020 O.co2  81  G81        -0.4373
   1761  P         -9.1700   28.2410   53.0010 P.3    82  U82         0.2141
   1762  C5'       -9.8630   25.7440   53.2900 C.3    82  U82         0.1812
   1763  O5'       -9.5440   26.9840   53.9180 O.3    82  U82        -0.3114
   1764  C4'      -10.0540   24.6460   54.3190 C.3    82  U82         0.1773
   1765  O4'       -8.8490   24.4320   55.1010 O.3    82  U82        -0.3307
   1766  C3'      -11.0840   24.9400   55.3920 C.3    82  U82         0.1860
   1767  O3'      -12.3690   24.7680   54.8450 O.3    82  U82        -0.3112
   1768  C2'      -10.7070   23.8770   56.4230 C.3    82  U82         0.2309
   1769  O2'      -10.9870   22.5570   55.9950 O.3    82  U82        -0.2156
   1770  C1'       -9.1970   24.0350   56.4140 C.3    82  U82         0.2420
   1771  N1        -8.6770   25.0480   57.3580 N.ar   82  U82        -0.2534
   1772  C2        -8.4720   24.6940   58.6760 C.ar   82  U82         0.3546
   1773  O2        -8.7480   23.6000   59.1390 O.2    82  U82        -0.2443
   1774  N3        -7.9310   25.6870   59.4530 N.ar   82  U82        -0.1530
   1775  C4        -7.5940   26.9660   59.0610 C.ar   82  U82         0.2846
   1776  O4        -7.1450   27.7430   59.8910 O.2    82  U82        -0.2650
   1777  C5        -7.8340   27.2600   57.6750 C.ar   82  U82         0.0814
   1778  C6        -8.3460   26.3050   56.8890 C.ar   82  U82         0.0870
   1779  OP1      -10.1240   28.3220   51.8750 O.2    82  U82        -0.5172
   1780  OP2       -8.9870   29.4150   53.8830 O.co2  82  U82        -0.4373
   1781  P        -13.5840   25.5490   55.5090 P.3    83  U83         0.2141
   1782  C5'      -13.7320   23.4620   57.1310 C.3    83  U83         0.1812
   1783  O5'      -13.7140   24.8730   56.9540 O.3    83  U83        -0.3114
   1784  C4'      -13.7280   23.1250   58.6140 C.3    83  U83         0.1773
   1785  O4'      -12.4060   23.2700   59.1920 O.3    83  U83        -0.3307
   1786  C3'      -14.5760   24.0450   59.4680 C.3    83  U83         0.1860
   1787  O3'      -15.9230   23.6420   59.3530 O.3    83  U83        -0.3112
   1788  C2'      -13.9990   23.7530   60.8430 C.3    83  U83         0.2309
   1789  O2'      -14.3710   22.4700   61.2890 O.3    83  U83        -0.2156
   1790  C1'      -12.5150   23.7480   60.5230 C.3    83  U83         0.2420
   1791  N1       -11.8820   25.0960   60.6140 N.ar   83  U83        -0.2534
   1792  C2       -11.4190   25.5680   61.8230 C.ar   83  U83         0.3546
   1793  O2       -11.5100   24.9540   62.8650 O.2    83  U83        -0.2443
   1794  N3       -10.8340   26.8080   61.7810 N.ar   83  U83        -0.1530
   1795  C4       -10.6690   27.6070   60.6680 C.ar   83  U83         0.2846
   1796  O4       -10.1330   28.6940   60.7800 O.2    83  U83        -0.2650
   1797  C5       -11.1740   27.0600   59.4410 C.ar   83  U83         0.0814
   1798  C6       -11.7480   25.8510   59.4640 C.ar   83  U83         0.0870
   1799  OP1      -14.7940   25.2480   54.7120 O.2    83  U83        -0.5172
   1800  OP2      -13.1560   26.9470   55.7290 O.co2  83  U83        -0.4373
   1801  P        -17.0950   24.4650   60.0640 P.3    84  U84         0.2141
   1802  C5'      -17.6090   24.6380   62.6060 C.3    84  U84         0.1812
   1803  O5'      -16.8320   24.0510   61.5860 O.3    84  U84        -0.3114
   1804  C4'      -16.8820   24.6040   63.9360 C.3    84  U84         0.1773
   1805  O4'      -15.4520   24.7020   63.7300 O.3    84  U84        -0.3307
   1806  C3'      -17.2200   25.8090   64.7890 C.3    84  U84         0.1860
   1807  O3'      -18.4120   25.5700   65.4960 O.3    84  U84        -0.3112
   1808  C2'      -15.9960   25.9460   65.6790 C.3    84  U84         0.2309
   1809  O2'      -16.0010   25.0390   66.7610 O.3    84  U84        -0.2156
   1810  C1'      -14.8950   25.5950   64.6840 C.3    84  U84         0.2420
   1811  N1       -14.3190   26.7880   63.9790 N.ar   84  U84        -0.2534
   1812  C2       -13.4780   27.6480   64.6710 C.ar   84  U84         0.3546
   1813  O2       -13.1920   27.5130   65.8490 O.2    84  U84        -0.2443
   1814  N3       -12.9840   28.6960   63.9350 N.ar   84  U84        -0.1530
   1815  C4       -13.2430   28.9620   62.6030 C.ar   84  U84         0.2846
   1816  O4       -12.7280   29.9400   62.0710 O.2    84  U84        -0.2650
   1817  C5       -14.1200   28.0190   61.9480 C.ar   84  U84         0.0814
   1818  C6       -14.6150   26.9890   62.6430 C.ar   84  U84         0.0870
   1819  OP1      -18.3620   23.8790   59.5750 O.2    84  U84        -0.5172
   1820  OP2      -16.8710   25.9240   59.9430 O.co2  84  U84        -0.4373
   1821  P        -19.6300   26.5640   65.2180 P.3    85  A85         0.2141
   1822  C5'      -19.2830   27.2830   67.6710 C.3    85  A85         0.1812
   1823  O5'      -19.3600   27.6950   66.3150 O.3    85  A85        -0.3114
   1824  C4'      -18.2630   28.0980   68.4320 C.3    85  A85         0.1773
   1825  O4'      -16.9800   28.0750   67.7640 O.3    85  A85        -0.3307
   1826  C3'      -18.5770   29.5750   68.4630 C.3    85  A85         0.1860
   1827  O3'      -19.6070   29.8140   69.3880 O.3    85  A85        -0.3112
   1828  C2'      -17.2280   30.1310   68.9050 C.3    85  A85         0.2309
   1829  O2'      -16.9710   29.9200   70.2780 O.3    85  A85        -0.2156
   1830  C1'      -16.2840   29.2800   68.0570 C.3    85  A85         0.2408
   1831  N1       -13.5350   33.0860   65.9080 N.ar   85  A85        -0.2040
   1832  C2       -13.7010   32.7170   67.1830 C.ar   85  A85         0.2016
   1833  N3       -14.4320   31.7130   67.6680 N.ar   85  A85        -0.2048
   1834  C4       -15.0400   31.0290   66.6830 C.ar   85  A85         0.1692
   1835  C5       -14.9650   31.2910   65.3280 C.ar   85  A85         0.1518
   1836  C6       -14.1640   32.3860   64.9360 C.ar   85  A85         0.1919
   1837  N6       -13.9960   32.7580   63.6650 N.pl3  85  A85        -0.1054
   1838  N7       -15.7360   30.3890   64.6130 N.ar   85  A85        -0.2193
   1839  C8       -16.2560   29.6120   65.5360 C.ar   85  A85         0.1816
   1840  N9       -15.8770   29.9400   66.8100 N.ar   85  A85        -0.2693
   1841  OP1      -20.8830   25.8560   65.5590 O.3    85  A85        -0.4373
   1842  OP2      -19.4600   27.1510   63.8720 O.co2  85  A85        -0.5172
   1843  P        -20.6950   30.9310   69.0470 P.3    86  C86         0.2141
   1844  C5'      -19.5910   32.4580   70.8270 C.3    86  C86         0.1812
   1845  O5'      -19.9310   32.2730   69.4660 O.3    86  C86        -0.3114
   1846  C4'      -18.5440   33.5430   70.9550 C.3    86  C86         0.1773
   1847  O4'      -17.4200   33.2090   70.1060 O.3    86  C86        -0.3307
   1848  C3'      -18.9890   34.8770   70.3990 C.3    86  C86         0.1860
   1849  O3'      -19.7960   35.5760   71.3260 O.3    86  C86        -0.3112
   1850  C2'      -17.6510   35.5540   70.1540 C.3    86  C86         0.2309
   1851  O2'      -17.0500   35.9920   71.3510 O.3    86  C86        -0.2156
   1852  C1'      -16.8550   34.3930   69.5730 C.3    86  C86         0.2420
   1853  N1       -16.8570   34.3380   68.0700 N.ar   86  C86        -0.2535
   1854  C2       -15.9490   35.1330   67.3490 C.ar   86  C86         0.3532
   1855  O2       -15.1570   35.8700   67.9600 O.2    86  C86        -0.2443
   1856  N3       -15.9520   35.0760   65.9940 N.ar   86  C86        -0.1739
   1857  C4       -16.8060   34.2730   65.3640 C.ar   86  C86         0.1759
   1858  N4       -16.7560   34.2420   64.0280 N.pl3  86  C86        -0.1070
   1859  C5       -17.7330   33.4550   66.0800 C.ar   86  C86         0.0566
   1860  C6       -17.7220   33.5150   67.4150 C.ar   86  C86         0.0850
   1861  OP1      -21.8360   30.7550   69.9720 O.3    86  C86        -0.4373
   1862  OP2      -20.9250   30.9250   67.5820 O.co2  86  C86        -0.5172
   1863  P        -20.9330   36.5290   70.7280 P.3    87  C87         0.2141
   1864  C5'      -19.2670   38.4730   71.1820 C.3    87  C87         0.1812
   1865  O5'      -20.0470   37.7620   70.2240 O.3    87  C87        -0.3114
   1866  C4'      -18.4110   39.5080   70.4840 C.3    87  C87         0.1773
   1867  O4'      -17.5410   38.8220   69.5520 O.3    87  C87        -0.3307
   1868  C3'      -19.1790   40.4360   69.5600 C.3    87  C87         0.1860
   1869  O3'      -19.8090   41.4750   70.2810 O.3    87  C87        -0.3112
   1870  C2'      -18.0340   40.9730   68.7240 C.3    87  C87         0.2309
   1871  O2'      -17.2050   41.8220   69.4930 O.3    87  C87        -0.2156
   1872  C1'      -17.3160   39.6590   68.4330 C.3    87  C87         0.2420
   1873  N1       -17.7490   38.9640   67.1780 N.ar   87  C87        -0.2535
   1874  C2       -17.3590   39.4910   65.9430 C.ar   87  C87         0.3532
   1875  O2       -16.7100   40.5400   65.9250 O.2    87  C87        -0.2443
   1876  N3       -17.7160   38.8540   64.8000 N.ar   87  C87        -0.1739
   1877  C4       -18.4170   37.7240   64.8620 C.ar   87  C87         0.1759
   1878  N4       -18.7340   37.1270   63.7090 N.pl3  87  C87        -0.1070
   1879  C5       -18.8180   37.1580   66.1120 C.ar   87  C87         0.0566
   1880  C6       -18.4570   37.7980   67.2360 C.ar   87  C87         0.0850
   1881  OP1      -21.7920   36.9800   71.8480 O.3    87  C87        -0.4373
   1882  OP2      -21.5510   35.8660   69.5530 O.co2  87  C87        -0.5172
   1883  P        -21.1870   42.0500   69.7120 P.3    88  G88         0.2141
   1884  C5'      -19.8620   44.1720   68.9590 C.3    88  G88         0.1812
   1885  O5'      -20.7010   43.0830   68.5890 O.3    88  G88        -0.3114
   1886  C4'      -19.4430   44.9760   67.7390 C.3    88  G88         0.1773
   1887  O4'      -18.6020   44.1880   66.8520 O.3    88  G88        -0.3307
   1888  C3'      -20.5780   45.4480   66.8440 C.3    88  G88         0.1860
   1889  O3'      -21.1660   46.6210   67.4140 O.3    88  G88        -0.3112
   1890  C2'      -19.8100   45.7540   65.5600 C.3    88  G88         0.2309
   1891  O2'      -19.1220   46.9870   65.6600 O.3    88  G88        -0.2156
   1892  C1'      -18.7970   44.6100   65.5130 C.3    88  G88         0.2408
   1893  N1       -18.9480   42.3230   60.9470 N.ar   88  G88        -0.1709
   1894  C2       -18.4160   43.5380   61.2850 C.ar   88  G88         0.2606
   1895  N2       -17.8480   44.2190   60.2860 N.pl3  88  G88        -0.0859
   1896  N3       -18.4250   44.0440   62.5100 N.ar   88  G88        -0.1918
   1897  C4       -19.0390   43.2150   63.3900 C.ar   88  G88         0.1723
   1898  C5       -19.6050   41.9820   63.1430 C.ar   88  G88         0.1748
   1899  C6       -19.5750   41.4580   61.8310 C.ar   88  G88         0.3023
   1900  O6       -20.0210   40.3860   61.4110 O.2    88  G88        -0.2633
   1901  N7       -20.1360   41.4460   64.3070 N.ar   88  G88        -0.2173
   1902  C8       -19.8850   42.3440   65.2190 C.ar   88  G88         0.1817
   1903  N9       -19.2260   43.4490   64.7380 N.ar   88  G88        -0.2693
   1904  OP1      -21.8170   42.8210   70.8030 O.3    88  G88        -0.4373
   1905  OP2      -21.9120   40.9270   69.0670 O.co2  88  G88        -0.5172
   1906  P        -22.7560   46.8390   67.3780 P.3    89  C89         0.2141
   1907  C5'      -22.1190   48.7150   65.6400 C.3    89  C89         0.1812
   1908  O5'      -22.9730   47.6340   65.9990 O.3    89  C89        -0.3114
   1909  C4'      -22.0140   48.8410   64.1270 C.3    89  C89         0.1773
   1910  O4'      -21.4530   47.6250   63.5650 O.3    89  C89        -0.3307
   1911  C3'      -23.3370   49.0970   63.4100 C.3    89  C89         0.1860
   1912  O3'      -23.2020   50.1410   62.4410 O.3    89  C89        -0.3112
   1913  C2'      -23.6580   47.7500   62.7700 C.3    89  C89         0.2309
   1914  O2'      -24.3930   47.8420   61.5640 O.3    89  C89        -0.2156
   1915  C1'      -22.2700   47.1720   62.5060 C.3    89  C89         0.2420
   1916  N1       -22.3350   45.6870   62.4870 N.ar   89  C89        -0.2535
   1917  C2       -22.0710   44.9930   61.3020 C.ar   89  C89         0.3532
   1918  O2       -21.6820   45.6130   60.3120 O.2    89  C89        -0.2443
   1919  N3       -22.2200   43.6480   61.2800 N.ar   89  C89        -0.1739
   1920  C4       -22.6430   43.0080   62.3710 C.ar   89  C89         0.1759
   1921  N4       -22.7790   41.6830   62.3010 N.pl3  89  C89        -0.1070
   1922  C5       -22.9470   43.6960   63.5820 C.ar   89  C89         0.0566
   1923  C6       -22.7930   45.0240   63.5890 C.ar   89  C89         0.0850
   1924  OP1      -23.1000   47.7320   68.5080 O.3    89  C89        -0.4373
   1925  OP2      -23.4220   45.5200   67.2480 O.co2  89  C89        -0.5172
   1926  P        -23.7260   51.6210   62.7660 P.3    90  A90         0.2141
   1927  C5'      -26.1500   50.6580   62.2060 C.3    90  A90         0.1812
   1928  O5'      -25.1890   51.7100   62.0990 O.3    90  A90        -0.3114
   1929  C4'      -27.5750   51.1910   62.2900 C.3    90  A90         0.1773
   1930  O4'      -28.4360   50.1200   62.7750 O.3    90  A90        -0.3307
   1931  C3'      -27.7720   52.3520   63.2750 C.3    90  A90         0.1860
   1932  O3'      -28.4950   53.5630   62.7980 O.3    90  A90        -0.3112
   1933  C2'      -28.4300   51.6870   64.4850 C.3    90  A90         0.2309
   1934  O2'      -29.2040   52.5910   65.2500 O.3    90  A90        -0.2156
   1935  C1'      -29.3020   50.6730   63.7530 C.3    90  A90         0.2408
   1936  N1       -33.7160   49.1000   65.9370 N.ar   90  A90        -0.2040
   1937  C2       -33.4210   50.1670   65.1830 C.ar   90  A90         0.2016
   1938  N3       -32.2460   50.5120   64.6510 N.ar   90  A90        -0.2048
   1939  C4       -31.2820   49.6180   64.9590 C.ar   90  A90         0.1692
   1940  C5       -31.4350   48.4750   65.7270 C.ar   90  A90         0.1518
   1941  C6       -32.7330   48.2190   66.2370 C.ar   90  A90         0.1919
   1942  N6       -33.0350   47.1600   66.9990 N.pl3  90  A90        -0.1054
   1943  N7       -30.2240   47.7980   65.8350 N.ar   90  A90        -0.2193
   1944  C8       -29.3800   48.5320   65.1420 C.ar   90  A90         0.1816
   1945  N9       -29.9500   49.6320   64.5960 N.ar   90  A90        -0.2693
   1946  OP1      -22.8340   52.5570   62.0470 O.2    90  A90        -0.5172
   1947  OP2      -23.8680   51.7470   64.2340 O.co2  90  A90        -0.4373
   1948  P        -29.6710   53.6100   61.6650 P.3    91  U91         0.2141
   1949  C5'      -30.3990   55.3430   63.5190 C.3    91  U91         0.1812
   1950  O5'      -30.5670   54.8310   62.1990 O.3    91  U91        -0.3114
   1951  C4'      -30.0290   56.8190   63.5230 C.3    91  U91         0.1773
   1952  O4'      -28.5910   56.9610   63.6660 O.3    91  U91        -0.3307
   1953  C3'      -30.3910   57.6140   62.2750 C.3    91  U91         0.1860
   1954  O3'      -31.7170   58.1370   62.3810 O.3    91  U91        -0.3112
   1955  C2'      -29.3370   58.7210   62.2670 C.3    91  U91         0.2309
   1956  O2'      -29.7220   59.8730   62.9850 O.3    91  U91        -0.2156
   1957  C1'      -28.1220   58.0710   62.9220 C.3    91  U91         0.2420
   1958  N1       -27.1290   57.5930   61.9130 N.ar   91  U91        -0.2534
   1959  C2       -26.3490   58.5090   61.2300 C.ar   91  U91         0.3546
   1960  O2       -26.3960   59.7120   61.4250 O.2    91  U91        -0.2443
   1961  N3       -25.4920   57.9620   60.3020 N.ar   91  U91        -0.1530
   1962  C4       -25.3470   56.6200   59.9870 C.ar   91  U91         0.2846
   1963  O4       -24.5400   56.2770   59.1280 O.2    91  U91        -0.2650
   1964  C5       -26.2000   55.7280   60.7330 C.ar   91  U91         0.0814
   1965  C6       -27.0410   56.2390   61.6420 C.ar   91  U91         0.0870
   1966  OP1      -30.4960   52.3790   61.6790 O.3    91  U91        -0.4373
   1967  OP2      -29.0590   54.0530   60.3880 O.co2  91  U91        -0.5172
   1968  P        -32.6220   58.3940   61.0770 P.3    92  C92         0.2141
   1969  C5'      -31.7620   60.7870   60.5740 C.3    92  C92         0.1812
   1970  O5'      -31.7330   59.4140   60.2220 O.3    92  C92        -0.3114
   1971  C4'      -30.9050   61.6330   59.6530 C.3    92  C92         0.1773
   1972  O4'      -29.5020   61.2780   59.7720 O.3    92  C92        -0.3307
   1973  C3'      -31.2080   61.5200   58.1650 C.3    92  C92         0.1860
   1974  O3'      -32.3240   62.3300   57.8380 O.3    92  C92        -0.3112
   1975  C2'      -29.9110   62.0820   57.5930 C.3    92  C92         0.2309
   1976  O2'      -29.8100   63.4850   57.7390 O.3    92  C92        -0.2156
   1977  C1'      -28.8910   61.3910   58.4960 C.3    92  C92         0.2420
   1978  N1       -28.5020   60.0230   58.0100 N.ar   92  C92        -0.2535
   1979  C2       -27.6700   59.8910   56.8890 C.ar   92  C92         0.3532
   1980  O2       -27.2590   60.9040   56.3150 O.2    92  C92        -0.2443
   1981  N3       -27.3240   58.6510   56.4640 N.ar   92  C92        -0.1739
   1982  C4       -27.7780   57.5760   57.1100 C.ar   92  C92         0.1759
   1983  N4       -27.4140   56.3770   56.6490 N.pl3  92  C92        -0.1070
   1984  C5       -28.6390   57.6820   58.2430 C.ar   92  C92         0.0566
   1985  C6       -28.9700   58.9110   58.6540 C.ar   92  C92         0.0850
   1986  OP1      -33.8480   59.1090   61.4940 O.3    92  C92        -0.4373
   1987  OP2      -32.7660   57.1150   60.3420 O.co2  92  C92        -0.5172
   1988  P        -33.4580   61.8340   56.8200 P.3    93  U93         0.2141
   1989  C5'      -32.2330   63.0130   54.8200 C.3    93  U93         0.1812
   1990  O5'      -32.7000   61.8040   55.4070 O.3    93  U93        -0.3114
   1991  C4'      -31.3200   62.7420   53.6380 C.3    93  U93         0.1773
   1992  O4'      -30.0880   62.1340   54.1070 O.3    93  U93        -0.3307
   1993  C3'      -31.8450   61.7630   52.6000 C.3    93  U93         0.1860
   1994  O3'      -32.6980   62.4020   51.6670 O.3    93  U93        -0.3112
   1995  C2'      -30.5380   61.3220   51.9520 C.3    93  U93         0.2309
   1996  O2'      -30.0050   62.2910   51.0750 O.3    93  U93        -0.2156
   1997  C1'      -29.6350   61.1670   53.1730 C.3    93  U93         0.2420
   1998  N1       -29.6790   59.7740   53.7590 N.ar   93  U93        -0.2534
   1999  C2       -28.9300   58.7770   53.1660 C.ar   93  U93         0.3546
   2000  O2       -28.1990   58.9770   52.2190 O.2    93  U93        -0.2443
   2001  N3       -29.0470   57.5310   53.7330 N.ar   93  U93        -0.1530
   2002  C4       -29.8460   57.1770   54.8070 C.ar   93  U93         0.2846
   2003  O4       -29.8540   56.0150   55.2100 O.2    93  U93        -0.2650
   2004  C5       -30.6080   58.2670   55.3690 C.ar   93  U93         0.0814
   2005  C6       -30.4980   59.4920   54.8370 C.ar   93  U93         0.0870
   2006  OP1      -34.4770   62.9060   56.7850 O.2    93  U93        -0.5172
   2007  OP2      -33.8850   60.4570   57.1600 O.co2  93  U93        -0.4373
   2008  P        -33.9510   61.6150   51.0420 P.3    94  C94         0.2141
   2009  C5'      -32.8880   61.3810   48.6620 C.3    94  C94         0.1812
   2010  O5'      -33.2820   60.7490   49.8760 O.3    94  C94        -0.3114
   2011  C4'      -32.1870   60.4010   47.7450 C.3    94  C94         0.1773
   2012  O4'      -31.0150   59.8850   48.4240 O.3    94  C94        -0.3307
   2013  C3'      -32.9700   59.1420   47.4250 C.3    94  C94         0.1860
   2014  O3'      -33.9080   59.3550   46.3910 O.3    94  C94        -0.3112
   2015  C2'      -31.8360   58.2480   46.9680 C.3    94  C94         0.2309
   2016  O2'      -31.3410   58.6760   45.7160 O.3    94  C94        -0.2156
   2017  C1'      -30.8200   58.5320   48.0650 C.3    94  C94         0.2420
   2018  N1       -30.9640   57.6640   49.2760 N.ar   94  C94        -0.2535
   2019  C2       -30.4700   56.3500   49.2490 C.ar   94  C94         0.3532
   2020  O2       -29.9350   55.9230   48.2180 O.2    94  C94        -0.2443
   2021  N3       -30.5930   55.5610   50.3480 N.ar   94  C94        -0.1739
   2022  C4       -31.1590   56.0470   51.4500 C.ar   94  C94         0.1759
   2023  N4       -31.2260   55.2400   52.5140 N.pl3  94  C94        -0.1070
   2024  C5       -31.6510   57.3910   51.5070 C.ar   94  C94         0.0566
   2025  C6       -31.5330   58.1560   50.4140 C.ar   94  C94         0.0850
   2026  OP1      -34.8470   62.6070   50.4030 O.2    94  C94        -0.5172
   2027  OP2      -34.4920   60.6850   52.0570 O.co2  94  C94        -0.4373
   2028  P        -35.4580   59.2630   46.7580 P.3    95  G95         0.2141
   2029  C5'      -35.8170   57.8180   44.5980 C.3    95  G95         0.1812
   2030  O5'      -36.0450   58.0010   45.9750 O.3    95  G95        -0.3114
   2031  C4'      -34.7990   56.7130   44.3670 C.3    95  G95         0.1773
   2032  O4'      -33.8600   56.6600   45.4690 O.3    95  G95        -0.3307
   2033  C3'      -35.3290   55.2920   44.3160 C.3    95  G95         0.1860
   2034  O3'      -35.9260   55.0110   43.0570 O.3    95  G95        -0.3112
   2035  C2'      -34.0140   54.5400   44.4590 C.3    95  G95         0.2309
   2036  O2'      -33.2620   54.6270   43.2700 O.3    95  G95        -0.2156
   2037  C1'      -33.3020   55.3590   45.5290 C.3    95  G95         0.2408
   2038  N1       -31.9960   51.5680   48.7340 N.ar   95  G95        -0.1709
   2039  C2       -31.7980   51.6720   47.3800 C.ar   95  G95         0.2606
   2040  N2       -31.1620   50.6400   46.8090 N.pl3  95  G95        -0.0859
   2041  N3       -32.1720   52.7140   46.6440 N.ar   95  G95        -0.1918
   2042  C4       -32.8080   53.6610   47.3810 C.ar   95  G95         0.1723
   2043  C5       -33.0670   53.6420   48.7390 C.ar   95  G95         0.1748
   2044  C6       -32.6360   52.5250   49.5170 C.ar   95  G95         0.3023
   2045  O6       -32.7730   52.3070   50.7320 O.2    95  G95        -0.2633
   2046  N7       -33.7380   54.8030   49.1140 N.ar   95  G95        -0.2173
   2047  C8       -33.8780   55.4770   48.0040 C.ar   95  G95         0.1817
   2048  N9       -33.3570   54.8390   46.9030 N.ar   95  G95        -0.2693
   2049  OP1      -36.0910   60.4960   46.2410 O.2    95  G95        -0.5172
   2050  OP2      -35.5420   58.9160   48.1960 O.co2  95  G95        -0.4373
   2051  P        -37.0480   53.8660   42.9390 P.3    96  C96         0.2141
   2052  C5'      -35.4590   51.9840   42.0390 C.3    96  C96         0.1812
   2053  O5'      -36.2390   52.4980   43.1040 O.3    96  C96        -0.3114
   2054  C4'      -34.8050   50.7000   42.4990 C.3    96  C96         0.1773
   2055  O4'      -34.0530   50.9700   43.7060 O.3    96  C96        -0.3307
   2056  C3'      -35.7780   49.6300   42.9650 C.3    96  C96         0.1860
   2057  O3'      -36.3480   48.9410   41.8610 O.3    96  C96        -0.3112
   2058  C2'      -34.8460   48.7390   43.7750 C.3    96  C96         0.2309
   2059  O2'      -33.9880   47.9710   42.9540 O.3    96  C96        -0.2156
   2060  C1'      -34.0170   49.7910   44.4920 C.3    96  C96         0.2420
   2061  N1       -34.4560   50.1040   45.8700 N.ar   96  C96        -0.2535
   2062  C2       -34.1240   49.2280   46.9090 C.ar   96  C96         0.3532
   2063  O2       -33.5350   48.1770   46.6360 O.2    96  C96        -0.2443
   2064  N3       -34.4700   49.5500   48.1820 N.ar   96  C96        -0.1739
   2065  C4       -35.1230   50.6910   48.4160 C.ar   96  C96         0.1759
   2066  N4       -35.4510   50.9730   49.6760 N.pl3  96  C96        -0.1070
   2067  C5       -35.4690   51.5990   47.3740 C.ar   96  C96         0.0566
   2068  C6       -35.1110   51.2720   46.1270 C.ar   96  C96         0.0850
   2069  OP1      -37.5620   53.8760   41.5560 O.2    96  C96        -0.5172
   2070  OP2      -37.9690   54.0190   44.0890 O.co2  96  C96        -0.4373
   2071  P        -37.8410   48.3680   41.9700 P.3    97  U97         0.2141
   2072  C5'      -36.9640   45.9770   42.6110 C.3    97  U97         0.1812
   2073  O5'      -37.6960   47.1420   42.9960 O.3    97  U97        -0.3114
   2074  C4'      -36.9020   44.9680   43.7440 C.3    97  U97         0.1773
   2075  O4'      -36.0760   45.4720   44.8260 O.3    97  U97        -0.3307
   2076  C3'      -38.2290   44.6820   44.4250 C.3    97  U97         0.1860
   2077  O3'      -39.0000   43.7750   43.6520 O.3    97  U97        -0.3112
   2078  C2'      -37.7510   44.0880   45.7490 C.3    97  U97         0.2309
   2079  O2'      -37.2520   42.7680   45.6380 O.3    97  U97        -0.2156
   2080  C1'      -36.6030   45.0340   46.0680 C.3    97  U97         0.2420
   2081  N1       -37.0280   46.2120   46.8650 N.ar   97  U97        -0.2534
   2082  C2       -37.1380   46.0790   48.2330 C.ar   97  U97         0.3546
   2083  O2       -36.9180   45.0370   48.8210 O.2    97  U97        -0.2443
   2084  N3       -37.5070   47.2180   48.9000 N.ar   97  U97        -0.1530
   2085  C4       -37.7930   48.4460   48.3410 C.ar   97  U97         0.2846
   2086  O4       -38.1220   49.3720   49.0700 O.2    97  U97        -0.2650
   2087  C5       -37.6640   48.5090   46.9080 C.ar   97  U97         0.0814
   2088  C6       -37.2970   47.4110   46.2370 C.ar   97  U97         0.0870
   2089  OP1      -38.1810   47.8170   40.6360 O.2    97  U97        -0.5172
   2090  OP2      -38.6940   49.4060   42.5970 O.co2  97  U97        -0.4373
   2091  P        -40.6010   43.8350   43.7060 P.3    98  G98         0.2141
   2092  C5'      -41.0010   42.1130   45.6360 C.3    98  G98         0.1812
   2093  O5'      -40.9620   43.4850   45.2330 O.3    98  G98        -0.3114
   2094  C4'      -41.0040   41.9330   47.1450 C.3    98  G98         0.1773
   2095  O4'      -40.0450   42.8180   47.7740 O.3    98  G98        -0.3307
   2096  C3'      -42.3080   42.2720   47.8550 C.3    98  G98         0.1860
   2097  O3'      -43.2810   41.2360   47.7160 O.3    98  G98        -0.3112
   2098  C2'      -41.8220   42.4200   49.2940 C.3    98  G98         0.2309
   2099  O2'      -41.5970   41.1800   49.9400 O.3    98  G98        -0.2156
   2100  C1'      -40.5060   43.1570   49.0710 C.3    98  G98         0.2408
   2101  N1       -40.9490   47.2280   52.0820 N.ar   98  G98        -0.1709
   2102  C2       -40.8380   45.8990   52.4240 C.ar   98  G98         0.2606
   2103  N2       -40.8280   45.6180   53.7360 N.pl3  98  G98        -0.0859
   2104  N3       -40.7220   44.9130   51.5430 N.ar   98  G98        -0.1918
   2105  C4       -40.7510   45.3730   50.2710 C.ar   98  G98         0.1723
   2106  C5       -40.8740   46.6710   49.8280 C.ar   98  G98         0.1748
   2107  C6       -40.9790   47.7190   50.7760 C.ar   98  G98         0.3023
   2108  O6       -41.0920   48.9380   50.5670 O.2    98  G98        -0.2633
   2109  N7       -40.8670   46.7200   48.4400 N.ar   98  G98        -0.2173
   2110  C8       -40.7400   45.4730   48.0750 C.ar   98  G98         0.1817
   2111  N9       -40.6580   44.6030   49.1350 N.ar   98  G98        -0.2693
   2112  OP1      -41.0640   42.7180   42.8500 O.2    98  G98        -0.5172
   2113  OP2      -41.0390   45.2220   43.4260 O.co2  98  G98        -0.4373
   2114  P        -44.8360   41.6190   47.7530 P.3    99  U99         0.2141
   2115  C5'      -45.0950   40.9510   50.2700 C.3    99  U99         0.1812
   2116  O5'      -45.0800   41.9840   49.2950 O.3    99  U99        -0.3114
   2117  C4'      -45.0600   41.5240   51.6740 C.3    99  U99         0.1773
   2118  O4'      -43.9410   42.4370   51.8230 O.3    99  U99        -0.3307
   2119  C3'      -46.2330   42.4090   52.0610 C.3    99  U99         0.1860
   2120  O3'      -47.4320   41.6830   52.3000 O.3    99  U99        -0.3112
   2121  C2'      -45.6500   43.0520   53.3140 C.3    99  U99         0.2309
   2122  O2'      -45.4720   42.1400   54.3820 O.3    99  U99        -0.2156
   2123  C1'      -44.3000   43.4640   52.7370 C.3    99  U99         0.2420
   2124  N1       -44.3710   44.7780   52.0180 N.ar   99  U99        -0.2534
   2125  C2       -44.3920   45.9470   52.7560 C.ar   99  U99         0.3546
   2126  O2       -44.3340   45.9700   53.9750 O.2    99  U99        -0.2443
   2127  N3       -44.4720   47.1010   52.0110 N.ar   99  U99        -0.1530
   2128  C4       -44.5380   47.2030   50.6300 C.ar   99  U99         0.2846
   2129  O4       -44.6020   48.3100   50.1010 O.2    99  U99        -0.2650
   2130  C5       -44.5240   45.9410   49.9300 C.ar   99  U99         0.0814
   2131  C6       -44.4480   44.8040   50.6350 C.ar   99  U99         0.0870
   2132  OP1      -45.5970   40.3970   47.4110 O.3    99  U99        -0.4373
   2133  OP2      -45.0310   42.8530   46.9550 O.co2  99  U99        -0.5172
   2134  P        -48.8370   42.4510   52.2090 P.3   100  U100        0.2141
   2135  C5'      -49.7880   44.0160   54.0750 C.3   100  U100        0.1813
   2136  O5'      -49.1200   42.8080   53.7420 O.3   100  U100       -0.3114
   2137  C4'      -49.0910   44.7140   55.2280 C.3   100  U100        0.1801
   2138  O4'      -47.8160   45.2380   54.7690 O.3   100  U100       -0.3306
   2139  C3'      -49.8420   45.9200   55.7810 C.3   100  U100        0.2161
   2140  O3'      -50.7270   45.5360   56.8350 O.3   100  U100       -0.2175
   2141  C2'      -48.6990   46.8030   56.2710 C.3   100  U100        0.2338
   2142  O2'      -48.1470   46.3540   57.4940 O.3   100  U100       -0.2155
   2143  C1'      -47.6950   46.5990   55.1410 C.3   100  U100        0.2421
   2144  N1       -47.9230   47.4690   53.9330 N.ar  100  U100       -0.2534
   2145  C2       -48.0900   48.8340   54.0860 C.ar  100  U100        0.3546
   2146  O2       -48.0820   49.3980   55.1660 O.2   100  U100       -0.2443
   2147  N3       -48.2770   49.5300   52.9150 N.ar  100  U100       -0.1530
   2148  C4       -48.3080   49.0140   51.6310 C.ar  100  U100        0.2846
   2149  O4       -48.4860   49.7660   50.6770 O.2   100  U100       -0.2650
   2150  C5       -48.1220   47.5880   51.5480 C.ar  100  U100        0.0814
   2151  C6       -47.9370   46.8890   52.6760 C.ar  100  U100        0.0870
   2152  OP1      -49.8510   41.4780   51.7440 O.3   100  U100       -0.4373
   2153  OP2      -48.6470   43.7230   51.4710 O.co2 100  U100       -0.5172
@<TRIPOS>BOND
     1    87    69    2
     2   109    89    2
     3    70    72    1
     4    70    71    1
     5    75    89    1
     6    75    74    1
     7    72    74    1
     8    72    73    1
     9    89   110    1
    10    89    91    1
    11    53    69    1
    12    53    52    1
    13    69    71    1
    14    69    88    1
    15    55    54    1
    16    77    76    1
    17    74    76    1
    18   132   111    2
    19    90    91    1
    20    90    92    1
    21    73    78    1
    22   173   172    2
    23    50    52    1
    24    50    48    1
    25    50    51    1
    26    52    54    1
    27    76    78    1
    28    54    56    1
    29  2089  2071    2
    30    48    49    1
    31   166   172   ar
    32   166   167   ar
    33    78    79    1
    34   172   171   ar
    35    51    56    1
    36   111   133    1
    37   111    95    1
    38   111   113    1
    39    92    94    1
    40    92    93    1
    41   168   167    1
    42    95    94    1
    43    56    66    1
    44  2069  2051    2
    45   167   169   ar
    46    67    47    2
    47  2057  2071    1
    48  2057  2056    1
    49  2071  2090    1
    50  2071  2073    1
    51    94    96    1
    52  2052  2054    1
    53  2052  2053    1
    54    49    47    1
    55    32    31    1
    56    93    98    1
    57    79    86   ar
    58    79    80   ar
    59   171   174   ar
    60   171   170   ar
    61    86    85   ar
    62  2054  2056    1
    63  2054  2055    1
    64   113   112    1
    65  2072  2073    1
    66  2072  2074    1
    67    47    30    1
    68    47    68    1
    69    30    29    1
    70  2112  2091    2
    71    66    60   ar
    72    66    65   ar
    73  2051  2034    1
    74  2051  2053    1
    75  2051  2070    1
    76  2059  2058    1
    77  2056  2058    1
    78   112   114    1
    79  2034  2033    1
    80   169   170   ar
    81   174   175   ar
    82   155   134    2
    83    59    60   ar
    84    59    58   ar
    85  2036  2035    1
    86    81    80    2
    87   170   176   ar
    88    97    96    1
    89    96    98    1
    90  2113  2091    1
    91    80    82   ar
    92    31    29    1
    93    31    33    1
    94    98   108    1
    95   107   108   ar
    96   107   106   ar
    97    60    61   ar
    98  2077  2091    1
    99  2077  2076    1
   100    85    83   ar
   101  2055  2060    1
   102  2091  2093    1
   103  2074  2076    1
   104  2074  2075    1
   105    65    64   ar
   106  2058  2060    1
   107   154   134    1
   108    29    27    1
   109    36    35    1
   110   108   102   ar
   111   134   117    1
   112   134   136    1
   113    58    57   ar
   114  2033  2031    1
   115  2033  2035    1
   116   175   176   ar
   117  2031  2029    1
   118  2031  2032    1
   119    27    28    1
   120    27    25    1
   121   106   103   ar
   122  2076  2078    1
   123   114   116    1
   124   114   115    1
   125  2035  2037    1
   126  2060  2061    1
   127   176   165    1
   128    33    28    1
   129    33    44    1
   130  2029  2030    1
   131    82    83   ar
   132    37    35   ar
   133    37    38   ar
   134    83    84    1
   135   117   116    1
   136  2075  2080    1
   137    61    64   ar
   138    61    62   ar
   139   116   118    1
   140    35    34   ar
   141   904   903    1
   142   115   120    1
   143  2093  2092    1
   144    25    26    1
   145   130   129   ar
   146   130   131   ar
   147  2032  2037    1
   148    57    62   ar
   149   102   103   ar
   150   102   101   ar
   151  2037  2048    1
   152   136   135    1
   153   783   762    2
   154  2092  2094    1
   155  2079  2078    1
   156   103   104   ar
   157  2016  2015    1
   158    44    38   ar
   159    44    43   ar
   160   129   126   ar
   161  2078  2080    1
   162    38    39   ar
   163   165   160    1
   164   165   163    1
   165  2061  2068   ar
   166  2061  2062   ar
   167    62    63    1
   168   899   900    1
   169   899   897    1
   170   899   901    1
   171  2030  2028    1
   172  2080  2081    1
   173   160   159    1
   174  2068  2067   ar
   175   900   905    1
   176  2088  2081   ar
   177  2088  2087   ar
   178  2049  2028    2
   179   902   901    1
   180   902   919    1
   181    34    40   ar
   182   897   898    1
   183  2014  2028    1
   184  2014  2013    1
   185   120   118    1
   186   120   131    1
   187   118   119    1
   188   131   125   ar
   189   151   152   ar
   190   151   148   ar
   191   903   905    1
   192   903   901    1
   193   881   880    1
   194   152   153   ar
   195   101   100   ar
   196   905   916    1
   197   940   919    2
   198    26    24    1
   199  2063  2062    2
   200  2041  2039   ar
   201  2041  2042   ar
   202   745   762    1
   203   745   744    1
   204   135   137    1
   205  2028  2050    1
   206  2040  2039    1
   207   762   764    1
   208   762   784    1
   209  2081  2082   ar
   210  2048  2042   ar
   211  2048  2047   ar
   212  2087  2085   ar
   213  2062  2064   ar
   214   747   746    1
   215   104   105    1
   216   104    99   ar
   217  2133  2114    2
   218  2015  2013    1
   219  2015  2017    1
   220   920   922    1
   221   920   921    1
   222   163   164    1
   223   163   161    1
   224    43    42   ar
   225    39    40   ar
   226    39    42   ar
   227   126   125   ar
   228   126   127   ar
   229   742   740    1
   230   742   744    1
   231   742   743    1
   232  2094  2095    1
   233  2094  2096    1
   234   740   741    1
   235   764   763    1
   236   141   142    1
   237   141   139    1
   238   141   143    1
   239   919   921    1
   240   919   941    1
   241  2067  2065   ar
   242  2039  2038   ar
   243  2042  2043   ar
   244  2132  2114    1
   245  2013  2011    1
   246    40    41    2
   247   159   157    1
   248   159   161    1
   249   760   739    2
   250   885   884    1
   251   157   158    1
   252   125   124   ar
   253   139   137    1
   254   139   140    1
   255   744   746    1
   256   100    99   ar
   257   150   149    1
   258  2097  2114    1
   259  2097  2096    1
   260  2011  2012    1
   261  2011  2009    1
   262   898   896    1
   263  2114  2116    1
   264  2095  2100    1
   265   917   896    2
   266   148   149   ar
   267   148   147   ar
   268   922   923    1
   269   922   924    1
   270  1138  1137    1
   271   153   143    1
   272   153   147   ar
   273   880   882    1
   274   880   878    1
   275  2096  2098    1
   276   137   138    1
   277   128   127    2
   278   879   896    1
   279   879   878    1
   280   178   156    2
   281   916   910   ar
   282   916   915   ar
   283    24    45    2
   284    24    46    1
   285    24     7    1
   286  2047  2046   ar
   287   746   748    1
   288  2017  2012    1
   289  2017  2018    1
   290   743   748    1
   291  2110  2109   ar
   292  2110  2111   ar
   293   138   143    1
   294   127   121   ar
   295   763   765    1
   296   725   724    1
   297   161   162    1
   298  2064  2065   ar
   299   806   785    2
   300   909   910   ar
   301   909   907   ar
   302    13    12    1
   303  2020  2019    2
   304  2082  2083    2
   305  2082  2084   ar
   306   923   928    1
   307  2085  2084   ar
   308  2085  2086    2
   309   765   766    1
   310   765   767    1
   311   886   884   ar
   312   886   887   ar
   313   149   144   ar
   314   896   918    1
   315  2065  2066    1
   316  2109  2106   ar
   317   741   739    1
   318   162   179    1
   319   768   785    1
   320   768   767    1
   321   884   883   ar
   322   147   146   ar
   323   882   877    1
   324   882   893    1
   325   748   759    1
   326  2009  2010    1
   327   878   876    1
   328   910   911   ar
   329   739   723    1
   330   739   761    1
   331  1170  1150    2
   332  2038  2044   ar
   333  2043  2046   ar
   334  2043  2044   ar
   335   925   924    1
   336   925   942    1
   337     9     8    1
   338  1133  1131    1
   339  1133  1134    1
   340  1133  1135    1
   341   908   907    1
   342   140   156    1
   343  1151  1153    1
   344  1151  1152    1
   345   723   722    1
   346   158   156    1
   347   915   914   ar
   348   770   769    1
   349   124   122   ar
   350  1136  1135    1
   351  1136  1150    1
   352   766   771    1
   353   156   177    1
   354   924   926    1
   355  2100  2111    1
   356  2100  2098    1
   357   927   926    1
   358     7     6    1
   359   907   906   ar
   360  2111  2105   ar
   361  1137  1135    1
   362  1137  1139    1
   363  1153  1154    1
   364  1153  1155    1
   365  1131  1132    1
   366   785   807    1
   367   785   787    1
   368  1134  1139    1
   369   876   877    1
   370   876   874    1
   371    12    14   ar
   372    12    11   ar
   373  2019  2018   ar
   374  2019  2021   ar
   375  2018  2025   ar
   376   767   769    1
   377  2098  2099    1
   378  2116  2115    1
   379   962   942    2
   380   121   122   ar
   381   724   722    1
   382   724   726    1
   383  1139  1140    1
   384     8     6    1
   385     8    10    1
   386  2044  2045    2
   387   887   893   ar
   388   887   888   ar
   389   928   926    1
   390   928   939    1
   391    14    15   ar
   392  1118  1117    1
   393   893   892   ar
   394  1154  1159    1
   395  1150  1152    1
   396  1150  1171    1
   397   144   145   ar
   398   122   123    1
   399   883   889   ar
   400  1156  1155    1
   401  1156  1172    1
   402   769   771    1
   403   786   787    1
   404   786   788    1
   405  2106  2105   ar
   406  2106  2107   ar
   407   722   720    1
   408  1193  1172    2
   409    11    17   ar
   410  2010  2008    1
   411   720   721    1
   412   720   718    1
   413  1158  1157    1
   414  2130  2128   ar
   415  2130  2131   ar
   416   942   944    1
   417   942   963    1
   418   911   914   ar
   419   911   912   ar
   420   146   145   ar
   421     6     4    1
   422   179   197    2
   423   179   181    1
   424   179   198    1
   425   771   782    1
   426  2129  2128    2
   427   759   758   ar
   428   759   753   ar
   429   180   181    1
   430   180   182    1
   431  2115  2117    1
   432  2105  2104   ar
   433  1155  1157    1
   434  2021  2022   ar
   435   726   721    1
   436   726   736    1
   437   906   912   ar
   438   183   182    1
   439   183   188    1
   440  2026  2008    2
   441  2025  2024   ar
   442  1142  1141    2
   443  2108  2107    2
   444   874   875    1
   445  1132  1130    1
   446   939   938   ar
   447   939   933   ar
   448    15    21   ar
   449    15    16   ar
   450  2128  2127   ar
   451  1159  1157    1
   452  1159  1169    1
   453  2131  2124   ar
   454   938   937   ar
   455   944   943    1
   456   718   719    1
   457  2149  2148    2
   458   752   753   ar
   459   752   750   ar
   460  1172  1194    1
   461  1172  1174    1
   462  1148  1130    2
   463   888   889   ar
   464   888   891   ar
   465   182   184    1
   466  2107  2101   ar
   467    10    21    1
   468    10     5    1
   469   758   757   ar
   470   195   196   ar
   471   195   193   ar
   472   912   913    2
   473   196   189   ar
   474   889   890    2
   475  1117  1119    1
   476  1117  1115    1
   477  1140  1141   ar
   478  1140  1147   ar
   479    17    16   ar
   480    17    18    2
   481   892   891   ar
   482   753   754   ar
   483  2008  1994    1
   484  2008  2027    1
   485   788   789    1
   486   788   790    1
   487   729   728   ar
   488   729   730   ar
   489  1996  1995    1
   490  1173  1174    1
   491  1173  1175    1
   492  1116  1130    1
   493  1116  1115    1
   494    21    20   ar
   495  1122  1121    2
   496   194   193    2
   497   193   192   ar
   498     4     5    1
   499     4     2    1
   500    16    19   ar
   501   782   781   ar
   502   782   776   ar
   503  1141  1143   ar
   504  1130  1149    1
   505   189   188    1
   506   189   190   ar
   507  2022  2024   ar
   508  2022  2023    1
   509  2153  2134    2
   510  1119  1114    1
   511  1119  1120    1
   512   828   808    2
   513   706   705    1
   514   791   790    1
   515   791   808    1
   516   781   780   ar
   517  2104  2102   ar
   518  2150  2148   ar
   519  2150  2151   ar
   520   188   186    1
   521   875   873    1
   522  2148  2147   ar
   523   751   750    1
   524  1994  1993    1
   525  2117  2118    1
   526  2117  2119    1
   527   736   730   ar
   528   736   735   ar
   529   728   727   ar
   530   937   934   ar
   531  2152  2134    1
   532   750   749   ar
   533   933   932   ar
   534   933   934   ar
   535  1115  1113    1
   536   943   945    1
   537   192   190   ar
   538  2118  2123    1
   539  1147  1146   ar
   540  1113  1114    1
   541  1113  1111    1
   542  1779  1761    2
   543   789   794    1
   544   702   701    1
   545   829   808    1
   546  1169  1168   ar
   547  1169  1163   ar
   548   190   191    2
   549   730   731   ar
   550   200   202    1
   551   200   201    1
   552   719   717    1
   553  1995  1993    1
   554  1995  1997    1
   555  2127  2125   ar
   556  2124  2123    1
   557  2124  2125   ar
   558   790   792    1
   559   202   203    1
   560   202   204    1
   561  2119  2120    1
   562  2119  2121    1
   563   808   810    1
   564  2101  2102   ar
   565   757   754   ar
   566   203   208    1
   567   932   930   ar
   568  1175  1176    1
   569  1175  1177    1
   570    20    19   ar
   571  2134  2120    1
   572  2134  2136    1
   573  2000  1999    2
   574   754   755   ar
   575  1739  1741    1
   576  1739  1740    1
   577   737   717    2
   578  1484  1483    1
   579   184   186    1
   580   184   185    1
   581  1168  1167   ar
   582  1121  1120   ar
   583  1121  1123   ar
   584     2     3    1
   585   219   199    2
   586  1744  1761    1
   587  1744  1743    1
   588  1741  1742    1
   589  1741  1743    1
   590  1726  1725    1
   591  2102  2103    1
   592   946   945    1
   593   946   951    1
   594   934   935   ar
   595   945   947    1
   596  1176  1181    1
   597  1746  1745    1
   598   207   206    1
   599  1993  1991    1
   600  1120  1127   ar
   601   776   775   ar
   602   776   777   ar
   603   186   187    1
   604  1759  1738    2
   605  2151  2144   ar
   606   705   707   ar
   607   705   704   ar
   608  1143  1144   ar
   609  2123  2121    1
   610  2125  2126    2
   611   780   777   ar
   612   185   199    1
   613   735   734   ar
   614   707   708   ar
   615  2147  2145   ar
   616   775   773   ar
   617   894   873    2
   618   727   732   ar
   619   717   700    1
   620   717   738    1
   621  1111  1112    1
   622  1163  1162   ar
   623  1163  1164   ar
   624  1761  1780    1
   625  1761  1763    1
   626   701   703    1
   627   701   699    1
   628   873   895    1
   629   873   856    1
   630   749   755   ar
   631     3     1    1
   632   793   792    1
   633  1162  1161   ar
   634   205   204    1
   635   205   221    1
   636   208   206    1
   637   208   218    1
   638  1146  1144   ar
   639  1999  2001   ar
   640  1999  1998   ar
   641  1997  1998    1
   642  1997  1992    1
   643  1742  1747    1
   644  1724  1738    1
   645  1724  1723    1
   646   794   792    1
   647   794   805    1
   648  1743  1745    1
   649   201   199    1
   650   731   732   ar
   651   731   734   ar
   652   204   206    1
   653  1762  1763    1
   654  1762  1764    1
   655  2121  2122    1
   656   700   699    1
   657   199   220    1
   658   930   931    1
   659   930   929   ar
   660   755   756    2
   661   457   439    2
   662  1123  1124   ar
   663   777   778   ar
   664  1740  1738    1
   665  1167  1164   ar
   666  1177  1178    1
   667  1177  1179    1
   668  1488  1487   ar
   669  1488  1489   ar
   670  1178  1195    1
   671   424   423    1
   672  1102  1101    2
   673  1144  1145    1
   674   404   403    1
   675   804   805   ar
   676   804   803   ar
   677  1483  1485    1
   678  1483  1481    1
   679  1991  1992    1
   680  1991  1989    1
   681   704   710   ar
   682  1745  1747    1
   683  1738  1760    1
   684   810   809    1
   685  1721  1723    1
   686  1721  1719    1
   687  1721  1722    1
   688   951   961    1
   689   951   949    1
   690  1487  1486   ar
   691  2001  2002   ar
   692  2136  2135    1
   693  1998  2005   ar
   694   935   929   ar
   695   935   936    2
   696   856   855    1
   697  1725  1723    1
   698  1725  1727    1
   699   732   733    1
   700  1098  1097    1
   701   440   442    1
   702   440   441    1
   703  1181  1179    1
   704  1181  1192    1
   705   960   961   ar
   706   960   959   ar
   707   703   714    1
   708   703   698    1
   709  1127  1126   ar
   710  2144  2145   ar
   711  2144  2143    1
   712  1485  1480    1
   713  1485  1495    1
   714   242   221    2
   715   437   416    2
   716  1164  1165   ar
   717   947   948    1
   718   947   949    1
   719   699   697    1
   720   986   964    2
   721   805   799   ar
   722   422   439    1
   723   422   421    1
   724  1747  1758    1
   725  2135  2137    1
   726  2145  2146    2
   727   708   714   ar
   728   708   709   ar
   729  1719  1720    1
   730  1191  1192   ar
   731  1191  1190   ar
   732   480   459    2
   733   809   811    1
   734  1180  1179    1
   735  1112  1110    1
   736   948   964    1
   737   773   774    1
   738   773   772   ar
   739  1482  1481    1
   740  1482  1498    1
   741   218   217   ar
   742   218   212   ar
   743  1161  1160   ar
   744  1722  1727    1
   745   961   955   ar
   746  1764  1765    1
   747  1764  1766    1
   748   221   243    1
   749   221   223    1
   750  1216  1195    2
   751   950   949    1
   752   217   216   ar
   753  1727  1728    1
   754  1465  1466   ar
   755  1465  1464   ar
   756  1480  1479    1
   757   442   443    1
   758   442   444    1
   759   439   441    1
   760   439   458    1
   761  1479  1481    1
   762  1479  1477    1
   763   419   421    1
   764   419   417    1
   765   419   420    1
   766  1519  1498    2
   767   803   800   ar
   768     1    23    1
   769     1    22    1
   770   418   416    1
   771   418   417    1
   772  1192  1186   ar
   773  1704  1703    1
   774   714   713   ar
   775  1195  1217    1
   776  1195  1197    1
   777  1442  1443   ar
   778  1442  1447   ar
   779   959   956   ar
   780   697   698    1
   781   697   695    1
   782  1489  1495   ar
   783  1489  1490   ar
   784  1799  1781    2
   785  1101  1103   ar
   786  1101  1100   ar
   787   589   568    2
   788   858   857    1
   789   445   459    1
   790   445   444    1
   791  1124  1126   ar
   792  1124  1125    2
   793  2138  2143    1
   794  2138  2137    1
   795   964   985    1
   796   964   966    1
   797  1097  1099    1
   798  1097  1095    1
   799  2002  2003    2
   800  2002  2004   ar
   801  1989  1990    1
   802  2005  2004   ar
   803  1767  1766    1
   804  1767  1781    1
   805  1443  1444   ar
   806   778   772   ar
   807   778   779    2
   808   423   421    1
   809   423   425    1
   810  1486  1491   ar
   811   402   416    1
   812   402   401    1
   813  1499  1501    1
   814  1499  1500    1
   815  1495  1494   ar
   816   849   830    2
   817   710   709   ar
   818   710   711    2
   819   403   405    1
   820   403   401    1
   821   416   438    1
   822  1190  1187   ar
   823  1466  1467   ar
   824  1103  1104   ar
   825  1464  1469   ar
   826  1765  1770    1
   827   399   400    1
   828   399   401    1
   829   399   397    1
   830  2143  2141    1
   831   709   712   ar
   832   855   857    1
   833   855   853    1
   834   420   425    1
   835  1165  1160   ar
   836  1165  1166    1
   837  2137  2139    1
   838   459   481    1
   839   459   461    1
   840   222   223    1
   841   222   224    1
   842  1498  1500    1
   843  1498  1520    1
   844  1730  1729    2
   845   554   553    1
   846   859   857    1
   847   859   854    1
   848   859   870    1
   849  1099  1100    1
   850  1099  1094    1
   851  1766  1768    1
   852   799   800   ar
   853   799   798   ar
   854   405   400    1
   855   405   406    1
   856  1990  1988    1
   857  1128  1110    2
   858   443   448    1
   859  1758  1757   ar
   860  1758  1752   ar
   861   444   446    1
   862   425   436    1
   863  1501  1502    1
   864  1501  1503    1
   865   955   956   ar
   866   955   954   ar
   867   212   211   ar
   868   212   213   ar
   869   513   512   ar
   870   513   514   ar
   871  1448  1447    1
   872  1781  1800    1
   873  1781  1783    1
   874   869   870   ar
   875   869   868   ar
   876   512   517   ar
   877  1720  1718    1
   878   216   213   ar
   879  1110  1096    1
   880  1110  1129    1
   881   956   957   ar
   882  1096  1095    1
   883   447   446    1
   884  1736  1718    2
   885  1447  1446   ar
   886   811   812    1
   887   811   813    1
   888   800   801   ar
   889   408   407    2
   890  1477  1478    1
   891  1100  1107   ar
   892   826   825   ar
   893   826   827   ar
   894   825   822   ar
   895  2139  2141    1
   896  2139  2140    1
   897  1462  1461    1
   898   552   568    1
   899   552   551    1
   900   854   853    1
   901   853   851    1
   902   397   398    1
   903   211   210   ar
   904  1757  1756   ar
   905  1186  1187   ar
   906  1186  1185   ar
   907  1703  1705    1
   908  1703  1701    1
   909   713   712   ar
   910  1728  1729   ar
   911  1728  1735   ar
   912   385   384    1
   913  1490  1491   ar
   914  1490  1493   ar
   915  1769  1768    1
   916  1502  1507    1
   917  1444  1445   ar
   918   568   570    1
   919   568   590    1
   920  1197  1196    1
   921  1095  1093    1
   922  1491  1492    1
   923   695   696    1
   924   870   864   ar
   925   848   830    1
   926   830   814    1
   927   830   832    1
   928  1187  1188   ar
   929   569   570    1
   930   569   571    1
   931   812   817    1
   932  1504  1503    1
   933  1504  1521    1
   934   549   547    1
   935   549   551    1
   936   549   550    1
   937   798   796   ar
   938  1702  1718    1
   939  1702  1701    1
   940   845   844    1
   941   460   461    1
   942   460   462    1
   943  1729  1731   ar
   944   547   548    1
   945   954   953   ar
   946   514   515   ar
   947  2141  2142    1
   948   213   214   ar
   949   966   965    1
   950   813   814    1
   951   813   815    1
   952  1494  1493   ar
   953  1104  1105    1
   954  1104  1106   ar
   955  1708  1707   ar
   956  1708  1709   ar
   957  1980  1979    2
   958   446   448    1
   959   868   865   ar
   960  1718  1737    1
   961  1467  1468   ar
   962  1467  1473   ar
   963  1770  1768    1
   964  1770  1771    1
   965  1469  1470    1
   966  1469  1468   ar
   967  1196  1198    1
   968  1705  1700    1
   969  1705  1715    1
   970  1542  1521    2
   971   381   380    1
   972  1981  1979   ar
   973  1981  1982   ar
   974   517   518    1
   975   517   516   ar
   976  1506  1505    1
   977  1094  1093    1
   978   448   449    1
   979  1752  1751   ar
   980  1752  1753   ar
   981   224   225    1
   982   224   226    1
   983  1707  1706   ar
   984  1751  1749   ar
   985   553   551    1
   986   553   555    1
   987  1983  1982    1
   988  1185  1183   ar
   989  1503  1505    1
   990   982   983   ar
   991   982   979   ar
   992   406   407   ar
   993   406   413   ar
   994   407   409   ar
   995  1461  1463    1
   996  1461  1459    1
   997  1093  1091    1
   998  2006  1988    2
   999   957   958    1
  1000   957   952   ar
  1001  1988  2007    1
  1002  1988  1974    1
  1003   696   694    1
  1004  1701  1699    1
  1005   686   685    2
  1006  1735  1734   ar
  1007  1979  1978   ar
  1008  1778  1771   ar
  1009  1778  1777   ar
  1010   436   430   ar
  1011   436   435   ar
  1012  1478  1476    1
  1013  1463  1473    1
  1014  1463  1458    1
  1015   225   230    1
  1016  1700  1699    1
  1017   429   430   ar
  1018   429   427   ar
  1019   983   984   ar
  1020  1783  1782    1
  1021   846   844   ar
  1022   846   847   ar
  1023  1446  1445   ar
  1024  1446  1449   ar
  1025   827   817    1
  1026   827   821   ar
  1027  1699  1697    1
  1028   550   555    1
  1029  1107  1106   ar
  1030  1445  1451   ar
  1031   571   572    1
  1032   571   573    1
  1033   801   802    2
  1034   801   795   ar
  1035  1002  1001    2
  1036   822   823   ar
  1037   822   821   ar
  1038  1982  1984   ar
  1039   210   209   ar
  1040  1507  1505    1
  1041  1507  1518    1
  1042  1468  1471   ar
  1043  1782  1784    1
  1044  1756  1753   ar
  1045   824   823    1
  1046   515   516   ar
  1047   515   521   ar
  1048   844   843   ar
  1049   384   386   ar
  1050   384   383   ar
  1051  1521  1543    1
  1052  1521  1523    1
  1053   398   396    1
  1054   965   967    1
  1055   555   565    1
  1056   851   852    1
  1057  1473  1472   ar
  1058   953   952   ar
  1059   981   980    2
  1060   852   850    1
  1061   817   815    1
  1062   386   387   ar
  1063   566   546    2
  1064   516   519   ar
  1065  1188  1189    2
  1066  1188  1182   ar
  1067  1771  1772   ar
  1068  1082  1081    2
  1069   428   427    1
  1070   510   509    1
  1071   832   831    1
  1072  1709  1715   ar
  1073  1709  1710   ar
  1074   864   865   ar
  1075   864   863   ar
  1076   796   795   ar
  1077   796   797    1
  1078   548   546    1
  1079  1715  1714   ar
  1080   609   591    2
  1081   430   431   ar
  1082   462   463    1
  1083   462   464    1
  1084  1731  1732   ar
  1085   865   866   ar
  1086  1975  1976    1
  1087  1975  1973    1
  1088  1975  1977    1
  1089   214   209   ar
  1090   214   215    1
  1091  1753  1754   ar
  1092   815   816    1
  1093  1777  1775   ar
  1094   574   573    1
  1095   574   591    1
  1096   380   382    1
  1097   380   378    1
  1098   414   396    2
  1099   979   980   ar
  1100   979   978   ar
  1101  1199  1198    1
  1102  1199  1204    1
  1103   456   449   ar
  1104   456   455   ar
  1105  1198  1200    1
  1106   687   685   ar
  1107   687   688   ar
  1108   226   227    1
  1109   226   228    1
  1110   449   450   ar
  1111   968   967    1
  1112   968   973    1
  1113   685   684   ar
  1114   823   818   ar
  1115  1706  1711   ar
  1116  1183  1182   ar
  1117  1183  1184    1
  1118   572   577    1
  1119   227   244    1
  1120   266   244    2
  1121   427   426   ar
  1122  1974  1973    1
  1123  1749  1750    1
  1124  1749  1748   ar
  1125   682   681    1
  1126  1083  1081   ar
  1127  1083  1084   ar
  1128   821   820   ar
  1129   413   412   ar
  1130   501   482    2
  1131   435   434   ar
  1132  1458  1457    1
  1133   240   239   ar
  1134   240   241   ar
  1135   500   482    1
  1136   847   840   ar
  1137   409   410   ar
  1138   980   974   ar
  1139  1214  1213   ar
  1140  1214  1215   ar
  1141  1978  1977    1
  1142  1978  1985   ar
  1143   984   978   ar
  1144   984   973    1
  1145   521   511    1
  1146   521   520   ar
  1147  1522  1523    1
  1148  1522  1524    1
  1149   610   591    1
  1150   379   396    1
  1151   379   378    1
  1152  1973  1971    1
  1153  1460  1459    1
  1154  1460  1476    1
  1155  1459  1457    1
  1156  1001  1003   ar
  1157  1001  1000   ar
  1158   465   482    1
  1159   465   464    1
  1160  1734  1732   ar
  1161   573   575    1
  1162   871   850    2
  1163   383   389   ar
  1164   591   593    1
  1165  1081  1080   ar
  1166  1213  1210   ar
  1167   396   415    1
  1168  1984  1985   ar
  1169  1449  1450   ar
  1170  1091  1092    1
  1171   546   530    1
  1172   546   567    1
  1173  1697  1698    1
  1174   843   841   ar
  1175   681   683    1
  1176   681   679    1
  1177  1496  1476    2
  1178  1476  1497    1
  1179   463   468    1
  1180  1518  1517   ar
  1181  1518  1512   ar
  1182   967   969    1
  1183   265   244    1
  1184   382   393    1
  1185   382   377    1
  1186   230   241    1
  1187   230   228    1
  1188  1451  1441    1
  1189  1451  1450   ar
  1190   511   509    1
  1191   511   506    1
  1192   519   520   ar
  1193   694   715    2
  1194   694   716    1
  1195   694   680    1
  1196   863   861   ar
  1197  1517  1516   ar
  1198   244   246    1
  1199   482   484    1
  1200  1085  1084    1
  1201   544   524    2
  1202  1471  1472   ar
  1203  1977  1972    1
  1204  1457  1455    1
  1205  1732  1733    1
  1206   464   466    1
  1207   239   236   ar
  1208   558   559   ar
  1209   558   557   ar
  1210   689   688    2
  1211   850   872    1
  1212   850   836    1
  1213   978   977   ar
  1214  1784  1785    1
  1215  1784  1786    1
  1216   509   507    1
  1217   387   393   ar
  1218   387   388   ar
  1219   831   833    1
  1220   565   559   ar
  1221   565   564   ar
  1222  1772  1773    2
  1223  1772  1774   ar
  1224   973   971    1
  1225  1003  1004   ar
  1226   241   235   ar
  1227  1710  1711   ar
  1228  1710  1713   ar
  1229   378   376    1
  1230   688   690   ar
  1231   576   575    1
  1232  1440  1439    1
  1233  1084  1086   ar
  1234   508   524    1
  1235   508   507    1
  1236   455   453   ar
  1237   866   867    2
  1238   866   860   ar
  1239  1714  1713   ar
  1240   530   529    1
  1241  1711  1712    1
  1242   525   527    1
  1243   525   526    1
  1244   228   229    1
  1245   431   434   ar
  1246   431   432   ar
  1247  1092  1090    1
  1248  1441  1439    1
  1249  1441  1436    1
  1250  1022  1021    2
  1251   684   683    1
  1252   684   691   ar
  1253  1200  1201    1
  1254  1200  1202    1
  1255  1754  1748   ar
  1256  1754  1755    2
  1257   450   451    2
  1258   450   452   ar
  1259  1000   998   ar
  1260   683   678    1
  1261  1215  1204    1
  1262  1215  1209   ar
  1263  1204  1202    1
  1264  1775  1774   ar
  1265  1775  1776    2
  1266   840   841   ar
  1267   840   839    1
  1268   412   410   ar
  1269  1439  1437    1
  1270   680   679    1
  1271   393   392   ar
  1272   376   377    1
  1273   376   374    1
  1274  1963  1962    2
  1275   818   819   ar
  1276   577   575    1
  1277   577   588    1
  1278   974   975   ar
  1279   426   432   ar
  1280  1785  1790    1
  1281   410   411    2
  1282   527   529    1
  1283   527   528    1
  1284  1078  1077    1
  1285   559   560   ar
  1286   820   819   ar
  1287   835   836    1
  1288   835   833    1
  1289   835   837    1
  1290   841   842    2
  1291  1201  1218    1
  1292  1787  1786    1
  1293  1787  1801    1
  1294  1698  1696    1
  1295   969   971    1
  1296   969   970    1
  1297   679   677    1
  1298  1239  1218    2
  1299  1006   987    2
  1300  1524  1525    1
  1301  1524  1526    1
  1302   557   556   ar
  1303  1797  1798   ar
  1304  1797  1795   ar
  1305  1039  1038    1
  1306  1421  1420    1
  1307  1798  1791   ar
  1308  1786  1788    1
  1309   478   479   ar
  1310   478   477   ar
  1311  1210  1209   ar
  1312  1210  1211   ar
  1313   524   526    1
  1314   524   545    1
  1315   506   505    1
  1316   389   388   ar
  1317   389   390    2
  1318  1512  1511   ar
  1319  1512  1513   ar
  1320  1080  1079    1
  1321  1080  1087   ar
  1322   507   505    1
  1323  1819  1801    2
  1324   529   531    1
  1325  1516  1513   ar
  1326  1077  1079    1
  1327  1077  1075    1
  1328   861   860   ar
  1329   861   862    1
  1330  1971  1972    1
  1331  1971  1969    1
  1332   833   834    1
  1333   468   466    1
  1334   468   479    1
  1335   564   563   ar
  1336   388   391   ar
  1337   977   975   ar
  1338   593   592    1
  1339   587   588   ar
  1340   587   586   ar
  1341   467   466    1
  1342   432   433    2
  1343   690   691   ar
  1344  1065  1064    2
  1345   236   235   ar
  1346   236   237   ar
  1347  1525  1530    1
  1348  1004   997   ar
  1349  1511  1509   ar
  1350  1079  1074    1
  1351  1202  1203    1
  1352   834   839    1
  1353  1820  1801    1
  1354   971   972    1
  1355   246   245    1
  1356  1455  1456    1
  1357   975   976    1
  1358  1684  1683    1
  1359  1962  1961   ar
  1360  1962  1964   ar
  1361   235   234   ar
  1362  1209  1208   ar
  1363  1218  1238    1
  1364  1218  1220    1
  1365   484   483    1
  1366  1212  1211    2
  1367  1801  1803    1
  1368   588   582   ar
  1369  1021  1020   ar
  1370  1021  1023   ar
  1371   453   452   ar
  1372   453   454    1
  1373   592   594    1
  1374   837   839    1
  1375   837   838    1
  1376  1436  1435    1
  1377  1086  1087   ar
  1378  1970  1969    1
  1379  1970  1968    1
  1380   998   997   ar
  1381   998   999    2
  1382   669   668    1
  1383   479   473   ar
  1384   477   474   ar
  1385  1895  1894    1
  1386  1961  1959   ar
  1387  1211  1205   ar
  1388  1918  1917    2
  1389   970   987    1
  1390   678   677    1
  1391  1987  1968    2
  1392  1513  1514   ar
  1393   528   533    1
  1394  1063  1064   ar
  1395  1063  1061   ar
  1396   505   503    1
  1397  1967  1948    2
  1398  1716  1696    2
  1399  1037  1038   ar
  1400  1037  1043   ar
  1401  1527  1526    1
  1402  1527  1544    1
  1403   374   375    1
  1404   392   391   ar
  1405  1090  1108    2
  1406  1090  1109    1
  1407  1090  1076    1
  1408   365   364    2
  1409  1020  1018   ar
  1410  1790  1791    1
  1411  1790  1788    1
  1412   677   675    1
  1413  1526  1528    1
  1414  1038  1040   ar
  1415   560   563   ar
  1416   560   561   ar
  1417  1437  1438    1
  1418  1437  1435    1
  1419  1791  1792   ar
  1420  1562  1544    2
  1421   987  1005    1
  1422   987   989    1
  1423  1456  1454    1
  1424  1795  1796    2
  1425  1795  1794   ar
  1426   997   996    1
  1427  1420  1422   ar
  1428  1420  1419   ar
  1429  1696  1682    1
  1430  1696  1717    1
  1431  1964  1965   ar
  1432  1417  1416    1
  1433  1064  1066   ar
  1434   556   561   ar
  1435  1563  1544    1
  1436  1062  1061    2
  1437   667   668   ar
  1438   667   665   ar
  1439   245   247    1
  1440   483   485    1
  1441   586   583   ar
  1442  1788  1789    1
  1443  1688  1687    2
  1444  1893  1894   ar
  1445  1893  1899   ar
  1446  1075  1076    1
  1447  1075  1073    1
  1448  1544  1546    1
  1449   237   238    2
  1450   237   231   ar
  1451  1422  1423   ar
  1452  1683  1681    1
  1453  1683  1685    1
  1454  1968  1986    1
  1455  1968  1954    1
  1456  1540  1539   ar
  1457  1540  1541   ar
  1458   531   533    1
  1459   531   532    1
  1460   668   670   ar
  1461   234   232   ar
  1462  1682  1681    1
  1463  1023  1024   ar
  1464  1438  1454    1
  1465  1435  1433    1
  1466  1509  1510    1
  1467  1509  1508   ar
  1468   633   611    2
  1469  1061  1060   ar
  1470  1044  1043    2
  1471  1208  1206   ar
  1472  1959  1960    2
  1473  1959  1958   ar
  1474   533   543    1
  1475  1919  1917   ar
  1476  1919  1920   ar
  1477  1894  1896   ar
  1478  1530  1528    1
  1479  1530  1541    1
  1480  1917  1916   ar
  1481  1074  1073    1
  1482   498   499   ar
  1483   498   496   ar
  1484   666   665    2
  1485   649   648    1
  1486   561   562    1
  1487  1900  1899    2
  1488  1043  1042   ar
  1489   582   583   ar
  1490   582   581   ar
  1491   375   373    1
  1492   366   364   ar
  1493   366   367   ar
  1494  1642  1641    1
  1495   364   363   ar
  1496  1220  1219    1
  1497   262   263   ar
  1498   262   259   ar
  1499   504   503    1
  1500   504   502    1
  1501   989   988    1
  1502  1205  1206   ar
  1503  1914  1913    1
  1504   474   473   ar
  1505   474   475   ar
  1506   473   472   ar
  1507  1419  1425   ar
  1508   263   264   ar
  1509  1803  1802    1
  1510   665   664   ar
  1511   361   360    1
  1512  1965  1958   ar
  1513   594   595    1
  1514   594   596    1
  1515  1948  1966    1
  1516  1948  1950    1
  1517  1948  1932    1
  1518  1514  1508   ar
  1519  1514  1515    2
  1520  1040  1041   ar
  1521  1528  1529    1
  1522   607   608   ar
  1523   607   605   ar
  1524  1539  1536   ar
  1525  1794  1792   ar
  1526  1541  1535   ar
  1527  1018  1019    2
  1528  1018  1017   ar
  1529  1792  1793    2
  1530  1899  1898   ar
  1531   499   492   ar
  1532   497   496    2
  1533  1454  1475    2
  1534  1454  1474    1
  1535   583   584   ar
  1536  1958  1957    1
  1537  1681  1679    1
  1538  1073  1071    1
  1539   675   676    1
  1540  1817  1815   ar
  1541  1817  1818   ar
  1542   608   601   ar
  1543  1416  1418    1
  1544  1416  1414    1
  1545  1206  1207    1
  1546   676   674    1
  1547   996   991    1
  1548   996   994    1
  1549   991   990    1
  1550  1687  1689   ar
  1551  1687  1686   ar
  1552  1946  1926    2
  1553  1816  1815    2
  1554  1685  1686    1
  1555  1685  1680    1
  1556   595   600    1
  1557  1928  1927    1
  1558  1928  1926    1
  1559   248   247    1
  1560   248   253    1
  1561   360   362    1
  1562   360   358    1
  1563  1235  1236   ar
  1564  1235  1232   ar
  1565  1066  1067   ar
  1566   232   231   ar
  1567   232   233    1
  1568   247   249    1
  1569  1950  1949    1
  1570   496   495   ar
  1571  1927  1929    1
  1572   522   502    2
  1573   581   579   ar
  1574  1452  1432    2
  1575  1955  1953    1
  1576  1955  1957    1
  1577  1955  1956    1
  1578   670   671   ar
  1579  1953  1954    1
  1580  1953  1951    1
  1581   341   342   ar
  1582   341   346   ar
  1583  1929  1930    1
  1584  1929  1931    1
  1585   485   487    1
  1586   485   486    1
  1587  1434  1433    1
  1588  1434  1432    1
  1589  1921  1920    1
  1590   611   632    1
  1591   611   597    1
  1592   611   613    1
  1593  1423  1429   ar
  1594  1423  1424   ar
  1595   536   537   ar
  1596   536   535   ar
  1597  1920  1922   ar
  1598  1418  1429    1
  1599  1418  1413    1
  1600  1024  1017   ar
  1601   596   597    1
  1602   596   598    1
  1603  1912  1926    1
  1604  1912  1911    1
  1605  1236  1237   ar
  1606  1916  1915    1
  1607  1916  1923   ar
  1608  1915  1913    1
  1609  1915  1910    1
  1610   368   367    1
  1611  1896  1897   ar
  1612  1219  1221    1
  1613  1060  1067   ar
  1614  1060  1059    1
  1615   367   369   ar
  1616   648   647   ar
  1617   648   650   ar
  1618  1815  1814   ar
  1619  1546  1545    1
  1620  1802  1804    1
  1621   543   537   ar
  1622   543   542   ar
  1623   286   267    2
  1624   347   346    1
  1625  1818  1811   ar
  1626   472   470   ar
  1627  1640  1641   ar
  1628  1640  1646   ar
  1629   487   488    1
  1630   487   489    1
  1631   988   990    1
  1632  1641  1643   ar
  1633  1234  1233    1
  1634   363   362    1
  1635   363   370   ar
  1636  1042  1041   ar
  1637  1042  1045   ar
  1638   502   488    1
  1639   502   523    1
  1640   362   357    1
  1641   486   491    1
  1642  1689  1690   ar
  1643   342   343   ar
  1644  1041  1047   ar
  1645  1017  1016    1
  1646  1686  1693   ar
  1647  1926  1947    1
  1648  1679  1680    1
  1649  1679  1677    1
  1650  1913  1911    1
  1651   628   627    2
  1652  1930  1935    1
  1653  1415  1432    1
  1654  1415  1414    1
  1655   664   671   ar
  1656   664   663    1
  1657   475   476    2
  1658   475   469   ar
  1659   261   260    2
  1660  1932  1931    1
  1661   606   605    2
  1662   259   260   ar
  1663   259   258   ar
  1664   264   253    1
  1665   264   258   ar
  1666   605   604   ar
  1667  1425  1424   ar
  1668  1425  1426    2
  1669  1957  1952    1
  1670  1255  1254    1
  1671   373   394    2
  1672   373   359    1
  1673   373   395    1
  1674  1432  1453    1
  1675  1429  1428   ar
  1676  1536  1535   ar
  1677  1536  1537   ar
  1678   249   250    1
  1679   249   251    1
  1680  1535  1534   ar
  1681   537   538   ar
  1682   990   992    1
  1683   346   345   ar
  1684   535   534   ar
  1685  1414  1412    1
  1686   282   281    2
  1687  1898  1897   ar
  1688  1898  1901   ar
  1689   994   992    1
  1690   994   995    1
  1691   647   645   ar
  1692  1299  1298    1
  1693   492   491    1
  1694   492   493   ar
  1695   601   600    1
  1696   601   602   ar
  1697   992   993    1
  1698   359   358    1
  1699  1545  1547    1
  1700  1232  1233   ar
  1701  1232  1231   ar
  1702   693   674    2
  1703  1413  1412    1
  1704   253   251    1
  1705  1931  1933    1
  1706   650   651   ar
  1707   584   585    2
  1708   584   578   ar
  1709  1424  1427   ar
  1710  1072  1071    1
  1711  1072  1070    1
  1712   661   662    1
  1713   661   663    1
  1714   661   659    1
  1715   325   324    1
  1716   629   630   ar
  1717   629   626   ar
  1718   600   598    1
  1719   260   254   ar
  1720  1897  1903   ar
  1721  1026  1007    2
  1722   358   356    1
  1723  1412  1410    1
  1724  1911  1909    1
  1725   674   692    1
  1726   674   660    1
  1727  1222  1221    1
  1728  1222  1227    1
  1729  1057  1059    1
  1730  1057  1058    1
  1731  1057  1055    1
  1732   303   302    1
  1733   579   578   ar
  1734   579   580    1
  1735  1949  1951    1
  1736  1951  1952    1
  1737   495   493   ar
  1738  1059  1054    1
  1739  1233  1228   ar
  1740  1910  1909    1
  1741  1277  1276    2
  1742  1922  1923   ar
  1743   250   267    1
  1744  1647  1646    2
  1745   613   612    1
  1746  1837  1836    1
  1747   258   257   ar
  1748   491   489    1
  1749   542   541   ar
  1750  1878  1877    1
  1751   663   658    1
  1752  1237  1231   ar
  1753  1237  1227    1
  1754  1805  1804    1
  1755  1805  1810    1
  1756  1935  1933    1
  1757  1935  1945    1
  1758  1221  1223    1
  1759  1646  1645   ar
  1760   470   469   ar
  1761   470   471    1
  1762   598   599    1
  1763  1643  1644   ar
  1764   267   285    1
  1765   267   269    1
  1766   369   370   ar
  1767   627   626   ar
  1768   627   621   ar
  1769  1842  1821    2
  1770   283   281   ar
  1771   283   284   ar
  1772  1814  1812   ar
  1773  1804  1806    1
  1774  1045  1046   ar
  1775   343   344   ar
  1776   489   490    1
  1777  1811  1812   ar
  1778  1811  1810    1
  1779  1560  1561   ar
  1780  1560  1558   ar
  1781  1858  1857    1
  1782   357   356    1
  1783   281   280   ar
  1784  1047  1036    1
  1785  1047  1046   ar
  1786  1677  1678    1
  1787  1690  1691    2
  1788  1690  1692   ar
  1789   493   494    2
  1790   251   252    1
  1791   604   602   ar
  1792  1534  1532   ar
  1793  1693  1692   ar
  1794  1909  1907    1
  1795   630   631   ar
  1796  1254  1256   ar
  1797  1254  1253   ar
  1798   659   660    1
  1799   659   657    1
  1800   626   625   ar
  1801  1537  1538    2
  1802  1537  1531   ar
  1803  1016  1011    1
  1804  1016  1014    1
  1805   319   324   ar
  1806   319   320   ar
  1807  1259  1240    2
  1808  1231  1230   ar
  1809  1428  1427   ar
  1810  1901  1902   ar
  1811   602   603    2
  1812   653   634    2
  1813  1089  1070    2
  1814  1227  1225    1
  1815   356   354    1
  1816  1561  1554   ar
  1817  1298  1293   ar
  1818  1298  1297   ar
  1819   324   323   ar
  1820   538   541   ar
  1821   538   539   ar
  1822   645   646    2
  1823   645   644   ar
  1824   345   344   ar
  1825   345   348   ar
  1826   534   539   ar
  1827  1256  1257   ar
  1828  1055  1056    1
  1829  1055  1053    1
  1830  1933  1934    1
  1831   993  1007    1
  1832   651   644   ar
  1833  1401  1400    2
  1834  1293  1294   ar
  1835  1945  1939   ar
  1836  1945  1944   ar
  1837  1838  1835   ar
  1838  1838  1839   ar
  1839  1070  1056    1
  1840  1070  1088    1
  1841  1938  1939   ar
  1842  1938  1937   ar
  1843  1036  1031    1
  1844  1036  1034    1
  1845  1812  1813    2
  1846  1007  1009    1
  1847  1007  1025    1
  1848  1810  1808    1
  1849  1223  1224    1
  1850  1223  1225    1
  1851  1586  1564    2
  1852  1678  1676    1
  1853  1903  1902   ar
  1854  1903  1892    1
  1855  1547  1548    1
  1856  1547  1549    1
  1857  1276  1270   ar
  1858  1276  1275   ar
  1859  1011  1010    1
  1860  1228  1229   ar
  1861   254   255   ar
  1862   344   350   ar
  1863  1410  1411    1
  1864  1806  1807    1
  1865  1806  1808    1
  1866  1876  1877   ar
  1867  1876  1874   ar
  1868  1559  1558    2
  1869   302   297   ar
  1870   302   301   ar
  1871  1054  1053    1
  1872  1877  1879   ar
  1873  1402  1400   ar
  1874  1402  1403   ar
  1875   612   614    1
  1876  1644  1645   ar
  1877  1644  1650   ar
  1878  1836  1835   ar
  1879  1836  1831   ar
  1880  1548  1553    1
  1881  1009  1008    1
  1882  1939  1940   ar
  1883  1035  1034    1
  1884   621   622   ar
  1885   284   277   ar
  1886  1645  1648   ar
  1887  1558  1557   ar
  1888  1253  1251   ar
  1889   257   255   ar
  1890   658   657    1
  1891  1014  1015    1
  1892  1014  1012    1
  1893   269   268    1
  1894  1270  1271   ar
  1895   644   643    1
  1896   539   540    1
  1897  1944  1943   ar
  1898   673   654    2
  1899  1937  1936   ar
  1900  1532  1531   ar
  1901  1532  1533    1
  1902  1404  1403    1
  1903  1821  1807    1
  1904  1821  1841    1
  1905  1821  1823    1
  1906  1400  1399   ar
  1907   320   321   ar
  1908  1835  1834   ar
  1909   280   278   ar
  1910  1857  1856   ar
  1911  1857  1859   ar
  1912  1604  1603    2
  1913  1031  1030    1
  1914   297   298   ar
  1915  1694  1676    2
  1916   631   625   ar
  1917   631   620    1
  1918  1549  1550    1
  1919  1549  1551    1
  1920   625   624   ar
  1921  1625  1624    1
  1922  1230  1229   ar
  1923   304   301   ar
  1924   304   305   ar
  1925   657   655    1
  1926  1224  1240    1
  1927  1225  1226    1
  1928  1297  1300   ar
  1929  1297  1296   ar
  1930  1892  1890    1
  1931  1892  1887    1
  1932   348   349   ar
  1933   255   256    1
  1934   656   654    1
  1935   656   655    1
  1936  1839  1840   ar
  1937  1890  1891    1
  1938  1890  1888    1
  1939  1240  1258    1
  1940  1240  1242    1
  1941  1053  1051    1
  1942  1257  1250   ar
  1943  1300  1301   ar
  1944  1403  1405   ar
  1945  1907  1908    1
  1946  1034  1032    1
  1947  1554  1553    1
  1948  1554  1555   ar
  1949  1808  1809    1
  1950   301   300   ar
  1951   323   326   ar
  1952   323   322   ar
  1953  1940  1943   ar
  1954  1940  1941   ar
  1955  1550  1564    1
  1956  1069  1050    2
  1957  1294  1295   ar
  1958  1411  1409    1
  1959  1564  1585    1
  1960  1564  1566    1
  1961   634   636    1
  1962   634   617    1
  1963   634   652    1
  1964   354   355    1
  1965  1275  1278   ar
  1966  1275  1274   ar
  1967  1676  1695    1
  1968  1676  1659    1
  1969  1342  1341    1
  1970  1831  1832   ar
  1971  1875  1874    2
  1972  1012  1010    1
  1973  1012  1013    1
  1974  1936  1941   ar
  1975  1278  1279   ar
  1976  1874  1873   ar
  1977  1010  1008    1
  1978   616   614    1
  1979   616   617    1
  1980   616   618    1
  1981  1856  1854   ar
  1982  1908  1906    1
  1983  1033  1032    1
  1984  1033  1050    1
  1985   614   615    1
  1986  1553  1551    1
  1987  1859  1860   ar
  1988   350   349   ar
  1989   350   340    1
  1990  1581  1580    2
  1991  1879  1880   ar
  1992   355   353    1
  1993  1397  1396    1
  1994   615   620    1
  1995   654   672    1
  1996   654   640    1
  1997   622   624   ar
  1998   622   623    1
  1999   326   327   ar
  2000  1650  1639    1
  2001  1650  1649   ar
  2002  1251  1250   ar
  2003  1251  1252    2
  2004  1941  1942    1
  2005   277   278   ar
  2006   277   276    1
  2007  1557  1555   ar
  2008  1052  1050    1
  2009  1052  1051    1
  2010  1648  1649   ar
  2011  1823  1822    1
  2012   636   635    1
  2013   268   270    1
  2014  1271  1272    1
  2015  1271  1273   ar
  2016  1638  1637    1
  2017  1396  1398    1
  2018  1396  1394    1
  2019   308   287    2
  2020  1623  1624   ar
  2021  1623  1621   ar
  2022   278   279    2
  2023   643   641    1
  2024   643   638    1
  2025  1399  1398    1
  2026  1399  1406   ar
  2027  1250  1249    1
  2028   620   618    1
  2029   641   639    1
  2030   641   642    1
  2031  1582  1583   ar
  2032  1582  1579   ar
  2033  1242  1241    1
  2034  1032  1030    1
  2035   321   322   ar
  2036  1624  1626   ar
  2037  1030  1028    1
  2038  1050  1068    1
  2039  1603  1597   ar
  2040  1603  1602   ar
  2041   639   640    1
  2042   639   637    1
  2043   305   306   ar
  2044  1639  1637    1
  2045  1639  1634    1
  2046  1555  1556    2
  2047  1551  1552    1
  2048  1834  1840   ar
  2049  1834  1833   ar
  2050  1296  1295   ar
  2051  1296  1302   ar
  2052   322   328   ar
  2053   298   299   ar
  2054  1674  1653    2
  2055   338   340    1
  2056   338   339    1
  2057   338   336    1
  2058  1840  1830    1
  2059  1888  1889    1
  2060  1888  1886    1
  2061  1363  1362    1
  2062  1887  1886    1
  2063  1384  1383    1
  2064  1398  1393    1
  2065  1405  1406   ar
  2066  1301  1302   ar
  2067   340   335    1
  2068   271   270    1
  2069   271   276    1
  2070   618   619    1
  2071  1343  1341   ar
  2072  1343  1344   ar
  2073  1659  1658    1
  2074  1341  1340   ar
  2075   300   299   ar
  2076   300   306   ar
  2077  1274  1273   ar
  2078  1274  1280   ar
  2079   638   637    1
  2080  1605  1602   ar
  2081  1605  1606   ar
  2082  1566  1565    1
  2083  1873  1880   ar
  2084  1873  1872    1
  2085  1580  1579   ar
  2086  1580  1574   ar
  2087  1832  1833   ar
  2088  1279  1280   ar
  2089  1658  1660    1
  2090  1658  1656    1
  2091  1925  1906    2
  2092  1013  1027    1
  2093  1636  1653    1
  2094  1636  1635    1
  2095  1583  1584   ar
  2096  1409  1430    2
  2097  1409  1395    1
  2098  1409  1431    1
  2099  1597  1598   ar
  2100  1654  1656    1
  2101  1654  1655    1
  2102   270   272    1
  2103  1854  1855    2
  2104  1854  1853   ar
  2105  1637  1635    1
  2106  1906  1889    1
  2107  1906  1924    1
  2108   276   274    1
  2109  1049  1027    2
  2110  1860  1853   ar
  2111  1579  1578   ar
  2112  1346  1327    2
  2113  1602  1601   ar
  2114   327   328   ar
  2115   272   274    1
  2116   272   273    1
  2117  1622  1621    2
  2118   635   637    1
  2119  1862  1843    2
  2120  1621  1620   ar
  2121  1634  1633    1
  2122  1302  1292    1
  2123   353   372    2
  2124   353   337    1
  2125   353   371    1
  2126   306   296    1
  2127  1822  1824    1
  2128  1394  1395    1
  2129  1394  1392    1
  2130  1029  1028    1
  2131  1029  1027    1
  2132  1886  1884    1
  2133  1825  1830    1
  2134  1825  1824    1
  2135  1244  1249    1
  2136  1244  1243    1
  2137   336   337    1
  2138   336   334    1
  2139  1626  1627   ar
  2140  1249  1247    1
  2141  1241  1243    1
  2142  1382  1383   ar
  2143  1382  1380   ar
  2144   328   318    1
  2145  1653  1655    1
  2146  1653  1675    1
  2147  1383  1385   ar
  2148   287   273    1
  2149   287   289    1
  2150   287   307    1
  2151  1280  1269    1
  2152  1660  1661    1
  2153  1660  1662    1
  2154  1027  1048    1
  2155  1282  1260    2
  2156  1830  1828    1
  2157  1853  1852    1
  2158  1656  1657    1
  2159  1635  1633    1
  2160  1362  1357   ar
  2161  1362  1361   ar
  2162  1344  1337   ar
  2163  1340  1338   ar
  2164   274   275    1
  2165   335   334    1
  2166  1393  1392    1
  2167  1606  1607   ar
  2168  1574  1575   ar
  2169  1565  1567    1
  2170  1824  1826    1
  2171  1872  1870    1
  2172  1872  1867    1
  2173   289   288    1
  2174  1826  1828    1
  2175  1826  1827    1
  2176  1672  1671   ar
  2177  1672  1673   ar
  2178  1633  1631    1
  2179  1357  1358   ar
  2180  1243  1245    1
  2181  1885  1884    1
  2182  1885  1883    1
  2183  1584  1578   ar
  2184  1584  1573    1
  2185  1245  1247    1
  2186  1245  1246    1
  2187   330   309    2
  2188  1327  1345    1
  2189  1327  1329    1
  2190  1327  1311    1
  2191  1598  1599    1
  2192  1598  1600   ar
  2193  1578  1577   ar
  2194  1870  1871    1
  2195  1870  1868    1
  2196  1392  1390    1
  2197  1601  1607   ar
  2198  1601  1600   ar
  2199  1620  1627   ar
  2200  1620  1619    1
  2201  1291  1290    1
  2202  1609  1587    2
  2203  1247  1248    1
  2204  1657  1662    1
  2205  1828  1829    1
  2206  1380  1381    2
  2207  1380  1379   ar
  2208   334   332    1
  2209  1671  1668   ar
  2210  1329  1328    1
  2211  1292  1290    1
  2212  1292  1287    1
  2213  1385  1386   ar
  2214  1364  1361   ar
  2215  1364  1365   ar
  2216  1843  1827    1
  2217  1843  1845    1
  2218  1843  1861    1
  2219  1905  1883    2
  2220   296   291    1
  2221   296   294    1
  2222  1361  1360   ar
  2223  1568  1567    1
  2224  1568  1573    1
  2225  1662  1673    1
  2226   318   316    1
  2227   318   313    1
  2228   333   332    1
  2229   333   331    1
  2230   291   290    1
  2231  1337  1338   ar
  2232  1337  1336    1
  2233  1290  1288    1
  2234  1338  1339    2
  2235  1607  1596    1
  2236  1673  1667   ar
  2237  1269  1264    1
  2238  1269  1267    1
  2239   352   331    2
  2240   316   314    1
  2241   316   317    1
  2242  1845  1844    1
  2243  1260  1246    1
  2244  1260  1262    1
  2245  1260  1281    1
  2246  1567  1569    1
  2247  1867  1866    1
  2248  1882  1863    2
  2249  1868  1869    1
  2250  1868  1866    1
  2251  1852  1847    1
  2252  1852  1850    1
  2253  1575  1577   ar
  2254  1575  1576    1
  2255  1569  1570    1
  2256  1569  1571    1
  2257   292   294    1
  2258   292   290    1
  2259   292   293    1
  2260  1883  1869    1
  2261  1883  1904    1
  2262   294   295    1
  2263  1573  1571    1
  2264  1262  1261    1
  2265  1358  1359   ar
  2266  1311  1310    1
  2267   288   290    1
  2268  1287  1286    1
  2269  1264  1263    1
  2270  1368  1347    2
  2271  1631  1632    1
  2272  1391  1390    1
  2273  1391  1389    1
  2274   311   309    1
  2275   311   310    1
  2276   314   315    1
  2277   314   312    1
  2278  1379  1386   ar
  2279  1379  1378    1
  2280  1619  1617    1
  2281  1619  1614    1
  2282   309   293    1
  2283   309   329    1
  2284  1847  1846    1
  2285  1632  1630    1
  2286  1587  1570    1
  2287  1587  1608    1
  2288  1587  1589    1
  2289   313   312    1
  2290  1267  1265    1
  2291  1267  1268    1
  2292  1313  1312    1
  2293  1850  1848    1
  2294  1850  1851    1
  2295  1865  1863    1
  2296  1865  1864    1
  2297   331   315    1
  2298   331   351    1
  2299  1617  1618    1
  2300  1617  1615    1
  2301  1365  1366   ar
  2302  1668  1667   ar
  2303  1668  1669   ar
  2304  1328  1330    1
  2305  1331  1336    1
  2306  1331  1330    1
  2307  1360  1359   ar
  2308  1360  1366   ar
  2309  1848  1846    1
  2310  1848  1849    1
  2311  1571  1572    1
  2312  1304  1283    2
  2313  1866  1864    1
  2314  1265  1263    1
  2315  1265  1266    1
  2316  1667  1666   ar
  2317  1336  1334    1
  2318  1332  1330    1
  2319  1332  1334    1
  2320  1332  1333    1
  2321  1310  1312    1
  2322  1310  1308    1
  2323  1863  1849    1
  2324  1863  1881    1
  2325  1596  1591    1
  2326  1596  1594    1
  2327  1844  1846    1
  2328  1288  1286    1
  2329  1288  1289    1
  2330  1408  1389    2
  2331   312   310    1
  2332  1263  1261    1
  2333  1591  1590    1
  2334  1285  1283    1
  2335  1285  1284    1
  2336  1376  1378    1
  2337  1376  1377    1
  2338  1376  1374    1
  2339  1588  1589    1
  2340  1588  1590    1
  2341  1334  1335    1
  2342  1366  1356    1
  2343  1286  1284    1
  2344  1378  1373    1
  2345  1615  1616    1
  2346  1615  1613    1
  2347  1312  1314    1
  2348  1670  1669    2
  2349  1389  1407    1
  2350  1389  1375    1
  2351  1614  1613    1
  2352  1669  1663   ar
  2353  1652  1630    2
  2354  1347  1333    1
  2355  1347  1349    1
  2356  1347  1367    1
  2357  1289  1305    1
  2358  1283  1266    1
  2359  1283  1303    1
  2360  1630  1616    1
  2361  1630  1651    1
  2362  1629  1610    2
  2363  1592  1594    1
  2364  1592  1590    1
  2365  1592  1593    1
  2366  1594  1595    1
  2367  1666  1664   ar
  2368  1388  1369    2
  2369  1374  1375    1
  2370  1374  1372    1
  2371  1308  1306    1
  2372  1308  1309    1
  2373  1349  1348    1
  2374  1612  1610    1
  2375  1612  1611    1
  2376  1314  1309    1
  2377  1314  1324    1
  2378  1613  1611    1
  2379  1317  1316   ar
  2380  1317  1318   ar
  2381  1373  1372    1
  2382  1663  1664   ar
  2383  1316  1315   ar
  2384  1356  1354    1
  2385  1356  1351    1
  2386  1371  1369    1
  2387  1371  1370    1
  2388  1610  1593    1
  2389  1610  1628    1
  2390  1664  1665    1
  2391  1306  1307    1
  2392  1352  1354    1
  2393  1352  1350    1
  2394  1352  1353    1
  2395  1372  1370    1
  2396  1354  1355    1
  2397  1369  1353    1
  2398  1369  1387    1
  2399  1305  1307    1
  2400  1305  1325    2
  2401  1305  1326    1
  2402  1324  1318   ar
  2403  1324  1323   ar
  2404  1351  1350    1
  2405  1318  1319   ar
  2406  1348  1350    1
  2407  1315  1320   ar
  2408  1323  1322   ar
  2409  1319  1320   ar
  2410  1319  1322   ar
  2411  1320  1321    1
