ligand
  PyMOL2.3          3D                             0

 26 29  0  0  0  0  0  0  0  0999 V2000
  111.2830  -75.0530  -81.4210 C   0  0  0  0  0  0  0  0  0  0  0  0
  111.4870  -74.6880  -80.0980 N   0  0  0  0  0  0  0  0  0  0  0  0
  111.8750  -76.2780  -81.9380 C   0  0  0  0  0  0  0  0  0  0  0  0
  113.0130  -80.8190  -87.0600 N   0  0  0  0  0  0  0  0  0  0  0  0
  112.2100  -77.7660  -83.7610 O   0  0  0  0  0  0  0  0  0  0  0  0
  111.5800  -76.5030  -83.2840 C   0  0  0  0  0  0  0  0  0  0  0  0
  111.9440  -77.9580  -84.9940 C   0  0  0  0  0  0  0  0  0  0  0  0
  112.5920  -79.2170  -85.3610 C   0  0  0  0  0  0  0  0  0  0  0  0
  112.4040  -79.5940  -86.7380 C   0  0  0  0  0  0  0  0  0  0  0  0
  111.6660  -78.8030  -87.6530 C   0  0  0  0  0  0  0  0  0  0  0  0
  111.0390  -77.5670  -87.2230 C   0  0  0  0  0  0  0  0  0  0  0  0
  111.2020  -77.1770  -85.8440 C   0  0  0  0  0  0  0  0  0  0  0  0
  110.5050  -75.8880  -85.4770 C   0  0  0  0  0  0  0  0  0  0  0  0
  110.8130  -75.6970  -84.1180 C   0  0  0  0  0  0  0  0  0  0  0  0
  110.2200  -74.4720  -83.5770 C   0  0  0  0  0  0  0  0  0  0  0  0
  110.5090  -74.2160  -82.2010 C   0  0  0  0  0  0  0  0  0  0  0  0
  109.7620  -75.1490  -86.3780 C   0  0  0  0  0  0  0  0  0  0  0  0
  110.1210  -73.8820  -86.8940 C   0  0  0  0  0  0  0  0  0  0  0  0
  109.3920  -73.1300  -87.8170 C   0  0  0  0  0  0  0  0  0  0  0  0
  108.1350  -73.6490  -88.3350 C   0  0  0  0  0  0  0  0  0  0  0  0
  107.7990  -74.9120  -87.7910 C   0  0  0  0  0  0  0  0  0  0  0  0
  108.4960  -75.6980  -86.8630 C   0  0  0  0  0  0  0  0  0  0  0  0
  112.3010  -75.4890  -79.1880 C   0  0  0  0  0  0  0  0  0  0  0  0
  110.9500  -73.4850  -79.4270 C   0  0  0  0  0  0  0  0  0  0  0  0
  113.7770  -81.7830  -86.2370 C   0  0  0  0  0  0  0  0  0  0  0  0
  112.8850  -81.3000  -88.4810 C   0  0  0  0  0  0  0  0  0  0  0  0
  1  2  1  0  0  0  0
  1  3  4  0  0  0  0
  1 16  4  0  0  0  0
  2 23  1  0  0  0  0
  2 24  1  0  0  0  0
  3  6  4  0  0  0  0
  4 25  1  0  0  0  0
  4 26  1  0  0  0  0
  5  7  4  0  0  0  0
  5  6  4  0  0  0  0
  6 14  4  0  0  0  0
  7  8  4  0  0  0  0
  7 12  4  0  0  0  0
  8  9  4  0  0  0  0
  4  9  1  0  0  0  0
  9 10  4  0  0  0  0
 10 11  4  0  0  0  0
 11 12  4  0  0  0  0
 12 13  4  0  0  0  0
 13 14  4  0  0  0  0
 13 17  1  0  0  0  0
 14 15  4  0  0  0  0
 15 16  4  0  0  0  0
 17 18  4  0  0  0  0
 17 22  4  0  0  0  0
 18 19  4  0  0  0  0
 19 20  4  0  0  0  0
 20 21  4  0  0  0  0
 21 22  4  0  0  0  0
M  END
$$$$
